MODEL 1
REMARK VINA RESULT:      -8.8      0.000      0.000
REMARK  Name = 
REMARK  4 active torsions:
REMARK  status: ('A' for Active; 'I' for Inactive)
REMARK    1  A    between atoms: C_1  and  C_2
REMARK    2  A    between atoms: C_7  and  C_8
REMARK    3  A    between atoms: C_17  and  N_18
REMARK    4  A    between atoms: N_18  and  C_19
REMARK                            x       y       z     vdW  Elec       q    Type
REMARK                         _______ _______ _______ _____ _____    ______ ____
ROOT
ATOM      1  C   UNL     1      -0.398  10.692  22.329  0.00  0.00    +0.000 C 
ATOM      2  C   UNL     1       0.360  10.114  21.174  0.00  0.00    +0.000 A 
ATOM      3  C   UNL     1       0.379  10.804  19.891  0.00  0.00    +0.000 A 
ATOM      4  C   UNL     1       0.997  10.275  18.817  0.00  0.00    +0.000 A 
ATOM      5  C   UNL     1       1.616   8.995  18.902  0.00  0.00    +0.000 A 
ATOM      6  N   UNL     1       2.267   8.294  18.004  0.00  0.00    +0.000 NA
ATOM      7  C   UNL     1       2.603   7.116  18.631  0.00  0.00    +0.000 A 
ATOM      8  C   UNL     1       2.135   7.079  19.940  0.00  0.00    +0.000 A 
ATOM      9  N   UNL     1       1.565   8.336  20.133  0.00  0.00    +0.000 N 
ATOM     10  C   UNL     1       1.003   8.939  21.266  0.00  0.00    +0.000 A 
ENDROOT
BRANCH   7  11
ATOM     11  C   UNL     1       3.326   6.083  17.885  0.00  0.00    +0.000 A 
ATOM     12  C   UNL     1       2.829   4.886  17.415  0.00  0.00    +0.000 A 
ATOM     13  N   UNL     1       3.857   4.215  16.805  0.00  0.00    +0.000 N 
ATOM     14  C   UNL     1       5.020   4.947  16.884  0.00  0.00    +0.000 A 
ATOM     15  C   UNL     1       6.313   4.635  16.445  0.00  0.00    +0.000 A 
ATOM     16  C   UNL     1       7.316   5.588  16.646  0.00  0.00    +0.000 A 
ATOM     17  C   UNL     1       7.030   6.813  17.243  0.00  0.00    +0.000 A 
ATOM     18  C   UNL     1       5.734   7.106  17.680  0.00  0.00    +0.000 A 
ATOM     19  C   UNL     1       4.705   6.152  17.518  0.00  0.00    +0.000 A 
ATOM     20  H   UNL     1       3.782   3.309  16.364  0.00  0.00    +0.000 HD
ENDBRANCH   7  11
BRANCH   8  21
ATOM     21  N   UNL     1       2.236   6.119  20.912  0.00  0.00    +0.000 N 
ATOM     22  H   UNL     1       2.466   6.403  21.861  0.00  0.00    +0.000 HD
BRANCH  21  23
ATOM     23  C   UNL     1       2.072   4.728  20.737  0.00  0.00    +0.000 A 
ATOM     24  C   UNL     1       3.174   3.853  20.753  0.00  0.00    +0.000 A 
ATOM     25  C   UNL     1       3.068   2.558  20.243  0.00  0.00    +0.000 A 
ATOM     26  C   UNL     1       1.845   2.118  19.760  0.00  0.00    +0.000 A 
ATOM     27  F   UNL     1       1.756   0.908  19.195  0.00  0.00    +0.000 F 
ATOM     28  C   UNL     1       0.718   2.930  19.823  0.00  0.00    +0.000 A 
ATOM     29  C   UNL     1       0.829   4.233  20.318  0.00  0.00    +0.000 A 
ENDBRANCH  21  23
ENDBRANCH   8  21
TORSDOF 3
ENDMDL
MODEL 2
REMARK VINA RESULT:      -8.5      1.100      1.195
REMARK  Name = 
REMARK  4 active torsions:
REMARK  status: ('A' for Active; 'I' for Inactive)
REMARK    1  A    between atoms: C_1  and  C_2
REMARK    2  A    between atoms: C_7  and  C_8
REMARK    3  A    between atoms: C_17  and  N_18
REMARK    4  A    between atoms: N_18  and  C_19
REMARK                            x       y       z     vdW  Elec       q    Type
REMARK                         _______ _______ _______ _____ _____    ______ ____
ROOT
ATOM      1  C   UNL     1      -0.482   9.548  22.434  0.00  0.00    +0.000 C 
ATOM      2  C   UNL     1       0.399   9.167  21.284  0.00  0.00    +0.000 A 
ATOM      3  C   UNL     1       0.471  10.018  20.103  0.00  0.00    +0.000 A 
ATOM      4  C   UNL     1       1.203   9.667  19.028  0.00  0.00    +0.000 A 
ATOM      5  C   UNL     1       1.895   8.422  19.005  0.00  0.00    +0.000 A 
ATOM      6  N   UNL     1       2.658   7.880  18.084  0.00  0.00    +0.000 NA
ATOM      7  C   UNL     1       3.021   6.652  18.586  0.00  0.00    +0.000 A 
ATOM      8  C   UNL     1       2.456   6.419  19.835  0.00  0.00    +0.000 A 
ATOM      9  N   UNL     1       1.794   7.608  20.135  0.00  0.00    +0.000 N 
ATOM     10  C   UNL     1       1.107   8.028  21.283  0.00  0.00    +0.000 A 
ENDROOT
BRANCH   7  11
ATOM     11  C   UNL     1       3.864   5.765  17.780  0.00  0.00    +0.000 A 
ATOM     12  C   UNL     1       3.468   4.938  16.751  0.00  0.00    +0.000 A 
ATOM     13  N   UNL     1       4.575   4.266  16.302  0.00  0.00    +0.000 N 
ATOM     14  C   UNL     1       5.683   4.628  17.033  0.00  0.00    +0.000 A 
ATOM     15  C   UNL     1       7.004   4.166  16.956  0.00  0.00    +0.000 A 
ATOM     16  C   UNL     1       7.942   4.732  17.825  0.00  0.00    +0.000 A 
ATOM     17  C   UNL     1       7.577   5.735  18.719  0.00  0.00    +0.000 A 
ATOM     18  C   UNL     1       6.252   6.181  18.784  0.00  0.00    +0.000 A 
ATOM     19  C   UNL     1       5.276   5.609  17.941  0.00  0.00    +0.000 A 
ATOM     20  H   UNL     1       4.583   3.593  15.548  0.00  0.00    +0.000 HD
ENDBRANCH   7  11
BRANCH   8  21
ATOM     21  N   UNL     1       2.545   5.349  20.685  0.00  0.00    +0.000 N 
ATOM     22  H   UNL     1       2.439   5.505  21.685  0.00  0.00    +0.000 HD
BRANCH  21  23
ATOM     23  C   UNL     1       2.798   4.008  20.322  0.00  0.00    +0.000 A 
ATOM     24  C   UNL     1       4.085   3.450  20.431  0.00  0.00    +0.000 A 
ATOM     25  C   UNL     1       4.413   2.270  19.761  0.00  0.00    +0.000 A 
ATOM     26  C   UNL     1       3.439   1.619  19.020  0.00  0.00    +0.000 A 
ATOM     27  F   UNL     1       3.768   0.532  18.310  0.00  0.00    +0.000 F 
ATOM     28  C   UNL     1       2.134   2.097  18.977  0.00  0.00    +0.000 A 
ATOM     29  C   UNL     1       1.811   3.289  19.633  0.00  0.00    +0.000 A 
ENDBRANCH  21  23
ENDBRANCH   8  21
TORSDOF 3
ENDMDL
MODEL 3
REMARK VINA RESULT:      -8.4      1.370      1.619
REMARK  Name = 
REMARK  4 active torsions:
REMARK  status: ('A' for Active; 'I' for Inactive)
REMARK    1  A    between atoms: C_1  and  C_2
REMARK    2  A    between atoms: C_7  and  C_8
REMARK    3  A    between atoms: C_17  and  N_18
REMARK    4  A    between atoms: N_18  and  C_19
REMARK                            x       y       z     vdW  Elec       q    Type
REMARK                         _______ _______ _______ _____ _____    ______ ____
ROOT
ATOM      1  C   UNL     1      -0.680   9.770  21.396  0.00  0.00    +0.000 C 
ATOM      2  C   UNL     1       0.339   9.563  20.318  0.00  0.00    +0.000 A 
ATOM      3  C   UNL     1       0.399  10.474  19.182  0.00  0.00    +0.000 A 
ATOM      4  C   UNL     1       1.260  10.274  18.166  0.00  0.00    +0.000 A 
ATOM      5  C   UNL     1       2.111   9.132  18.159  0.00  0.00    +0.000 A 
ATOM      6  N   UNL     1       3.016   8.740  17.292  0.00  0.00    +0.000 NA
ATOM      7  C   UNL     1       3.494   7.545  17.778  0.00  0.00    +0.000 A 
ATOM      8  C   UNL     1       2.861   7.180  18.960  0.00  0.00    +0.000 A 
ATOM      9  N   UNL     1       2.022   8.257  19.243  0.00  0.00    +0.000 N 
ATOM     10  C   UNL     1       1.191   8.527  20.339  0.00  0.00    +0.000 A 
ENDROOT
BRANCH   7  11
ATOM     11  C   UNL     1       4.514   6.816  17.020  0.00  0.00    +0.000 A 
ATOM     12  C   UNL     1       4.567   6.624  15.656  0.00  0.00    +0.000 A 
ATOM     13  N   UNL     1       5.670   5.858  15.381  0.00  0.00    +0.000 N 
ATOM     14  C   UNL     1       6.328   5.533  16.546  0.00  0.00    +0.000 A 
ATOM     15  C   UNL     1       7.463   4.737  16.748  0.00  0.00    +0.000 A 
ATOM     16  C   UNL     1       7.929   4.589  18.058  0.00  0.00    +0.000 A 
ATOM     17  C   UNL     1       7.297   5.231  19.119  0.00  0.00    +0.000 A 
ATOM     18  C   UNL     1       6.162   6.019  18.899  0.00  0.00    +0.000 A 
ATOM     19  C   UNL     1       5.649   6.164  17.592  0.00  0.00    +0.000 A 
ATOM     20  H   UNL     1       5.962   5.563  14.460  0.00  0.00    +0.000 HD
ENDBRANCH   7  11
BRANCH   8  21
ATOM     21  N   UNL     1       3.018   6.089  19.774  0.00  0.00    +0.000 N 
ATOM     22  H   UNL     1       3.546   6.191  20.637  0.00  0.00    +0.000 HD
BRANCH  21  23
ATOM     23  C   UNL     1       2.531   4.786  19.532  0.00  0.00    +0.000 A 
ATOM     24  C   UNL     1       2.663   4.178  18.271  0.00  0.00    +0.000 A 
ATOM     25  C   UNL     1       1.894   3.064  17.929  0.00  0.00    +0.000 A 
ATOM     26  C   UNL     1       1.027   2.525  18.867  0.00  0.00    +0.000 A 
ATOM     27  F   UNL     1       0.228   1.508  18.519  0.00  0.00    +0.000 F 
ATOM     28  C   UNL     1       0.951   3.048  20.153  0.00  0.00    +0.000 A 
ATOM     29  C   UNL     1       1.708   4.175  20.489  0.00  0.00    +0.000 A 
ENDBRANCH  21  23
ENDBRANCH   8  21
TORSDOF 3
ENDMDL
MODEL 4
REMARK VINA RESULT:      -8.4      1.903      6.316
REMARK  Name = 
REMARK  4 active torsions:
REMARK  status: ('A' for Active; 'I' for Inactive)
REMARK    1  A    between atoms: C_1  and  C_2
REMARK    2  A    between atoms: C_7  and  C_8
REMARK    3  A    between atoms: C_17  and  N_18
REMARK    4  A    between atoms: N_18  and  C_19
REMARK                            x       y       z     vdW  Elec       q    Type
REMARK                         _______ _______ _______ _____ _____    ______ ____
ROOT
ATOM      1  C   UNL     1       6.654   3.013  12.098  0.00  0.00    +0.000 C 
ATOM      2  C   UNL     1       6.402   3.891  13.285  0.00  0.00    +0.000 A 
ATOM      3  C   UNL     1       7.385   4.892  13.677  0.00  0.00    +0.000 A 
ATOM      4  C   UNL     1       7.214   5.650  14.779  0.00  0.00    +0.000 A 
ATOM      5  C   UNL     1       6.078   5.457  15.615  0.00  0.00    +0.000 A 
ATOM      6  N   UNL     1       5.708   6.068  16.717  0.00  0.00    +0.000 NA
ATOM      7  C   UNL     1       4.552   5.437  17.115  0.00  0.00    +0.000 A 
ATOM      8  C   UNL     1       4.208   4.402  16.252  0.00  0.00    +0.000 A 
ATOM      9  N   UNL     1       5.159   4.475  15.237  0.00  0.00    +0.000 N 
ATOM     10  C   UNL     1       5.300   3.760  14.039  0.00  0.00    +0.000 A 
ENDROOT
BRANCH   7  11
ATOM     11  C   UNL     1       3.885   5.866  18.346  0.00  0.00    +0.000 A 
ATOM     12  C   UNL     1       3.943   5.264  19.585  0.00  0.00    +0.000 A 
ATOM     13  N   UNL     1       3.143   5.979  20.438  0.00  0.00    +0.000 N 
ATOM     14  C   UNL     1       2.552   7.028  19.773  0.00  0.00    +0.000 A 
ATOM     15  C   UNL     1       1.633   7.983  20.229  0.00  0.00    +0.000 A 
ATOM     16  C   UNL     1       1.205   8.959  19.324  0.00  0.00    +0.000 A 
ATOM     17  C   UNL     1       1.696   8.992  18.022  0.00  0.00    +0.000 A 
ATOM     18  C   UNL     1       2.611   8.029  17.582  0.00  0.00    +0.000 A 
ATOM     19  C   UNL     1       3.039   7.012  18.463  0.00  0.00    +0.000 A 
ATOM     20  H   UNL     1       2.997   5.768  21.416  0.00  0.00    +0.000 HD
ENDBRANCH   7  11
BRANCH   8  21
ATOM     21  N   UNL     1       3.156   3.525  16.264  0.00  0.00    +0.000 N 
ATOM     22  H   UNL     1       2.796   3.178  15.378  0.00  0.00    +0.000 HD
BRANCH  21  23
ATOM     23  C   UNL     1       2.475   3.047  17.405  0.00  0.00    +0.000 A 
ATOM     24  C   UNL     1       1.332   3.698  17.902  0.00  0.00    +0.000 A 
ATOM     25  C   UNL     1       0.872   3.450  19.196  0.00  0.00    +0.000 A 
ATOM     26  C   UNL     1       1.526   2.512  19.979  0.00  0.00    +0.000 A 
ATOM     27  F   UNL     1       1.140   2.329  21.248  0.00  0.00    +0.000 F 
ATOM     28  C   UNL     1       2.598   1.783  19.476  0.00  0.00    +0.000 A 
ATOM     29  C   UNL     1       3.070   2.046  18.186  0.00  0.00    +0.000 A 
ENDBRANCH  21  23
ENDBRANCH   8  21
TORSDOF 3
ENDMDL
MODEL 5
REMARK VINA RESULT:      -8.3      1.278      1.467
REMARK  Name = 
REMARK  4 active torsions:
REMARK  status: ('A' for Active; 'I' for Inactive)
REMARK    1  A    between atoms: C_1  and  C_2
REMARK    2  A    between atoms: C_7  and  C_8
REMARK    3  A    between atoms: C_17  and  N_18
REMARK    4  A    between atoms: N_18  and  C_19
REMARK                            x       y       z     vdW  Elec       q    Type
REMARK                         _______ _______ _______ _____ _____    ______ ____
ROOT
ATOM      1  C   UNL     1      -0.802  10.733  20.352  0.00  0.00    +0.000 C 
ATOM      2  C   UNL     1       0.360  10.067  19.682  0.00  0.00    +0.000 A 
ATOM      3  C   UNL     1       0.897  10.605  18.439  0.00  0.00    +0.000 A 
ATOM      4  C   UNL     1       1.898   9.989  17.781  0.00  0.00    +0.000 A 
ATOM      5  C   UNL     1       2.430   8.761  18.268  0.00  0.00    +0.000 A 
ATOM      6  N   UNL     1       3.391   7.996  17.804  0.00  0.00    +0.000 NA
ATOM      7  C   UNL     1       3.445   6.918  18.657  0.00  0.00    +0.000 A 
ATOM      8  C   UNL     1       2.486   7.007  19.660  0.00  0.00    +0.000 A 
ATOM      9  N   UNL     1       1.886   8.247  19.447  0.00  0.00    +0.000 N 
ATOM     10  C   UNL     1       0.911   8.946  20.173  0.00  0.00    +0.000 A 
ENDROOT
BRANCH   7  11
ATOM     11  C   UNL     1       4.409   5.846  18.401  0.00  0.00    +0.000 A 
ATOM     12  C   UNL     1       4.894   4.921  19.302  0.00  0.00    +0.000 A 
ATOM     13  N   UNL     1       5.798   4.127  18.645  0.00  0.00    +0.000 N 
ATOM     14  C   UNL     1       5.923   4.529  17.334  0.00  0.00    +0.000 A 
ATOM     15  C   UNL     1       6.757   4.044  16.318  0.00  0.00    +0.000 A 
ATOM     16  C   UNL     1       6.662   4.641  15.057  0.00  0.00    +0.000 A 
ATOM     17  C   UNL     1       5.752   5.668  14.819  0.00  0.00    +0.000 A 
ATOM     18  C   UNL     1       4.930   6.143  15.846  0.00  0.00    +0.000 A 
ATOM     19  C   UNL     1       5.023   5.581  17.138  0.00  0.00    +0.000 A 
ATOM     20  H   UNL     1       6.309   3.359  19.057  0.00  0.00    +0.000 HD
ENDBRANCH   7  11
BRANCH   8  21
ATOM     21  N   UNL     1       2.185   6.172  20.703  0.00  0.00    +0.000 N 
ATOM     22  H   UNL     1       2.262   6.526  21.654  0.00  0.00    +0.000 HD
BRANCH  21  23
ATOM     23  C   UNL     1       1.787   4.821  20.608  0.00  0.00    +0.000 A 
ATOM     24  C   UNL     1       2.206   3.866  21.552  0.00  0.00    +0.000 A 
ATOM     25  C   UNL     1       2.114   2.500  21.279  0.00  0.00    +0.000 A 
ATOM     26  C   UNL     1       1.555   2.085  20.079  0.00  0.00    +0.000 A 
ATOM     27  F   UNL     1       1.538   0.781  19.777  0.00  0.00    +0.000 F 
ATOM     28  C   UNL     1       1.045   3.007  19.172  0.00  0.00    +0.000 A 
ATOM     29  C   UNL     1       1.154   4.375  19.439  0.00  0.00    +0.000 A 
ENDBRANCH  21  23
ENDBRANCH   8  21
TORSDOF 3
ENDMDL
MODEL 6
REMARK VINA RESULT:      -8.3      1.953      4.590
REMARK  Name = 
REMARK  4 active torsions:
REMARK  status: ('A' for Active; 'I' for Inactive)
REMARK    1  A    between atoms: C_1  and  C_2
REMARK    2  A    between atoms: C_7  and  C_8
REMARK    3  A    between atoms: C_17  and  N_18
REMARK    4  A    between atoms: N_18  and  C_19
REMARK                            x       y       z     vdW  Elec       q    Type
REMARK                         _______ _______ _______ _____ _____    ______ ____
ROOT
ATOM      1  C   UNL     1       0.910  12.147  18.347  0.00  0.00    +0.000 C 
ATOM      2  C   UNL     1       1.132  10.770  18.893  0.00  0.00    +0.000 A 
ATOM      3  C   UNL     1       0.669  10.429  20.232  0.00  0.00    +0.000 A 
ATOM      4  C   UNL     1       0.914   9.219  20.773  0.00  0.00    +0.000 A 
ATOM      5  C   UNL     1       1.675   8.252  20.057  0.00  0.00    +0.000 A 
ATOM      6  N   UNL     1       2.029   7.029  20.377  0.00  0.00    +0.000 NA
ATOM      7  C   UNL     1       2.792   6.581  19.323  0.00  0.00    +0.000 A 
ATOM      8  C   UNL     1       2.928   7.553  18.338  0.00  0.00    +0.000 A 
ATOM      9  N   UNL     1       2.132   8.605  18.786  0.00  0.00    +0.000 N 
ATOM     10  C   UNL     1       1.790   9.830  18.196  0.00  0.00    +0.000 A 
ENDROOT
BRANCH   7  11
ATOM     11  C   UNL     1       3.376   5.239  19.376  0.00  0.00    +0.000 A 
ATOM     12  C   UNL     1       4.680   4.904  19.670  0.00  0.00    +0.000 A 
ATOM     13  N   UNL     1       4.796   3.541  19.572  0.00  0.00    +0.000 N 
ATOM     14  C   UNL     1       3.593   2.984  19.204  0.00  0.00    +0.000 A 
ATOM     15  C   UNL     1       3.259   1.648  18.943  0.00  0.00    +0.000 A 
ATOM     16  C   UNL     1       1.935   1.363  18.597  0.00  0.00    +0.000 A 
ATOM     17  C   UNL     1       0.978   2.373  18.538  0.00  0.00    +0.000 A 
ATOM     18  C   UNL     1       1.329   3.702  18.797  0.00  0.00    +0.000 A 
ATOM     19  C   UNL     1       2.665   4.026  19.120  0.00  0.00    +0.000 A 
ATOM     20  H   UNL     1       5.642   3.014  19.739  0.00  0.00    +0.000 HD
ENDBRANCH   7  11
BRANCH   8  21
ATOM     21  N   UNL     1       3.590   7.541  17.139  0.00  0.00    +0.000 N 
ATOM     22  H   UNL     1       3.210   8.077  16.362  0.00  0.00    +0.000 HD
BRANCH  21  23
ATOM     23  C   UNL     1       4.770   6.827  16.840  0.00  0.00    +0.000 A 
ATOM     24  C   UNL     1       4.727   5.581  16.187  0.00  0.00    +0.000 A 
ATOM     25  C   UNL     1       5.830   4.726  16.203  0.00  0.00    +0.000 A 
ATOM     26  C   UNL     1       6.997   5.136  16.830  0.00  0.00    +0.000 A 
ATOM     27  F   UNL     1       8.029   4.288  16.919  0.00  0.00    +0.000 F 
ATOM     28  C   UNL     1       7.097   6.401  17.397  0.00  0.00    +0.000 A 
ATOM     29  C   UNL     1       5.985   7.250  17.396  0.00  0.00    +0.000 A 
ENDBRANCH  21  23
ENDBRANCH   8  21
TORSDOF 3
ENDMDL
MODEL 7
REMARK VINA RESULT:      -8.2      2.831      5.781
REMARK  Name = 
REMARK  4 active torsions:
REMARK  status: ('A' for Active; 'I' for Inactive)
REMARK    1  A    between atoms: C_1  and  C_2
REMARK    2  A    between atoms: C_7  and  C_8
REMARK    3  A    between atoms: C_17  and  N_18
REMARK    4  A    between atoms: N_18  and  C_19
REMARK                            x       y       z     vdW  Elec       q    Type
REMARK                         _______ _______ _______ _____ _____    ______ ____
ROOT
ATOM      1  C   UNL     1       0.697   3.259  20.817  0.00  0.00    +0.000 C 
ATOM      2  C   UNL     1       1.707   3.147  19.716  0.00  0.00    +0.000 A 
ATOM      3  C   UNL     1       2.100   1.837  19.213  0.00  0.00    +0.000 A 
ATOM      4  C   UNL     1       3.053   1.704  18.270  0.00  0.00    +0.000 A 
ATOM      5  C   UNL     1       3.735   2.850  17.769  0.00  0.00    +0.000 A 
ATOM      6  N   UNL     1       4.679   2.961  16.864  0.00  0.00    +0.000 NA
ATOM      7  C   UNL     1       4.986   4.302  16.818  0.00  0.00    +0.000 A 
ATOM      8  C   UNL     1       4.230   5.034  17.726  0.00  0.00    +0.000 A 
ATOM      9  N   UNL     1       3.362   4.095  18.282  0.00  0.00    +0.000 N 
ATOM     10  C   UNL     1       2.304   4.229  19.192  0.00  0.00    +0.000 A 
ENDROOT
BRANCH   7  11
ATOM     11  C   UNL     1       6.039   4.768  15.914  0.00  0.00    +0.000 A 
ATOM     12  C   UNL     1       7.055   5.656  16.197  0.00  0.00    +0.000 A 
ATOM     13  N   UNL     1       7.790   5.833  15.053  0.00  0.00    +0.000 N 
ATOM     14  C   UNL     1       7.260   5.088  14.024  0.00  0.00    +0.000 A 
ATOM     15  C   UNL     1       7.651   4.997  12.682  0.00  0.00    +0.000 A 
ATOM     16  C   UNL     1       6.930   4.136  11.850  0.00  0.00    +0.000 A 
ATOM     17  C   UNL     1       5.873   3.378  12.349  0.00  0.00    +0.000 A 
ATOM     18  C   UNL     1       5.494   3.484  13.691  0.00  0.00    +0.000 A 
ATOM     19  C   UNL     1       6.184   4.368  14.549  0.00  0.00    +0.000 A 
ATOM     20  H   UNL     1       8.601   6.429  14.967  0.00  0.00    +0.000 HD
ENDBRANCH   7  11
BRANCH   8  21
ATOM     21  N   UNL     1       4.206   6.373  18.015  0.00  0.00    +0.000 N 
ATOM     22  H   UNL     1       5.082   6.890  18.021  0.00  0.00    +0.000 HD
BRANCH  21  23
ATOM     23  C   UNL     1       3.066   7.140  18.340  0.00  0.00    +0.000 A 
ATOM     24  C   UNL     1       2.565   8.116  17.459  0.00  0.00    +0.000 A 
ATOM     25  C   UNL     1       1.679   9.097  17.906  0.00  0.00    +0.000 A 
ATOM     26  C   UNL     1       1.252   9.075  19.225  0.00  0.00    +0.000 A 
ATOM     27  F   UNL     1       0.467  10.059  19.680  0.00  0.00    +0.000 F 
ATOM     28  C   UNL     1       1.656   8.063  20.089  0.00  0.00    +0.000 A 
ATOM     29  C   UNL     1       2.558   7.091  19.645  0.00  0.00    +0.000 A 
ENDBRANCH  21  23
ENDBRANCH   8  21
TORSDOF 3
ENDMDL
MODEL 8
REMARK VINA RESULT:      -8.0      1.253      1.459
REMARK  Name = 
REMARK  4 active torsions:
REMARK  status: ('A' for Active; 'I' for Inactive)
REMARK    1  A    between atoms: C_1  and  C_2
REMARK    2  A    between atoms: C_7  and  C_8
REMARK    3  A    between atoms: C_17  and  N_18
REMARK    4  A    between atoms: N_18  and  C_19
REMARK                            x       y       z     vdW  Elec       q    Type
REMARK                         _______ _______ _______ _____ _____    ______ ____
ROOT
ATOM      1  C   UNL     1      -0.697   9.623  21.947  0.00  0.00    +0.000 C 
ATOM      2  C   UNL     1       0.263   9.505  20.803  0.00  0.00    +0.000 A 
ATOM      3  C   UNL     1       0.247  10.492  19.730  0.00  0.00    +0.000 A 
ATOM      4  C   UNL     1       1.053  10.374  18.657  0.00  0.00    +0.000 A 
ATOM      5  C   UNL     1       1.916   9.250  18.525  0.00  0.00    +0.000 A 
ATOM      6  N   UNL     1       2.775   8.931  17.585  0.00  0.00    +0.000 NA
ATOM      7  C   UNL     1       3.295   7.714  17.961  0.00  0.00    +0.000 A 
ATOM      8  C   UNL     1       2.733   7.260  19.149  0.00  0.00    +0.000 A 
ATOM      9  N   UNL     1       1.899   8.302  19.550  0.00  0.00    +0.000 N 
ATOM     10  C   UNL     1       1.127   8.483  20.706  0.00  0.00    +0.000 A 
ENDROOT
BRANCH   7  11
ATOM     11  C   UNL     1       4.279   7.054  17.100  0.00  0.00    +0.000 A 
ATOM     12  C   UNL     1       4.308   7.034  15.722  0.00  0.00    +0.000 A 
ATOM     13  N   UNL     1       5.381   6.274  15.334  0.00  0.00    +0.000 N 
ATOM     14  C   UNL     1       6.043   5.784  16.437  0.00  0.00    +0.000 A 
ATOM     15  C   UNL     1       7.153   4.933  16.518  0.00  0.00    +0.000 A 
ATOM     16  C   UNL     1       7.631   4.607  17.791  0.00  0.00    +0.000 A 
ATOM     17  C   UNL     1       7.035   5.130  18.935  0.00  0.00    +0.000 A 
ATOM     18  C   UNL     1       5.924   5.975  18.835  0.00  0.00    +0.000 A 
ATOM     19  C   UNL     1       5.400   6.299  17.566  0.00  0.00    +0.000 A 
ATOM     20  H   UNL     1       5.650   6.089  14.378  0.00  0.00    +0.000 HD
ENDBRANCH   7  11
BRANCH   8  21
ATOM     21  N   UNL     1       2.949   6.120  19.876  0.00  0.00    +0.000 N 
ATOM     22  H   UNL     1       3.678   6.119  20.586  0.00  0.00    +0.000 HD
BRANCH  21  23
ATOM     23  C   UNL     1       2.266   4.892  19.733  0.00  0.00    +0.000 A 
ATOM     24  C   UNL     1       1.882   4.133  20.853  0.00  0.00    +0.000 A 
ATOM     25  C   UNL     1       1.532   2.788  20.721  0.00  0.00    +0.000 A 
ATOM     26  C   UNL     1       1.517   2.213  19.460  0.00  0.00    +0.000 A 
ATOM     27  F   UNL     1       1.261   0.904  19.335  0.00  0.00    +0.000 F 
ATOM     28  C   UNL     1       1.796   2.968  18.326  0.00  0.00    +0.000 A 
ATOM     29  C   UNL     1       2.165   4.310  18.462  0.00  0.00    +0.000 A 
ENDBRANCH  21  23
ENDBRANCH   8  21
TORSDOF 3
ENDMDL
MODEL 9
REMARK VINA RESULT:      -8.0      2.021      6.543
REMARK  Name = 
REMARK  4 active torsions:
REMARK  status: ('A' for Active; 'I' for Inactive)
REMARK    1  A    between atoms: C_1  and  C_2
REMARK    2  A    between atoms: C_7  and  C_8
REMARK    3  A    between atoms: C_17  and  N_18
REMARK    4  A    between atoms: N_18  and  C_19
REMARK                            x       y       z     vdW  Elec       q    Type
REMARK                         _______ _______ _______ _____ _____    ______ ____
ROOT
ATOM      1  C   UNL     1       4.950   1.235  20.352  0.00  0.00    +0.000 C 
ATOM      2  C   UNL     1       4.041   2.423  20.274  0.00  0.00    +0.000 A 
ATOM      3  C   UNL     1       2.629   2.289  20.609  0.00  0.00    +0.000 A 
ATOM      4  C   UNL     1       1.777   3.324  20.484  0.00  0.00    +0.000 A 
ATOM      5  C   UNL     1       2.232   4.574  19.977  0.00  0.00    +0.000 A 
ATOM      6  N   UNL     1       1.595   5.704  19.775  0.00  0.00    +0.000 NA
ATOM      7  C   UNL     1       2.526   6.558  19.230  0.00  0.00    +0.000 A 
ATOM      8  C   UNL     1       3.761   5.940  19.075  0.00  0.00    +0.000 A 
ATOM      9  N   UNL     1       3.583   4.677  19.638  0.00  0.00    +0.000 N 
ATOM     10  C   UNL     1       4.479   3.623  19.862  0.00  0.00    +0.000 A 
ENDROOT
BRANCH   7  11
ATOM     11  C   UNL     1       2.125   7.916  18.855  0.00  0.00    +0.000 A 
ATOM     12  C   UNL     1       2.324   8.545  17.644  0.00  0.00    +0.000 A 
ATOM     13  N   UNL     1       1.821   9.816  17.743  0.00  0.00    +0.000 N 
ATOM     14  C   UNL     1       1.313  10.033  19.004  0.00  0.00    +0.000 A 
ATOM     15  C   UNL     1       0.748  11.187  19.562  0.00  0.00    +0.000 A 
ATOM     16  C   UNL     1       0.293  11.116  20.882  0.00  0.00    +0.000 A 
ATOM     17  C   UNL     1       0.380   9.929  21.606  0.00  0.00    +0.000 A 
ATOM     18  C   UNL     1       0.951   8.787  21.034  0.00  0.00    +0.000 A 
ATOM     19  C   UNL     1       1.446   8.836  19.713  0.00  0.00    +0.000 A 
ATOM     20  H   UNL     1       1.826  10.505  17.004  0.00  0.00    +0.000 HD
ENDBRANCH   7  11
BRANCH   8  21
ATOM     21  N   UNL     1       4.952   6.404  18.581  0.00  0.00    +0.000 N 
ATOM     22  H   UNL     1       5.446   7.131  19.091  0.00  0.00    +0.000 HD
BRANCH  21  23
ATOM     23  C   UNL     1       5.583   5.988  17.388  0.00  0.00    +0.000 A 
ATOM     24  C   UNL     1       4.990   6.205  16.131  0.00  0.00    +0.000 A 
ATOM     25  C   UNL     1       5.423   5.504  15.004  0.00  0.00    +0.000 A 
ATOM     26  C   UNL     1       6.485   4.621  15.122  0.00  0.00    +0.000 A 
ATOM     27  F   UNL     1       6.852   3.886  14.065  0.00  0.00    +0.000 F 
ATOM     28  C   UNL     1       7.152   4.463  16.332  0.00  0.00    +0.000 A 
ATOM     29  C   UNL     1       6.706   5.151  17.465  0.00  0.00    +0.000 A 
ENDBRANCH  21  23
ENDBRANCH   8  21
TORSDOF 3
ENDMDL
