MODEL 1
REMARK VINA RESULT:      -7.6      0.000      0.000
REMARK  Name = 
REMARK  5 active torsions:
REMARK  status: ('A' for Active; 'I' for Inactive)
REMARK    1  A    between atoms: C_1  and  N_2
REMARK    2  A    between atoms: C_4  and  C_5
REMARK    3  A    between atoms: C_7  and  N_8
REMARK    4  A    between atoms: C_11  and  C_12
REMARK    5  A    between atoms: C_12  and  O_13
REMARK                            x       y       z     vdW  Elec       q    Type
REMARK                         _______ _______ _______ _____ _____    ______ ____
ROOT
ATOM      1  C   UNL     1       5.180   4.441  19.460  0.00  0.00    +0.000 C 
ATOM      2  C   UNL     1       3.780   5.014  19.657  0.00  0.00    +0.000 C 
ATOM      3  C   UNL     1       2.873   3.908  19.167  0.00  0.00    +0.000 C 
ATOM      4  C   UNL     1       3.643   2.655  19.571  0.00  0.00    +0.000 C 
ATOM      5  O   UNL     1       5.041   3.017  19.687  0.00  0.00    +0.000 OA
ENDROOT
BRANCH   1   9
ATOM      6  C   UNL     1       5.072   4.456  14.484  0.00  0.00    +0.000 C 
ATOM      7  N   UNL     1       5.812   4.670  15.716  0.00  0.00    +0.000 N 
ATOM      8  C   UNL     1       5.196   4.465  16.930  0.00  0.00    +0.000 A 
ATOM      9  C   UNL     1       5.808   4.666  18.105  0.00  0.00    +0.000 A 
ATOM     10  C   UNL     1       7.237   5.067  18.062  0.00  0.00    +0.000 A 
ATOM     11  O   UNL     1       7.891   5.235  19.085  0.00  0.00    +0.000 OA
ATOM     12  N   UNL     1       7.778   5.243  16.821  0.00  0.00    +0.000 N 
ATOM     13  C   UNL     1       7.137   5.065  15.624  0.00  0.00    +0.000 A 
ATOM     14  O   UNL     1       7.729   5.251  14.564  0.00  0.00    +0.000 OA
ATOM     15  H   UNL     1       8.748   5.515  16.772  0.00  0.00    +0.000 HD
ENDBRANCH   1   9
BRANCH   3  16
ATOM     16  N   UNL     1       1.576   3.955  19.839  0.00  0.00    +0.000 NA
ATOM     17  N   UNL     1       1.476   3.312  20.898  0.00  0.00    +0.000 NA
ATOM     18  N   UNL     1       1.400   2.727  21.872  0.00  0.00    +0.000 NA
ENDBRANCH   3  16
BRANCH   4  19
ATOM     19  C   UNL     1       3.492   1.537  18.535  0.00  0.00    +0.000 C 
BRANCH  19  20
ATOM     20  O   UNL     1       2.169   1.516  18.005  0.00  0.00    +0.000 OA
ATOM     21  H   UNL     1       1.977   2.426  17.711  0.00  0.00    +0.000 HD
ENDBRANCH  19  20
ENDBRANCH   4  19
TORSDOF 4
ENDMDL
MODEL 2
REMARK VINA RESULT:      -7.6      2.580      5.900
REMARK  Name = 
REMARK  5 active torsions:
REMARK  status: ('A' for Active; 'I' for Inactive)
REMARK    1  A    between atoms: C_1  and  N_2
REMARK    2  A    between atoms: C_4  and  C_5
REMARK    3  A    between atoms: C_7  and  N_8
REMARK    4  A    between atoms: C_11  and  C_12
REMARK    5  A    between atoms: C_12  and  O_13
REMARK                            x       y       z     vdW  Elec       q    Type
REMARK                         _______ _______ _______ _____ _____    ______ ____
ROOT
ATOM      1  C   UNL     1       4.505   4.004  18.342  0.00  0.00    +0.000 C 
ATOM      2  C   UNL     1       4.641   3.781  16.839  0.00  0.00    +0.000 C 
ATOM      3  C   UNL     1       5.831   4.632  16.461  0.00  0.00    +0.000 C 
ATOM      4  C   UNL     1       6.715   4.522  17.699  0.00  0.00    +0.000 C 
ATOM      5  O   UNL     1       5.860   4.190  18.820  0.00  0.00    +0.000 OA
ENDROOT
BRANCH   1   9
ATOM      6  C   UNL     1       2.624   8.564  17.670  0.00  0.00    +0.000 C 
ATOM      7  N   UNL     1       2.754   7.378  18.501  0.00  0.00    +0.000 N 
ATOM      8  C   UNL     1       3.520   6.319  18.068  0.00  0.00    +0.000 A 
ATOM      9  C   UNL     1       3.666   5.186  18.768  0.00  0.00    +0.000 A 
ATOM     10  C   UNL     1       3.009   5.125  20.098  0.00  0.00    +0.000 A 
ATOM     11  O   UNL     1       3.119   4.146  20.827  0.00  0.00    +0.000 OA
ATOM     12  N   UNL     1       2.274   6.217  20.460  0.00  0.00    +0.000 N 
ATOM     13  C   UNL     1       2.105   7.360  19.725  0.00  0.00    +0.000 A 
ATOM     14  O   UNL     1       1.419   8.285  20.155  0.00  0.00    +0.000 OA
ATOM     15  H   UNL     1       1.821   6.194  21.361  0.00  0.00    +0.000 HD
ENDBRANCH   1   9
BRANCH   3  16
ATOM     16  N   UNL     1       6.515   4.089  15.289  0.00  0.00    +0.000 NA
ATOM     17  N   UNL     1       7.259   4.869  14.671  0.00  0.00    +0.000 NA
ATOM     18  N   UNL     1       7.945   5.591  14.118  0.00  0.00    +0.000 NA
ENDBRANCH   3  16
BRANCH   4  19
ATOM     19  C   UNL     1       7.449   5.834  17.991  0.00  0.00    +0.000 C 
BRANCH  19  20
ATOM     20  O   UNL     1       7.552   6.628  16.812  0.00  0.00    +0.000 OA
ATOM     21  H   UNL     1       7.313   7.537  17.070  0.00  0.00    +0.000 HD
ENDBRANCH  19  20
ENDBRANCH   4  19
TORSDOF 4
ENDMDL
MODEL 3
REMARK VINA RESULT:      -7.5      2.479      5.876
REMARK  Name = 
REMARK  5 active torsions:
REMARK  status: ('A' for Active; 'I' for Inactive)
REMARK    1  A    between atoms: C_1  and  N_2
REMARK    2  A    between atoms: C_4  and  C_5
REMARK    3  A    between atoms: C_7  and  N_8
REMARK    4  A    between atoms: C_11  and  C_12
REMARK    5  A    between atoms: C_12  and  O_13
REMARK                            x       y       z     vdW  Elec       q    Type
REMARK                         _______ _______ _______ _____ _____    ______ ____
ROOT
ATOM      1  C   UNL     1       4.873   4.114  18.233  0.00  0.00    +0.000 C 
ATOM      2  C   UNL     1       5.444   4.221  16.822  0.00  0.00    +0.000 C 
ATOM      3  C   UNL     1       6.690   5.055  17.006  0.00  0.00    +0.000 C 
ATOM      4  C   UNL     1       7.174   4.615  18.384  0.00  0.00    +0.000 C 
ATOM      5  O   UNL     1       6.029   4.100  19.107  0.00  0.00    +0.000 OA
ENDROOT
BRANCH   1   9
ATOM      6  C   UNL     1       2.765   8.587  17.660  0.00  0.00    +0.000 C 
ATOM      7  N   UNL     1       2.920   7.372  18.442  0.00  0.00    +0.000 N 
ATOM      8  C   UNL     1       3.769   6.380  18.007  0.00  0.00    +0.000 A 
ATOM      9  C   UNL     1       3.944   5.225  18.663  0.00  0.00    +0.000 A 
ATOM     10  C   UNL     1       3.221   5.064  19.949  0.00  0.00    +0.000 A 
ATOM     11  O   UNL     1       3.349   4.059  20.639  0.00  0.00    +0.000 OA
ATOM     12  N   UNL     1       2.404   6.094  20.317  0.00  0.00    +0.000 N 
ATOM     13  C   UNL     1       2.208   7.259  19.626  0.00  0.00    +0.000 A 
ATOM     14  O   UNL     1       1.447   8.122  20.057  0.00  0.00    +0.000 OA
ATOM     15  H   UNL     1       1.906   6.002  21.189  0.00  0.00    +0.000 HD
ENDBRANCH   1   9
BRANCH   3  16
ATOM     16  N   UNL     1       7.689   4.741  15.985  0.00  0.00    +0.000 NA
ATOM     17  N   UNL     1       7.427   5.100  14.825  0.00  0.00    +0.000 NA
ATOM     18  N   UNL     1       7.180   5.442  13.767  0.00  0.00    +0.000 NA
ENDBRANCH   3  16
BRANCH   4  19
ATOM     19  C   UNL     1       7.788   5.779  19.169  0.00  0.00    +0.000 C 
BRANCH  19  20
ATOM     20  O   UNL     1       7.940   5.436  20.543  0.00  0.00    +0.000 OA
ATOM     21  H   UNL     1       8.900   5.407  20.715  0.00  0.00    +0.000 HD
ENDBRANCH  19  20
ENDBRANCH   4  19
TORSDOF 4
ENDMDL
MODEL 4
REMARK VINA RESULT:      -7.3      2.151      5.989
REMARK  Name = 
REMARK  5 active torsions:
REMARK  status: ('A' for Active; 'I' for Inactive)
REMARK    1  A    between atoms: C_1  and  N_2
REMARK    2  A    between atoms: C_4  and  C_5
REMARK    3  A    between atoms: C_7  and  N_8
REMARK    4  A    between atoms: C_11  and  C_12
REMARK    5  A    between atoms: C_12  and  O_13
REMARK                            x       y       z     vdW  Elec       q    Type
REMARK                         _______ _______ _______ _____ _____    ______ ____
ROOT
ATOM      1  C   UNL     1       4.398   4.608  16.746  0.00  0.00    +0.000 C 
ATOM      2  C   UNL     1       4.635   6.115  16.724  0.00  0.00    +0.000 C 
ATOM      3  C   UNL     1       6.042   6.260  17.256  0.00  0.00    +0.000 C 
ATOM      4  C   UNL     1       6.723   5.006  16.715  0.00  0.00    +0.000 C 
ATOM      5  O   UNL     1       5.693   4.019  16.470  0.00  0.00    +0.000 OA
ENDROOT
BRANCH   1   9
ATOM      6  C   UNL     1       4.765   1.757  20.810  0.00  0.00    +0.000 C 
ATOM      7  N   UNL     1       3.981   2.667  19.991  0.00  0.00    +0.000 N 
ATOM      8  C   UNL     1       4.515   3.174  18.828  0.00  0.00    +0.000 A 
ATOM      9  C   UNL     1       3.861   4.035  18.036  0.00  0.00    +0.000 A 
ATOM     10  C   UNL     1       2.473   4.389  18.426  0.00  0.00    +0.000 A 
ATOM     11  O   UNL     1       1.782   5.137  17.743  0.00  0.00    +0.000 OA
ATOM     12  N   UNL     1       2.012   3.839  19.587  0.00  0.00    +0.000 N 
ATOM     13  C   UNL     1       2.698   2.984  20.407  0.00  0.00    +0.000 A 
ATOM     14  O   UNL     1       2.179   2.547  21.431  0.00  0.00    +0.000 OA
ATOM     15  H   UNL     1       1.070   4.068  19.867  0.00  0.00    +0.000 HD
ENDBRANCH   1   9
BRANCH   3  16
ATOM     16  N   UNL     1       6.683   7.463  16.727  0.00  0.00    +0.000 NA
ATOM     17  N   UNL     1       7.533   8.003  17.455  0.00  0.00    +0.000 NA
ATOM     18  N   UNL     1       8.316   8.484  18.128  0.00  0.00    +0.000 NA
ENDBRANCH   3  16
BRANCH   4  19
ATOM     19  C   UNL     1       7.742   4.441  17.709  0.00  0.00    +0.000 C 
BRANCH  19  20
ATOM     20  O   UNL     1       7.871   5.297  18.841  0.00  0.00    +0.000 OA
ATOM     21  H   UNL     1       8.393   4.803  19.502  0.00  0.00    +0.000 HD
ENDBRANCH  19  20
ENDBRANCH   4  19
TORSDOF 4
ENDMDL
MODEL 5
REMARK VINA RESULT:      -7.3      2.016      5.995
REMARK  Name = 
REMARK  5 active torsions:
REMARK  status: ('A' for Active; 'I' for Inactive)
REMARK    1  A    between atoms: C_1  and  N_2
REMARK    2  A    between atoms: C_4  and  C_5
REMARK    3  A    between atoms: C_7  and  N_8
REMARK    4  A    between atoms: C_11  and  C_12
REMARK    5  A    between atoms: C_12  and  O_13
REMARK                            x       y       z     vdW  Elec       q    Type
REMARK                         _______ _______ _______ _____ _____    ______ ____
ROOT
ATOM      1  C   UNL     1       5.375   4.010  17.885  0.00  0.00    +0.000 C 
ATOM      2  C   UNL     1       5.727   4.677  16.559  0.00  0.00    +0.000 C 
ATOM      3  C   UNL     1       6.723   5.743  16.954  0.00  0.00    +0.000 C 
ATOM      4  C   UNL     1       7.464   5.083  18.112  0.00  0.00    +0.000 C 
ATOM      5  O   UNL     1       6.588   4.075  18.674  0.00  0.00    +0.000 OA
ENDROOT
BRANCH   1   9
ATOM      6  C   UNL     1       2.285   7.761  18.961  0.00  0.00    +0.000 C 
ATOM      7  N   UNL     1       2.751   6.411  19.234  0.00  0.00    +0.000 N 
ATOM      8  C   UNL     1       3.778   5.878  18.489  0.00  0.00    +0.000 A 
ATOM      9  C   UNL     1       4.244   4.634  18.667  0.00  0.00    +0.000 A 
ATOM     10  C   UNL     1       3.645   3.842  19.771  0.00  0.00    +0.000 A 
ATOM     11  O   UNL     1       4.033   2.709  20.036  0.00  0.00    +0.000 OA
ATOM     12  N   UNL     1       2.638   4.443  20.470  0.00  0.00    +0.000 N 
ATOM     13  C   UNL     1       2.147   5.704  20.261  0.00  0.00    +0.000 A 
ATOM     14  O   UNL     1       1.235   6.143  20.957  0.00  0.00    +0.000 OA
ATOM     15  H   UNL     1       2.220   3.919  21.224  0.00  0.00    +0.000 HD
ENDBRANCH   1   9
BRANCH   3  16
ATOM     16  N   UNL     1       7.642   6.037  15.855  0.00  0.00    +0.000 NA
ATOM     17  N   UNL     1       7.386   5.505  14.762  0.00  0.00    +0.000 NA
ATOM     18  N   UNL     1       7.137   5.018  13.763  0.00  0.00    +0.000 NA
ENDBRANCH   3  16
BRANCH   4  19
ATOM     19  C   UNL     1       7.838   6.096  19.198  0.00  0.00    +0.000 C 
BRANCH  19  20
ATOM     20  O   UNL     1       7.919   5.462  20.472  0.00  0.00    +0.000 OA
ATOM     21  H   UNL     1       7.026   5.123  20.668  0.00  0.00    +0.000 HD
ENDBRANCH  19  20
ENDBRANCH   4  19
TORSDOF 4
ENDMDL
MODEL 6
REMARK VINA RESULT:      -7.2      1.386      1.540
REMARK  Name = 
REMARK  5 active torsions:
REMARK  status: ('A' for Active; 'I' for Inactive)
REMARK    1  A    between atoms: C_1  and  N_2
REMARK    2  A    between atoms: C_4  and  C_5
REMARK    3  A    between atoms: C_7  and  N_8
REMARK    4  A    between atoms: C_11  and  C_12
REMARK    5  A    between atoms: C_12  and  O_13
REMARK                            x       y       z     vdW  Elec       q    Type
REMARK                         _______ _______ _______ _____ _____    ______ ____
ROOT
ATOM      1  C   UNL     1       5.497   4.352  18.484  0.00  0.00    +0.000 C 
ATOM      2  C   UNL     1       4.709   5.473  19.155  0.00  0.00    +0.000 C 
ATOM      3  C   UNL     1       3.294   5.246  18.675  0.00  0.00    +0.000 C 
ATOM      4  C   UNL     1       3.224   3.726  18.577  0.00  0.00    +0.000 C 
ATOM      5  O   UNL     1       4.577   3.235  18.412  0.00  0.00    +0.000 OA
ENDROOT
BRANCH   1   9
ATOM      6  C   UNL     1       5.655   3.621  13.563  0.00  0.00    +0.000 C 
ATOM      7  N   UNL     1       6.155   4.317  14.738  0.00  0.00    +0.000 N 
ATOM      8  C   UNL     1       5.634   4.027  15.978  0.00  0.00    +0.000 A 
ATOM      9  C   UNL     1       6.028   4.644  17.101  0.00  0.00    +0.000 A 
ATOM     10  C   UNL     1       7.124   5.637  16.975  0.00  0.00    +0.000 A 
ATOM     11  O   UNL     1       7.578   6.223  17.951  0.00  0.00    +0.000 OA
ATOM     12  N   UNL     1       7.594   5.863  15.713  0.00  0.00    +0.000 N 
ATOM     13  C   UNL     1       7.164   5.250  14.567  0.00  0.00    +0.000 A 
ATOM     14  O   UNL     1       7.664   5.533  13.481  0.00  0.00    +0.000 OA
ATOM     15  H   UNL     1       8.339   6.534  15.609  0.00  0.00    +0.000 HD
ENDBRANCH   1   9
BRANCH   3  16
ATOM     16  N   UNL     1       2.322   5.745  19.647  0.00  0.00    +0.000 NA
ATOM     17  N   UNL     1       1.598   4.896  20.193  0.00  0.00    +0.000 NA
ATOM     18  N   UNL     1       0.946   4.106  20.692  0.00  0.00    +0.000 NA
ENDBRANCH   3  16
BRANCH   4  19
ATOM     19  C   UNL     1       2.371   3.273  17.388  0.00  0.00    +0.000 C 
BRANCH  19  20
ATOM     20  O   UNL     1       1.075   3.864  17.443  0.00  0.00    +0.000 OA
ATOM     21  H   UNL     1       1.210   4.828  17.387  0.00  0.00    +0.000 HD
ENDBRANCH  19  20
ENDBRANCH   4  19
TORSDOF 4
ENDMDL
MODEL 7
REMARK VINA RESULT:      -7.2      2.044      6.060
REMARK  Name = 
REMARK  5 active torsions:
REMARK  status: ('A' for Active; 'I' for Inactive)
REMARK    1  A    between atoms: C_1  and  N_2
REMARK    2  A    between atoms: C_4  and  C_5
REMARK    3  A    between atoms: C_7  and  N_8
REMARK    4  A    between atoms: C_11  and  C_12
REMARK    5  A    between atoms: C_12  and  O_13
REMARK                            x       y       z     vdW  Elec       q    Type
REMARK                         _______ _______ _______ _____ _____    ______ ____
ROOT
ATOM      1  C   UNL     1       5.302   4.288  17.241  0.00  0.00    +0.000 C 
ATOM      2  C   UNL     1       5.640   5.558  16.465  0.00  0.00    +0.000 C 
ATOM      3  C   UNL     1       6.466   6.360  17.444  0.00  0.00    +0.000 C 
ATOM      4  C   UNL     1       7.219   5.272  18.203  0.00  0.00    +0.000 C 
ATOM      5  O   UNL     1       6.450   4.049  18.093  0.00  0.00    +0.000 OA
ENDROOT
BRANCH   1   9
ATOM      6  C   UNL     1       2.011   6.660  20.125  0.00  0.00    +0.000 C 
ATOM      7  N   UNL     1       2.461   5.428  19.499  0.00  0.00    +0.000 N 
ATOM      8  C   UNL     1       3.596   5.430  18.720  0.00  0.00    +0.000 A 
ATOM      9  C   UNL     1       4.057   4.338  18.094  0.00  0.00    +0.000 A 
ATOM     10  C   UNL     1       3.322   3.069  18.322  0.00  0.00    +0.000 A 
ATOM     11  O   UNL     1       3.691   2.012  17.824  0.00  0.00    +0.000 OA
ATOM     12  N   UNL     1       2.212   3.147  19.113  0.00  0.00    +0.000 N 
ATOM     13  C   UNL     1       1.730   4.272  19.725  0.00  0.00    +0.000 A 
ATOM     14  O   UNL     1       0.718   4.223  20.420  0.00  0.00    +0.000 OA
ATOM     15  H   UNL     1       1.700   2.293  19.280  0.00  0.00    +0.000 HD
ENDBRANCH   1   9
BRANCH   3  16
ATOM     16  N   UNL     1       7.401   7.241  16.746  0.00  0.00    +0.000 NA
ATOM     17  N   UNL     1       7.803   8.234  17.375  0.00  0.00    +0.000 NA
ATOM     18  N   UNL     1       8.171   9.135  17.966  0.00  0.00    +0.000 NA
ENDBRANCH   3  16
BRANCH   4  19
ATOM     19  C   UNL     1       7.396   5.629  19.681  0.00  0.00    +0.000 C 
BRANCH  19  20
ATOM     20  O   UNL     1       8.675   5.214  20.151  0.00  0.00    +0.000 OA
ATOM     21  H   UNL     1       9.334   5.657  19.583  0.00  0.00    +0.000 HD
ENDBRANCH  19  20
ENDBRANCH   4  19
TORSDOF 4
ENDMDL
MODEL 8
REMARK VINA RESULT:      -7.2      1.387      1.492
REMARK  Name = 
REMARK  5 active torsions:
REMARK  status: ('A' for Active; 'I' for Inactive)
REMARK    1  A    between atoms: C_1  and  N_2
REMARK    2  A    between atoms: C_4  and  C_5
REMARK    3  A    between atoms: C_7  and  N_8
REMARK    4  A    between atoms: C_11  and  C_12
REMARK    5  A    between atoms: C_12  and  O_13
REMARK                            x       y       z     vdW  Elec       q    Type
REMARK                         _______ _______ _______ _____ _____    ______ ____
ROOT
ATOM      1  C   UNL     1       4.690   5.782  18.604  0.00  0.00    +0.000 C 
ATOM      2  C   UNL     1       3.171   5.782  18.459  0.00  0.00    +0.000 C 
ATOM      3  C   UNL     1       2.808   4.317  18.544  0.00  0.00    +0.000 C 
ATOM      4  C   UNL     1       3.844   3.782  19.527  0.00  0.00    +0.000 C 
ATOM      5  O   UNL     1       4.985   4.675  19.491  0.00  0.00    +0.000 OA
ENDROOT
BRANCH   1   9
ATOM      6  C   UNL     1       5.342   4.000  14.002  0.00  0.00    +0.000 C 
ATOM      7  N   UNL     1       5.850   4.770  15.126  0.00  0.00    +0.000 N 
ATOM      8  C   UNL     1       5.089   4.904  16.265  0.00  0.00    +0.000 A 
ATOM      9  C   UNL     1       5.482   5.617  17.329  0.00  0.00    +0.000 A 
ATOM     10  C   UNL     1       6.834   6.227  17.270  0.00  0.00    +0.000 A 
ATOM     11  O   UNL     1       7.296   6.864  18.210  0.00  0.00    +0.000 OA
ATOM     12  N   UNL     1       7.531   6.043  16.111  0.00  0.00    +0.000 N 
ATOM     13  C   UNL     1       7.110   5.338  15.015  0.00  0.00    +0.000 A 
ATOM     14  O   UNL     1       7.826   5.236  14.023  0.00  0.00    +0.000 OA
ATOM     15  H   UNL     1       8.452   6.450  16.053  0.00  0.00    +0.000 HD
ENDBRANCH   1   9
BRANCH   3  16
ATOM     16  N   UNL     1       1.456   4.139  19.072  0.00  0.00    +0.000 NA
ATOM     17  N   UNL     1       0.885   3.075  18.783  0.00  0.00    +0.000 NA
ATOM     18  N   UNL     1       0.374   2.091  18.519  0.00  0.00    +0.000 NA
ENDBRANCH   3  16
BRANCH   4  19
ATOM     19  C   UNL     1       4.297   2.365  19.161  0.00  0.00    +0.000 C 
BRANCH  19  20
ATOM     20  O   UNL     1       3.365   1.752  18.274  0.00  0.00    +0.000 OA
ATOM     21  H   UNL     1       3.527   2.140  17.393  0.00  0.00    +0.000 HD
ENDBRANCH  19  20
ENDBRANCH   4  19
TORSDOF 4
ENDMDL
MODEL 9
REMARK VINA RESULT:      -7.2      1.372      1.495
REMARK  Name = 
REMARK  5 active torsions:
REMARK  status: ('A' for Active; 'I' for Inactive)
REMARK    1  A    between atoms: C_1  and  N_2
REMARK    2  A    between atoms: C_4  and  C_5
REMARK    3  A    between atoms: C_7  and  N_8
REMARK    4  A    between atoms: C_11  and  C_12
REMARK    5  A    between atoms: C_12  and  O_13
REMARK                            x       y       z     vdW  Elec       q    Type
REMARK                         _______ _______ _______ _____ _____    ______ ____
ROOT
ATOM      1  C   UNL     1       4.612   4.941  18.185  0.00  0.00    +0.000 C 
ATOM      2  C   UNL     1       3.115   5.156  17.985  0.00  0.00    +0.000 C 
ATOM      3  C   UNL     1       2.601   3.774  17.651  0.00  0.00    +0.000 C 
ATOM      4  C   UNL     1       3.507   2.879  18.490  0.00  0.00    +0.000 C 
ATOM      5  O   UNL     1       4.731   3.611  18.745  0.00  0.00    +0.000 OA
ENDROOT
BRANCH   1   9
ATOM      6  C   UNL     1       5.755   3.721  13.496  0.00  0.00    +0.000 C 
ATOM      7  N   UNL     1       6.072   4.465  14.704  0.00  0.00    +0.000 N 
ATOM      8  C   UNL     1       5.255   4.360  15.807  0.00  0.00    +0.000 A 
ATOM      9  C   UNL     1       5.470   5.034  16.946  0.00  0.00    +0.000 A 
ATOM     10  C   UNL     1       6.691   5.875  17.010  0.00  0.00    +0.000 A 
ATOM     11  O   UNL     1       6.993   6.497  18.023  0.00  0.00    +0.000 OA
ATOM     12  N   UNL     1       7.455   5.922  15.879  0.00  0.00    +0.000 N 
ATOM     13  C   UNL     1       7.211   5.254  14.709  0.00  0.00    +0.000 A 
ATOM     14  O   UNL     1       7.973   5.369  13.752  0.00  0.00    +0.000 OA
ATOM     15  H   UNL     1       8.289   6.488  15.905  0.00  0.00    +0.000 HD
ENDBRANCH   1   9
BRANCH   3  16
ATOM     16  N   UNL     1       1.205   3.619  18.056  0.00  0.00    +0.000 NA
ATOM     17  N   UNL     1       0.965   3.728  19.270  0.00  0.00    +0.000 NA
ATOM     18  N   UNL     1       0.756   3.839  20.384  0.00  0.00    +0.000 NA
ENDBRANCH   3  16
BRANCH   4  19
ATOM     19  C   UNL     1       3.839   1.570  17.768  0.00  0.00    +0.000 C 
BRANCH  19  20
ATOM     20  O   UNL     1       4.433   0.636  18.665  0.00  0.00    +0.000 OA
ATOM     21  H   UNL     1       4.519  -0.202  18.172  0.00  0.00    +0.000 HD
ENDBRANCH  19  20
ENDBRANCH   4  19
TORSDOF 4
ENDMDL
