MODEL 1
REMARK VINA RESULT:      -8.2      0.000      0.000
REMARK  Name = 
REMARK  11 active torsions:
REMARK  status: ('A' for Active; 'I' for Inactive)
REMARK    1  A    between atoms: C_1  and  O_2
REMARK    2  A    between atoms: O_2  and  C_3
REMARK    3  A    between atoms: C_6  and  N_7
REMARK    4  A    between atoms: N_7  and  S_8
REMARK    5  A    between atoms: S_8  and  C_11
REMARK    6  A    between atoms: C_14  and  O_15
REMARK    7  A    between atoms: C_16  and  C_17
REMARK    8  A    between atoms: C_17  and  O_19
REMARK    9  A    between atoms: O_19  and  C_20
REMARK   10  A    between atoms: C_20  and  C_21
REMARK   11  A    between atoms: N_23  and  C_24
REMARK                            x       y       z     vdW  Elec       q    Type
REMARK                         _______ _______ _______ _____ _____    ______ ____
ROOT
ATOM      1  C   UNL     1       3.244   4.467  19.233  0.00  0.00    +0.000 A 
ATOM      2  C   UNL     1       2.838   3.677  18.152  0.00  0.00    +0.000 A 
ATOM      3  C   UNL     1       3.732   3.402  17.120  0.00  0.00    +0.000 A 
ATOM      4  C   UNL     1       5.026   3.927  17.159  0.00  0.00    +0.000 A 
ATOM      5  C   UNL     1       5.437   4.741  18.224  0.00  0.00    +0.000 A 
ATOM      6  C   UNL     1       4.530   5.024  19.267  0.00  0.00    +0.000 A 
ENDROOT
BRANCH   1   7
ATOM      7  S   UNL     1       2.067   4.782  20.539  0.00  0.00    +0.000 S 
ATOM      8  O   UNL     1       2.340   3.846  21.607  0.00  0.00    +0.000 OA
ATOM      9  O   UNL     1       0.756   4.859  19.931  0.00  0.00    +0.000 OA
BRANCH   7  10
ATOM     10  N   UNL     1       2.427   6.336  21.079  0.00  0.00    +0.000 N 
ATOM     11  H   UNL     1       2.608   6.383  22.082  0.00  0.00    +0.000 HD
BRANCH  10  15
ATOM     12  C   UNL     1       0.717   9.674  19.142  0.00  0.00    +0.000 A 
ATOM     13  C   UNL     1       1.652   8.870  18.486  0.00  0.00    +0.000 A 
ATOM     14  C   UNL     1       2.212   7.763  19.126  0.00  0.00    +0.000 A 
ATOM     15  C   UNL     1       1.871   7.479  20.447  0.00  0.00    +0.000 A 
ATOM     16  C   UNL     1       0.967   8.298  21.125  0.00  0.00    +0.000 A 
ATOM     17  C   UNL     1       0.381   9.391  20.468  0.00  0.00    +0.000 A 
BRANCH  12  19
ATOM     18  C   UNL     1      -0.736  11.538  19.038  0.00  0.00    +0.000 C 
ATOM     19  O   UNL     1       0.237  10.717  18.402  0.00  0.00    +0.000 OA
ENDBRANCH  12  19
ENDBRANCH  10  15
ENDBRANCH   7  10
ENDBRANCH   1   7
BRANCH   4  20
ATOM     20  O   UNL     1       5.879   3.647  16.130  0.00  0.00    +0.000 OA
ATOM     21  H   UNL     1       6.798   3.734  16.430  0.00  0.00    +0.000 HD
ENDBRANCH   4  20
BRANCH   5  22
ATOM     22  C   UNL     1       6.855   5.185  18.322  0.00  0.00    +0.000 C 
ATOM     23  O   UNL     1       7.803   4.435  18.495  0.00  0.00    +0.000 OA
BRANCH  22  24
ATOM     24  O   UNL     1       6.930   6.541  18.315  0.00  0.00    +0.000 OA
BRANCH  24  25
ATOM     25  C   UNL     1       8.229   7.037  18.681  0.00  0.00    +0.000 C 
BRANCH  25  26
ATOM     26  C   UNL     1       8.308   8.504  18.254  0.00  0.00    +0.000 C 
ATOM     27  O   UNL     1       7.681   8.921  17.271  0.00  0.00    +0.000 OA
ATOM     28  N   UNL     1       9.102   9.332  19.026  0.00  0.00    +0.000 N 
ATOM     29  H   UNL     1       9.347   9.020  19.955  0.00  0.00    +0.000 HD
BRANCH  28  30
ATOM     30  C   UNL     1       9.084  10.774  18.764  0.00  0.00    +0.000 C 
ATOM     31  C   UNL     1       8.972  11.564  20.074  0.00  0.00    +0.000 C 
ATOM     32  C   UNL     1      10.296  11.619  20.833  0.00  0.00    +0.000 C 
ATOM     33  C   UNL     1      11.394  12.216  19.960  0.00  0.00    +0.000 C 
ATOM     34  C   UNL     1      11.577  11.416  18.675  0.00  0.00    +0.000 C 
ATOM     35  C   UNL     1      10.270  11.236  17.907  0.00  0.00    +0.000 C 
ENDBRANCH  28  30
ENDBRANCH  25  26
ENDBRANCH  24  25
ENDBRANCH  22  24
ENDBRANCH   5  22
TORSDOF 10
ENDMDL
MODEL 2
REMARK VINA RESULT:      -8.1      1.169      1.526
REMARK  Name = 
REMARK  11 active torsions:
REMARK  status: ('A' for Active; 'I' for Inactive)
REMARK    1  A    between atoms: C_1  and  O_2
REMARK    2  A    between atoms: O_2  and  C_3
REMARK    3  A    between atoms: C_6  and  N_7
REMARK    4  A    between atoms: N_7  and  S_8
REMARK    5  A    between atoms: S_8  and  C_11
REMARK    6  A    between atoms: C_14  and  O_15
REMARK    7  A    between atoms: C_16  and  C_17
REMARK    8  A    between atoms: C_17  and  O_19
REMARK    9  A    between atoms: O_19  and  C_20
REMARK   10  A    between atoms: C_20  and  C_21
REMARK   11  A    between atoms: N_23  and  C_24
REMARK                            x       y       z     vdW  Elec       q    Type
REMARK                         _______ _______ _______ _____ _____    ______ ____
ROOT
ATOM      1  C   UNL     1       4.078   4.622  18.137  0.00  0.00    +0.000 A 
ATOM      2  C   UNL     1       4.121   4.077  16.849  0.00  0.00    +0.000 A 
ATOM      3  C   UNL     1       5.306   4.115  16.118  0.00  0.00    +0.000 A 
ATOM      4  C   UNL     1       6.445   4.709  16.666  0.00  0.00    +0.000 A 
ATOM      5  C   UNL     1       6.409   5.282  17.946  0.00  0.00    +0.000 A 
ATOM      6  C   UNL     1       5.208   5.248  18.684  0.00  0.00    +0.000 A 
ENDROOT
BRANCH   1   7
ATOM      7  S   UNL     1       2.540   4.539  19.040  0.00  0.00    +0.000 S 
ATOM      8  O   UNL     1       2.574   3.341  19.849  0.00  0.00    +0.000 OA
ATOM      9  O   UNL     1       1.470   4.771  18.094  0.00  0.00    +0.000 OA
BRANCH   7  10
ATOM     10  N   UNL     1       2.565   5.879  20.060  0.00  0.00    +0.000 N 
ATOM     11  H   UNL     1       2.417   5.642  21.041  0.00  0.00    +0.000 HD
BRANCH  10  15
ATOM     12  C   UNL     1       1.344   9.709  18.774  0.00  0.00    +0.000 A 
ATOM     13  C   UNL     1       1.041   9.259  20.059  0.00  0.00    +0.000 A 
ATOM     14  C   UNL     1       1.451   7.994  20.486  0.00  0.00    +0.000 A 
ATOM     15  C   UNL     1       2.130   7.153  19.607  0.00  0.00    +0.000 A 
ATOM     16  C   UNL     1       2.405   7.577  18.308  0.00  0.00    +0.000 A 
ATOM     17  C   UNL     1       2.021   8.861  17.892  0.00  0.00    +0.000 A 
BRANCH  12  19
ATOM     18  C   UNL     1       1.138  11.959  19.477  0.00  0.00    +0.000 C 
ATOM     19  O   UNL     1       0.897  10.967  18.485  0.00  0.00    +0.000 OA
ENDBRANCH  12  19
ENDBRANCH  10  15
ENDBRANCH   7  10
ENDBRANCH   1   7
BRANCH   4  20
ATOM     20  O   UNL     1       7.592   4.739  15.925  0.00  0.00    +0.000 OA
ATOM     21  H   UNL     1       8.117   3.941  16.098  0.00  0.00    +0.000 HD
ENDBRANCH   4  20
BRANCH   5  22
ATOM     22  C   UNL     1       7.660   5.793  18.573  0.00  0.00    +0.000 C 
ATOM     23  O   UNL     1       8.253   5.236  19.483  0.00  0.00    +0.000 OA
BRANCH  22  24
ATOM     24  O   UNL     1       7.975   7.016  18.074  0.00  0.00    +0.000 OA
BRANCH  24  25
ATOM     25  C   UNL     1       8.645   7.859  19.027  0.00  0.00    +0.000 C 
BRANCH  25  26
ATOM     26  C   UNL     1       8.616   9.290  18.489  0.00  0.00    +0.000 C 
ATOM     27  O   UNL     1       7.844   9.617  17.578  0.00  0.00    +0.000 OA
ATOM     28  N   UNL     1       9.483  10.192  19.078  0.00  0.00    +0.000 N 
ATOM     29  H   UNL     1       9.866   9.956  19.983  0.00  0.00    +0.000 HD
BRANCH  28  30
ATOM     30  C   UNL     1       9.382  11.609  18.719  0.00  0.00    +0.000 C 
ATOM     31  C   UNL     1       9.307  12.486  19.976  0.00  0.00    +0.000 C 
ATOM     32  C   UNL     1      10.667  12.653  20.648  0.00  0.00    +0.000 C 
ATOM     33  C   UNL     1      11.684  13.233  19.672  0.00  0.00    +0.000 C 
ATOM     34  C   UNL     1      11.832  12.351  18.437  0.00  0.00    +0.000 C 
ATOM     35  C   UNL     1      10.494  12.059  17.763  0.00  0.00    +0.000 C 
ENDBRANCH  28  30
ENDBRANCH  25  26
ENDBRANCH  24  25
ENDBRANCH  22  24
ENDBRANCH   5  22
TORSDOF 10
ENDMDL
MODEL 3
REMARK VINA RESULT:      -8.0      1.625      2.271
REMARK  Name = 
REMARK  11 active torsions:
REMARK  status: ('A' for Active; 'I' for Inactive)
REMARK    1  A    between atoms: C_1  and  O_2
REMARK    2  A    between atoms: O_2  and  C_3
REMARK    3  A    between atoms: C_6  and  N_7
REMARK    4  A    between atoms: N_7  and  S_8
REMARK    5  A    between atoms: S_8  and  C_11
REMARK    6  A    between atoms: C_14  and  O_15
REMARK    7  A    between atoms: C_16  and  C_17
REMARK    8  A    between atoms: C_17  and  O_19
REMARK    9  A    between atoms: O_19  and  C_20
REMARK   10  A    between atoms: C_20  and  C_21
REMARK   11  A    between atoms: N_23  and  C_24
REMARK                            x       y       z     vdW  Elec       q    Type
REMARK                         _______ _______ _______ _____ _____    ______ ____
ROOT
ATOM      1  C   UNL     1       4.342   5.112  17.893  0.00  0.00    +0.000 A 
ATOM      2  C   UNL     1       4.344   4.543  16.615  0.00  0.00    +0.000 A 
ATOM      3  C   UNL     1       5.443   4.722  15.779  0.00  0.00    +0.000 A 
ATOM      4  C   UNL     1       6.534   5.480  16.212  0.00  0.00    +0.000 A 
ATOM      5  C   UNL     1       6.533   6.077  17.481  0.00  0.00    +0.000 A 
ATOM      6  C   UNL     1       5.418   5.900  18.326  0.00  0.00    +0.000 A 
ENDROOT
BRANCH   1   7
ATOM      7  S   UNL     1       2.915   4.846  18.935  0.00  0.00    +0.000 S 
ATOM      8  O   UNL     1       3.145   3.632  19.686  0.00  0.00    +0.000 OA
ATOM      9  O   UNL     1       1.739   4.999  18.105  0.00  0.00    +0.000 OA
BRANCH   7  10
ATOM     10  N   UNL     1       2.910   6.148  20.002  0.00  0.00    +0.000 N 
ATOM     11  H   UNL     1       2.999   5.869  20.979  0.00  0.00    +0.000 HD
BRANCH  10  15
ATOM     12  C   UNL     1       0.820   9.725  19.193  0.00  0.00    +0.000 A 
ATOM     13  C   UNL     1       0.686   9.084  20.426  0.00  0.00    +0.000 A 
ATOM     14  C   UNL     1       1.383   7.905  20.695  0.00  0.00    +0.000 A 
ATOM     15  C   UNL     1       2.186   7.334  19.709  0.00  0.00    +0.000 A 
ATOM     16  C   UNL     1       2.298   7.945  18.461  0.00  0.00    +0.000 A 
ATOM     17  C   UNL     1       1.623   9.148  18.204  0.00  0.00    +0.000 A 
BRANCH  12  19
ATOM     18  C   UNL     1      -1.101  10.776  18.297  0.00  0.00    +0.000 C 
ATOM     19  O   UNL     1       0.096  10.875  19.061  0.00  0.00    +0.000 OA
ENDBRANCH  12  19
ENDBRANCH  10  15
ENDBRANCH   7  10
ENDBRANCH   1   7
BRANCH   4  20
ATOM     20  O   UNL     1       7.595   5.644  15.368  0.00  0.00    +0.000 OA
ATOM     21  H   UNL     1       7.436   6.401  14.780  0.00  0.00    +0.000 HD
ENDBRANCH   4  20
BRANCH   5  22
ATOM     22  C   UNL     1       7.752   6.769  17.982  0.00  0.00    +0.000 C 
ATOM     23  O   UNL     1       8.329   6.487  19.020  0.00  0.00    +0.000 OA
BRANCH  22  24
ATOM     24  O   UNL     1       8.056   7.830  17.189  0.00  0.00    +0.000 OA
BRANCH  24  25
ATOM     25  C   UNL     1       7.555   9.077  17.697  0.00  0.00    +0.000 C 
BRANCH  25  26
ATOM     26  C   UNL     1       8.691   9.766  18.454  0.00  0.00    +0.000 C 
ATOM     27  O   UNL     1       9.196   9.251  19.460  0.00  0.00    +0.000 OA
ATOM     28  N   UNL     1       9.124  10.980  17.952  0.00  0.00    +0.000 N 
ATOM     29  H   UNL     1       8.890  11.206  16.996  0.00  0.00    +0.000 HD
BRANCH  28  30
ATOM     30  C   UNL     1      10.315  11.602  18.537  0.00  0.00    +0.000 C 
ATOM     31  C   UNL     1      11.265  12.099  17.439  0.00  0.00    +0.000 C 
ATOM     32  C   UNL     1      10.780  13.398  16.800  0.00  0.00    +0.000 C 
ATOM     33  C   UNL     1      10.594  14.483  17.854  0.00  0.00    +0.000 C 
ATOM     34  C   UNL     1       9.605  14.047  18.929  0.00  0.00    +0.000 C 
ATOM     35  C   UNL     1       9.973  12.702  19.551  0.00  0.00    +0.000 C 
ENDBRANCH  28  30
ENDBRANCH  25  26
ENDBRANCH  24  25
ENDBRANCH  22  24
ENDBRANCH   5  22
TORSDOF 10
ENDMDL
MODEL 4
REMARK VINA RESULT:      -8.0      3.130      7.968
REMARK  Name = 
REMARK  11 active torsions:
REMARK  status: ('A' for Active; 'I' for Inactive)
REMARK    1  A    between atoms: C_1  and  O_2
REMARK    2  A    between atoms: O_2  and  C_3
REMARK    3  A    between atoms: C_6  and  N_7
REMARK    4  A    between atoms: N_7  and  S_8
REMARK    5  A    between atoms: S_8  and  C_11
REMARK    6  A    between atoms: C_14  and  O_15
REMARK    7  A    between atoms: C_16  and  C_17
REMARK    8  A    between atoms: C_17  and  O_19
REMARK    9  A    between atoms: O_19  and  C_20
REMARK   10  A    between atoms: C_20  and  C_21
REMARK   11  A    between atoms: N_23  and  C_24
REMARK                            x       y       z     vdW  Elec       q    Type
REMARK                         _______ _______ _______ _____ _____    ______ ____
ROOT
ATOM      1  C   UNL     1       2.420   4.561  18.801  0.00  0.00    +0.000 A 
ATOM      2  C   UNL     1       2.244   4.432  20.183  0.00  0.00    +0.000 A 
ATOM      3  C   UNL     1       2.038   5.566  20.965  0.00  0.00    +0.000 A 
ATOM      4  C   UNL     1       2.023   6.830  20.371  0.00  0.00    +0.000 A 
ATOM      5  C   UNL     1       2.224   6.975  18.990  0.00  0.00    +0.000 A 
ATOM      6  C   UNL     1       2.437   5.827  18.199  0.00  0.00    +0.000 A 
ENDROOT
BRANCH   1   7
ATOM      7  S   UNL     1       2.669   3.078  17.838  0.00  0.00    +0.000 S 
ATOM      8  O   UNL     1       2.172   3.336  16.505  0.00  0.00    +0.000 OA
ATOM      9  O   UNL     1       2.169   1.966  18.618  0.00  0.00    +0.000 OA
BRANCH   7  10
ATOM     10  N   UNL     1       4.340   2.886  17.762  0.00  0.00    +0.000 N 
ATOM     11  H   UNL     1       4.686   2.129  18.352  0.00  0.00    +0.000 HD
BRANCH  10  15
ATOM     12  C   UNL     1       6.803   6.239  17.049  0.00  0.00    +0.000 A 
ATOM     13  C   UNL     1       6.101   5.634  16.004  0.00  0.00    +0.000 A 
ATOM     14  C   UNL     1       5.282   4.529  16.242  0.00  0.00    +0.000 A 
ATOM     15  C   UNL     1       5.196   3.994  17.526  0.00  0.00    +0.000 A 
ATOM     16  C   UNL     1       5.922   4.566  18.570  0.00  0.00    +0.000 A 
ATOM     17  C   UNL     1       6.719   5.697  18.334  0.00  0.00    +0.000 A 
BRANCH  12  19
ATOM     18  C   UNL     1       7.864   8.243  17.722  0.00  0.00    +0.000 C 
ATOM     19  O   UNL     1       7.558   7.317  16.685  0.00  0.00    +0.000 OA
ENDBRANCH  12  19
ENDBRANCH  10  15
ENDBRANCH   7  10
ENDBRANCH   1   7
BRANCH   4  20
ATOM     20  O   UNL     1       1.826   7.925  21.163  0.00  0.00    +0.000 OA
ATOM     21  H   UNL     1       0.875   8.081  21.281  0.00  0.00    +0.000 HD
ENDBRANCH   4  20
BRANCH   5  22
ATOM     22  C   UNL     1       2.074   8.311  18.349  0.00  0.00    +0.000 C 
ATOM     23  O   UNL     1       2.574   8.624  17.280  0.00  0.00    +0.000 OA
BRANCH  22  24
ATOM     24  O   UNL     1       1.410   9.162  19.174  0.00  0.00    +0.000 OA
BRANCH  24  25
ATOM     25  C   UNL     1       0.534  10.060  18.473  0.00  0.00    +0.000 C 
BRANCH  25  26
ATOM     26  C   UNL     1       0.427  11.347  19.292  0.00  0.00    +0.000 C 
ATOM     27  O   UNL     1       1.150  12.322  19.051  0.00  0.00    +0.000 OA
ATOM     28  N   UNL     1      -0.519  11.363  20.301  0.00  0.00    +0.000 N 
ATOM     29  H   UNL     1      -1.259  10.675  20.265  0.00  0.00    +0.000 HD
BRANCH  28  30
ATOM     30  C   UNL     1      -0.779  12.621  21.006  0.00  0.00    +0.000 C 
ATOM     31  C   UNL     1      -2.008  13.329  20.422  0.00  0.00    +0.000 C 
ATOM     32  C   UNL     1      -3.317  12.689  20.879  0.00  0.00    +0.000 C 
ATOM     33  C   UNL     1      -3.405  12.668  22.401  0.00  0.00    +0.000 C 
ATOM     34  C   UNL     1      -2.230  11.914  23.014  0.00  0.00    +0.000 C 
ATOM     35  C   UNL     1      -0.881  12.438  22.526  0.00  0.00    +0.000 C 
ENDBRANCH  28  30
ENDBRANCH  25  26
ENDBRANCH  24  25
ENDBRANCH  22  24
ENDBRANCH   5  22
TORSDOF 10
ENDMDL
MODEL 5
REMARK VINA RESULT:      -8.0      0.661      1.077
REMARK  Name = 
REMARK  11 active torsions:
REMARK  status: ('A' for Active; 'I' for Inactive)
REMARK    1  A    between atoms: C_1  and  O_2
REMARK    2  A    between atoms: O_2  and  C_3
REMARK    3  A    between atoms: C_6  and  N_7
REMARK    4  A    between atoms: N_7  and  S_8
REMARK    5  A    between atoms: S_8  and  C_11
REMARK    6  A    between atoms: C_14  and  O_15
REMARK    7  A    between atoms: C_16  and  C_17
REMARK    8  A    between atoms: C_17  and  O_19
REMARK    9  A    between atoms: O_19  and  C_20
REMARK   10  A    between atoms: C_20  and  C_21
REMARK   11  A    between atoms: N_23  and  C_24
REMARK                            x       y       z     vdW  Elec       q    Type
REMARK                         _______ _______ _______ _____ _____    ______ ____
ROOT
ATOM      1  C   UNL     1       3.527   4.286  18.622  0.00  0.00    +0.000 A 
ATOM      2  C   UNL     1       3.197   3.446  17.553  0.00  0.00    +0.000 A 
ATOM      3  C   UNL     1       4.088   3.288  16.494  0.00  0.00    +0.000 A 
ATOM      4  C   UNL     1       5.302   3.979  16.494  0.00  0.00    +0.000 A 
ATOM      5  C   UNL     1       5.634   4.844  17.547  0.00  0.00    +0.000 A 
ATOM      6  C   UNL     1       4.729   5.008  18.617  0.00  0.00    +0.000 A 
ENDROOT
BRANCH   1   7
ATOM      7  S   UNL     1       2.359   4.448  19.963  0.00  0.00    +0.000 S 
ATOM      8  O   UNL     1       2.685   3.442  20.949  0.00  0.00    +0.000 OA
ATOM      9  O   UNL     1       1.036   4.518  19.378  0.00  0.00    +0.000 OA
BRANCH   7  10
ATOM     10  N   UNL     1       2.663   5.968  20.621  0.00  0.00    +0.000 N 
ATOM     11  H   UNL     1       2.793   5.951  21.632  0.00  0.00    +0.000 HD
BRANCH  10  15
ATOM     12  C   UNL     1       1.115   9.515  18.936  0.00  0.00    +0.000 A 
ATOM     13  C   UNL     1       0.855   9.185  20.267  0.00  0.00    +0.000 A 
ATOM     14  C   UNL     1       1.373   8.015  20.825  0.00  0.00    +0.000 A 
ATOM     15  C   UNL     1       2.120   7.142  20.036  0.00  0.00    +0.000 A 
ATOM     16  C   UNL     1       2.354   7.442  18.695  0.00  0.00    +0.000 A 
ATOM     17  C   UNL     1       1.861   8.636  18.145  0.00  0.00    +0.000 A 
BRANCH  12  19
ATOM     18  C   UNL     1       1.074  11.873  19.119  0.00  0.00    +0.000 C 
ATOM     19  O   UNL     1       0.561  10.691  18.516  0.00  0.00    +0.000 OA
ENDBRANCH  12  19
ENDBRANCH  10  15
ENDBRANCH   7  10
ENDBRANCH   1   7
BRANCH   4  20
ATOM     20  O   UNL     1       6.153   3.810  15.440  0.00  0.00    +0.000 OA
ATOM     21  H   UNL     1       6.793   4.540  15.412  0.00  0.00    +0.000 HD
ENDBRANCH   4  20
BRANCH   5  22
ATOM     22  C   UNL     1       6.983   5.471  17.603  0.00  0.00    +0.000 C 
ATOM     23  O   UNL     1       7.986   4.996  17.096  0.00  0.00    +0.000 OA
BRANCH  22  24
ATOM     24  O   UNL     1       6.961   6.575  18.395  0.00  0.00    +0.000 OA
BRANCH  24  25
ATOM     25  C   UNL     1       8.274   7.055  18.730  0.00  0.00    +0.000 C 
BRANCH  25  26
ATOM     26  C   UNL     1       8.374   8.509  18.266  0.00  0.00    +0.000 C 
ATOM     27  O   UNL     1       7.769   8.904  17.261  0.00  0.00    +0.000 OA
ATOM     28  N   UNL     1       9.161   9.351  19.030  0.00  0.00    +0.000 N 
ATOM     29  H   UNL     1       9.386   9.062  19.971  0.00  0.00    +0.000 HD
BRANCH  28  30
ATOM     30  C   UNL     1       9.160  10.785  18.729  0.00  0.00    +0.000 C 
ATOM     31  C   UNL     1       9.046  11.612  20.017  0.00  0.00    +0.000 C 
ATOM     32  C   UNL     1      10.364  11.674  20.785  0.00  0.00    +0.000 C 
ATOM     33  C   UNL     1      11.475  12.236  19.906  0.00  0.00    +0.000 C 
ATOM     34  C   UNL     1      11.660  11.400  18.644  0.00  0.00    +0.000 C 
ATOM     35  C   UNL     1      10.358  11.212  17.871  0.00  0.00    +0.000 C 
ENDBRANCH  28  30
ENDBRANCH  25  26
ENDBRANCH  24  25
ENDBRANCH  22  24
ENDBRANCH   5  22
TORSDOF 10
ENDMDL
MODEL 6
REMARK VINA RESULT:      -7.7      5.198      8.879
REMARK  Name = 
REMARK  11 active torsions:
REMARK  status: ('A' for Active; 'I' for Inactive)
REMARK    1  A    between atoms: C_1  and  O_2
REMARK    2  A    between atoms: O_2  and  C_3
REMARK    3  A    between atoms: C_6  and  N_7
REMARK    4  A    between atoms: N_7  and  S_8
REMARK    5  A    between atoms: S_8  and  C_11
REMARK    6  A    between atoms: C_14  and  O_15
REMARK    7  A    between atoms: C_16  and  C_17
REMARK    8  A    between atoms: C_17  and  O_19
REMARK    9  A    between atoms: O_19  and  C_20
REMARK   10  A    between atoms: C_20  and  C_21
REMARK   11  A    between atoms: N_23  and  C_24
REMARK                            x       y       z     vdW  Elec       q    Type
REMARK                         _______ _______ _______ _____ _____    ______ ____
ROOT
ATOM      1  C   UNL     1      -1.555  11.303  18.431  0.00  0.00    +0.000 A 
ATOM      2  C   UNL     1      -0.897  12.523  18.238  0.00  0.00    +0.000 A 
ATOM      3  C   UNL     1       0.107  12.916  19.120  0.00  0.00    +0.000 A 
ATOM      4  C   UNL     1       0.444  12.101  20.202  0.00  0.00    +0.000 A 
ATOM      5  C   UNL     1      -0.226  10.888  20.422  0.00  0.00    +0.000 A 
ATOM      6  C   UNL     1      -1.245  10.492  19.532  0.00  0.00    +0.000 A 
ENDROOT
BRANCH   1   7
ATOM      7  S   UNL     1      -2.826  10.835  17.268  0.00  0.00    +0.000 S 
ATOM      8  O   UNL     1      -3.344   9.550  17.683  0.00  0.00    +0.000 OA
ATOM      9  O   UNL     1      -2.289  11.028  15.938  0.00  0.00    +0.000 OA
BRANCH   7  10
ATOM     10  N   UNL     1      -4.035  11.991  17.459  0.00  0.00    +0.000 N 
ATOM     11  H   UNL     1      -3.757  12.922  17.149  0.00  0.00    +0.000 HD
BRANCH  10  15
ATOM     12  C   UNL     1      -6.872  11.801  20.579  0.00  0.00    +0.000 A 
ATOM     13  C   UNL     1      -5.642  12.430  20.772  0.00  0.00    +0.000 A 
ATOM     14  C   UNL     1      -4.706  12.498  19.738  0.00  0.00    +0.000 A 
ATOM     15  C   UNL     1      -4.983  11.894  18.512  0.00  0.00    +0.000 A 
ATOM     16  C   UNL     1      -6.193  11.229  18.321  0.00  0.00    +0.000 A 
ATOM     17  C   UNL     1      -7.145  11.191  19.351  0.00  0.00    +0.000 A 
BRANCH  12  19
ATOM     18  C   UNL     1      -7.182  12.423  22.840  0.00  0.00    +0.000 C 
ATOM     19  O   UNL     1      -7.702  11.814  21.664  0.00  0.00    +0.000 OA
ENDBRANCH  12  19
ENDBRANCH  10  15
ENDBRANCH   7  10
ENDBRANCH   1   7
BRANCH   4  20
ATOM     20  O   UNL     1       1.427  12.515  21.055  0.00  0.00    +0.000 OA
ATOM     21  H   UNL     1       2.227  12.741  20.552  0.00  0.00    +0.000 HD
ENDBRANCH   4  20
BRANCH   5  22
ATOM     22  C   UNL     1       0.230   9.966  21.499  0.00  0.00    +0.000 C 
ATOM     23  O   UNL     1       0.628  10.328  22.595  0.00  0.00    +0.000 OA
BRANCH  22  24
ATOM     24  O   UNL     1       0.255   8.685  21.048  0.00  0.00    +0.000 OA
BRANCH  24  25
ATOM     25  C   UNL     1       1.551   8.072  21.159  0.00  0.00    +0.000 C 
BRANCH  25  26
ATOM     26  C   UNL     1       1.962   7.590  19.767  0.00  0.00    +0.000 C 
ATOM     27  O   UNL     1       2.032   8.375  18.812  0.00  0.00    +0.000 OA
ATOM     28  N   UNL     1       2.259   6.246  19.639  0.00  0.00    +0.000 N 
ATOM     29  H   UNL     1       2.467   5.726  20.480  0.00  0.00    +0.000 HD
BRANCH  28  30
ATOM     30  C   UNL     1       2.817   5.763  18.372  0.00  0.00    +0.000 C 
ATOM     31  C   UNL     1       4.295   5.386  18.537  0.00  0.00    +0.000 C 
ATOM     32  C   UNL     1       4.476   4.044  19.241  0.00  0.00    +0.000 C 
ATOM     33  C   UNL     1       3.740   2.938  18.494  0.00  0.00    +0.000 C 
ATOM     34  C   UNL     1       2.252   3.249  18.368  0.00  0.00    +0.000 C 
ATOM     35  C   UNL     1       1.993   4.624  17.757  0.00  0.00    +0.000 C 
ENDBRANCH  28  30
ENDBRANCH  25  26
ENDBRANCH  24  25
ENDBRANCH  22  24
ENDBRANCH   5  22
TORSDOF 10
ENDMDL
MODEL 7
REMARK VINA RESULT:      -7.7      3.096      6.758
REMARK  Name = 
REMARK  11 active torsions:
REMARK  status: ('A' for Active; 'I' for Inactive)
REMARK    1  A    between atoms: C_1  and  O_2
REMARK    2  A    between atoms: O_2  and  C_3
REMARK    3  A    between atoms: C_6  and  N_7
REMARK    4  A    between atoms: N_7  and  S_8
REMARK    5  A    between atoms: S_8  and  C_11
REMARK    6  A    between atoms: C_14  and  O_15
REMARK    7  A    between atoms: C_16  and  C_17
REMARK    8  A    between atoms: C_17  and  O_19
REMARK    9  A    between atoms: O_19  and  C_20
REMARK   10  A    between atoms: C_20  and  C_21
REMARK   11  A    between atoms: N_23  and  C_24
REMARK                            x       y       z     vdW  Elec       q    Type
REMARK                         _______ _______ _______ _____ _____    ______ ____
ROOT
ATOM      1  C   UNL     1       2.351   4.711  18.828  0.00  0.00    +0.000 A 
ATOM      2  C   UNL     1       2.156   4.632  20.211  0.00  0.00    +0.000 A 
ATOM      3  C   UNL     1       1.958   5.796  20.951  0.00  0.00    +0.000 A 
ATOM      4  C   UNL     1       1.967   7.038  20.313  0.00  0.00    +0.000 A 
ATOM      5  C   UNL     1       2.187   7.133  18.931  0.00  0.00    +0.000 A 
ATOM      6  C   UNL     1       2.393   5.956  18.183  0.00  0.00    +0.000 A 
ENDROOT
BRANCH   1   7
ATOM      7  S   UNL     1       2.590   3.192  17.920  0.00  0.00    +0.000 S 
ATOM      8  O   UNL     1       2.124   3.415  16.569  0.00  0.00    +0.000 OA
ATOM      9  O   UNL     1       2.053   2.117  18.726  0.00  0.00    +0.000 OA
BRANCH   7  10
ATOM     10  N   UNL     1       4.258   2.967  17.885  0.00  0.00    +0.000 N 
ATOM     11  H   UNL     1       4.578   2.227  18.510  0.00  0.00    +0.000 HD
BRANCH  10  15
ATOM     12  C   UNL     1       6.798   6.244  17.094  0.00  0.00    +0.000 A 
ATOM     13  C   UNL     1       6.108   5.611  16.059  0.00  0.00    +0.000 A 
ATOM     14  C   UNL     1       5.263   4.531  16.322  0.00  0.00    +0.000 A 
ATOM     15  C   UNL     1       5.139   4.049  17.624  0.00  0.00    +0.000 A 
ATOM     16  C   UNL     1       5.854   4.649  18.660  0.00  0.00    +0.000 A 
ATOM     17  C   UNL     1       6.676   5.755  18.398  0.00  0.00    +0.000 A 
BRANCH  12  19
ATOM     18  C   UNL     1       7.879   8.256  17.710  0.00  0.00    +0.000 C 
ATOM     19  O   UNL     1       7.581   7.293  16.705  0.00  0.00    +0.000 OA
ENDBRANCH  12  19
ENDBRANCH  10  15
ENDBRANCH   7  10
ENDBRANCH   1   7
BRANCH   4  20
ATOM     20  O   UNL     1       1.777   8.163  21.064  0.00  0.00    +0.000 OA
ATOM     21  H   UNL     1       0.918   8.563  20.849  0.00  0.00    +0.000 HD
ENDBRANCH   4  20
BRANCH   5  22
ATOM     22  C   UNL     1       2.063   8.448  18.242  0.00  0.00    +0.000 C 
ATOM     23  O   UNL     1       2.686   8.764  17.242  0.00  0.00    +0.000 OA
BRANCH  22  24
ATOM     24  O   UNL     1       1.257   9.281  18.951  0.00  0.00    +0.000 OA
BRANCH  24  25
ATOM     25  C   UNL     1       0.116   9.734  18.202  0.00  0.00    +0.000 C 
BRANCH  25  26
ATOM     26  C   UNL     1      -0.039  11.235  18.447  0.00  0.00    +0.000 C 
ATOM     27  O   UNL     1      -1.155  11.749  18.593  0.00  0.00    +0.000 OA
ATOM     28  N   UNL     1       1.127  11.978  18.505  0.00  0.00    +0.000 N 
ATOM     29  H   UNL     1       1.993  11.485  18.669  0.00  0.00    +0.000 HD
BRANCH  28  30
ATOM     30  C   UNL     1       1.048  13.387  18.900  0.00  0.00    +0.000 C 
ATOM     31  C   UNL     1       1.216  13.536  20.418  0.00  0.00    +0.000 C 
ATOM     32  C   UNL     1       2.671  13.392  20.857  0.00  0.00    +0.000 C 
ATOM     33  C   UNL     1       3.555  14.403  20.137  0.00  0.00    +0.000 C 
ATOM     34  C   UNL     1       3.463  14.241  18.624  0.00  0.00    +0.000 C 
ATOM     35  C   UNL     1       2.022  14.278  18.119  0.00  0.00    +0.000 C 
ENDBRANCH  28  30
ENDBRANCH  25  26
ENDBRANCH  24  25
ENDBRANCH  22  24
ENDBRANCH   5  22
TORSDOF 10
ENDMDL
MODEL 8
REMARK VINA RESULT:      -7.7      0.733      1.122
REMARK  Name = 
REMARK  11 active torsions:
REMARK  status: ('A' for Active; 'I' for Inactive)
REMARK    1  A    between atoms: C_1  and  O_2
REMARK    2  A    between atoms: O_2  and  C_3
REMARK    3  A    between atoms: C_6  and  N_7
REMARK    4  A    between atoms: N_7  and  S_8
REMARK    5  A    between atoms: S_8  and  C_11
REMARK    6  A    between atoms: C_14  and  O_15
REMARK    7  A    between atoms: C_16  and  C_17
REMARK    8  A    between atoms: C_17  and  O_19
REMARK    9  A    between atoms: O_19  and  C_20
REMARK   10  A    between atoms: C_20  and  C_21
REMARK   11  A    between atoms: N_23  and  C_24
REMARK                            x       y       z     vdW  Elec       q    Type
REMARK                         _______ _______ _______ _____ _____    ______ ____
ROOT
ATOM      1  C   UNL     1       3.342   4.600  19.283  0.00  0.00    +0.000 A 
ATOM      2  C   UNL     1       3.252   3.814  18.128  0.00  0.00    +0.000 A 
ATOM      3  C   UNL     1       4.369   3.646  17.315  0.00  0.00    +0.000 A 
ATOM      4  C   UNL     1       5.573   4.273  17.645  0.00  0.00    +0.000 A 
ATOM      5  C   UNL     1       5.670   5.084  18.785  0.00  0.00    +0.000 A 
ATOM      6  C   UNL     1       4.537   5.258  19.606  0.00  0.00    +0.000 A 
ENDROOT
BRANCH   1   7
ATOM      7  S   UNL     1       1.886   4.777  20.301  0.00  0.00    +0.000 S 
ATOM      8  O   UNL     1       1.893   3.698  21.264  0.00  0.00    +0.000 OA
ATOM      9  O   UNL     1       0.759   4.978  19.414  0.00  0.00    +0.000 OA
BRANCH   7  10
ATOM     10  N   UNL     1       2.105   6.232  21.120  0.00  0.00    +0.000 N 
ATOM     11  H   UNL     1       2.254   6.113  22.122  0.00  0.00    +0.000 HD
BRANCH  10  15
ATOM     12  C   UNL     1       0.286   9.831  19.872  0.00  0.00    +0.000 A 
ATOM     13  C   UNL     1      -0.111   9.204  21.055  0.00  0.00    +0.000 A 
ATOM     14  C   UNL     1       0.495   8.017  21.470  0.00  0.00    +0.000 A 
ATOM     15  C   UNL     1       1.476   7.425  20.676  0.00  0.00    +0.000 A 
ATOM     16  C   UNL     1       1.854   8.022  19.474  0.00  0.00    +0.000 A 
ATOM     17  C   UNL     1       1.266   9.232  19.075  0.00  0.00    +0.000 A 
BRANCH  12  19
ATOM     18  C   UNL     1      -0.949  11.078  18.286  0.00  0.00    +0.000 C 
ATOM     19  O   UNL     1      -0.377  10.990  19.586  0.00  0.00    +0.000 OA
ENDBRANCH  12  19
ENDBRANCH  10  15
ENDBRANCH   7  10
ENDBRANCH   1   7
BRANCH   4  20
ATOM     20  O   UNL     1       6.652   4.096  16.826  0.00  0.00    +0.000 OA
ATOM     21  H   UNL     1       6.617   4.731  16.092  0.00  0.00    +0.000 HD
ENDBRANCH   4  20
BRANCH   5  22
ATOM     22  C   UNL     1       6.989   5.638  19.199  0.00  0.00    +0.000 C 
ATOM     23  O   UNL     1       7.618   5.266  20.177  0.00  0.00    +0.000 OA
BRANCH  22  24
ATOM     24  O   UNL     1       7.331   6.690  18.411  0.00  0.00    +0.000 OA
BRANCH  24  25
ATOM     25  C   UNL     1       8.571   7.306  18.797  0.00  0.00    +0.000 C 
BRANCH  25  26
ATOM     26  C   UNL     1       8.481   8.794  18.456  0.00  0.00    +0.000 C 
ATOM     27  O   UNL     1       7.690   9.209  17.599  0.00  0.00    +0.000 OA
ATOM     28  N   UNL     1       9.319   9.642  19.157  0.00  0.00    +0.000 N 
ATOM     29  H   UNL     1       9.718   9.303  20.021  0.00  0.00    +0.000 HD
BRANCH  28  30
ATOM     30  C   UNL     1       9.159  11.089  18.990  0.00  0.00    +0.000 C 
ATOM     31  C   UNL     1       9.452  11.825  20.305  0.00  0.00    +0.000 C 
ATOM     32  C   UNL     1      10.948  11.924  20.592  0.00  0.00    +0.000 C 
ATOM     33  C   UNL     1      11.675  12.611  19.441  0.00  0.00    +0.000 C 
ATOM     34  C   UNL     1      11.457  11.869  18.127  0.00  0.00    +0.000 C 
ATOM     35  C   UNL     1       9.979  11.646  17.819  0.00  0.00    +0.000 C 
ENDBRANCH  28  30
ENDBRANCH  25  26
ENDBRANCH  24  25
ENDBRANCH  22  24
ENDBRANCH   5  22
TORSDOF 10
ENDMDL
MODEL 9
REMARK VINA RESULT:      -7.7      4.248      9.620
REMARK  Name = 
REMARK  11 active torsions:
REMARK  status: ('A' for Active; 'I' for Inactive)
REMARK    1  A    between atoms: C_1  and  O_2
REMARK    2  A    between atoms: O_2  and  C_3
REMARK    3  A    between atoms: C_6  and  N_7
REMARK    4  A    between atoms: N_7  and  S_8
REMARK    5  A    between atoms: S_8  and  C_11
REMARK    6  A    between atoms: C_14  and  O_15
REMARK    7  A    between atoms: C_16  and  C_17
REMARK    8  A    between atoms: C_17  and  O_19
REMARK    9  A    between atoms: O_19  and  C_20
REMARK   10  A    between atoms: C_20  and  C_21
REMARK   11  A    between atoms: N_23  and  C_24
REMARK                            x       y       z     vdW  Elec       q    Type
REMARK                         _______ _______ _______ _____ _____    ______ ____
ROOT
ATOM      1  C   UNL     1       2.262   6.932  19.460  0.00  0.00    +0.000 A 
ATOM      2  C   UNL     1       2.203   7.713  18.300  0.00  0.00    +0.000 A 
ATOM      3  C   UNL     1       1.668   8.997  18.355  0.00  0.00    +0.000 A 
ATOM      4  C   UNL     1       1.177   9.498  19.563  0.00  0.00    +0.000 A 
ATOM      5  C   UNL     1       1.206   8.717  20.727  0.00  0.00    +0.000 A 
ATOM      6  C   UNL     1       1.744   7.414  20.671  0.00  0.00    +0.000 A 
ENDROOT
BRANCH   1   7
ATOM      7  S   UNL     1       2.967   5.296  19.345  0.00  0.00    +0.000 S 
ATOM      8  O   UNL     1       2.419   4.667  18.164  0.00  0.00    +0.000 OA
ATOM      9  O   UNL     1       2.840   4.677  20.647  0.00  0.00    +0.000 OA
BRANCH   7  10
ATOM     10  N   UNL     1       4.614   5.551  19.104  0.00  0.00    +0.000 N 
ATOM     11  H   UNL     1       5.023   6.206  19.771  0.00  0.00    +0.000 HD
BRANCH  10  15
ATOM     12  C   UNL     1       6.256   5.242  15.228  0.00  0.00    +0.000 A 
ATOM     13  C   UNL     1       6.572   4.305  16.213  0.00  0.00    +0.000 A 
ATOM     14  C   UNL     1       6.024   4.405  17.493  0.00  0.00    +0.000 A 
ATOM     15  C   UNL     1       5.186   5.473  17.807  0.00  0.00    +0.000 A 
ATOM     16  C   UNL     1       4.894   6.437  16.842  0.00  0.00    +0.000 A 
ATOM     17  C   UNL     1       5.420   6.316  15.547  0.00  0.00    +0.000 A 
BRANCH  12  19
ATOM     18  C   UNL     1       6.413   3.872  13.305  0.00  0.00    +0.000 C 
ATOM     19  O   UNL     1       6.848   5.026  14.016  0.00  0.00    +0.000 OA
ENDBRANCH  12  19
ENDBRANCH  10  15
ENDBRANCH   7  10
ENDBRANCH   1   7
BRANCH   4  20
ATOM     20  O   UNL     1       0.652  10.759  19.585  0.00  0.00    +0.000 OA
ATOM     21  H   UNL     1      -0.248  10.735  19.950  0.00  0.00    +0.000 HD
ENDBRANCH   4  20
BRANCH   5  22
ATOM     22  C   UNL     1       0.804   9.307  22.034  0.00  0.00    +0.000 C 
ATOM     23  O   UNL     1       1.559   9.467  22.980  0.00  0.00    +0.000 OA
BRANCH  22  24
ATOM     24  O   UNL     1      -0.536   9.526  22.064  0.00  0.00    +0.000 OA
BRANCH  24  25
ATOM     25  C   UNL     1      -0.928  10.494  23.053  0.00  0.00    +0.000 C 
BRANCH  25  26
ATOM     26  C   UNL     1      -1.517  11.700  22.320  0.00  0.00    +0.000 C 
ATOM     27  O   UNL     1      -1.150  11.997  21.176  0.00  0.00    +0.000 OA
ATOM     28  N   UNL     1      -2.479  12.428  22.997  0.00  0.00    +0.000 N 
ATOM     29  H   UNL     1      -2.940  11.986  23.781  0.00  0.00    +0.000 HD
BRANCH  28  30
ATOM     30  C   UNL     1      -3.193  13.490  22.284  0.00  0.00    +0.000 C 
ATOM     31  C   UNL     1      -4.596  13.022  21.874  0.00  0.00    +0.000 C 
ATOM     32  C   UNL     1      -5.572  13.019  23.048  0.00  0.00    +0.000 C 
ATOM     33  C   UNL     1      -5.653  14.401  23.687  0.00  0.00    +0.000 C 
ATOM     34  C   UNL     1      -4.284  14.871  24.165  0.00  0.00    +0.000 C 
ATOM     35  C   UNL     1      -3.227  14.810  23.065  0.00  0.00    +0.000 C 
ENDBRANCH  28  30
ENDBRANCH  25  26
ENDBRANCH  24  25
ENDBRANCH  22  24
ENDBRANCH   5  22
TORSDOF 10
ENDMDL
