MODEL 1
REMARK VINA RESULT:      -8.7      0.000      0.000
REMARK  Name = 
REMARK  13 active torsions:
REMARK  status: ('A' for Active; 'I' for Inactive)
REMARK    1  A    between atoms: O_1  and  C_2
REMARK    2  A    between atoms: C_2  and  C_3
REMARK    3  A    between atoms: C_5  and  C_6
REMARK    4  A    between atoms: C_6  and  O_7
REMARK    5  A    between atoms: C_6  and  C_8
REMARK    6  A    between atoms: C_8  and  N_9
REMARK    7  A    between atoms: N_9  and  C_10
REMARK    8  A    between atoms: C_10  and  C_11
REMARK    9  A    between atoms: C_11  and  C_12
REMARK   10  A    between atoms: C_15  and  N_16
REMARK   11  A    between atoms: N_16  and  C_17
REMARK   12  A    between atoms: C_17  and  C_18
REMARK   13  A    between atoms: C_32  and  O_33
REMARK                            x       y       z     vdW  Elec       q    Type
REMARK                         _______ _______ _______ _____ _____    ______ ____
ROOT
ATOM      1  C   UNL     1       2.787   5.705  20.205  0.00  0.00    +0.000 C 
ENDROOT
BRANCH   1   2
ATOM      2  C   UNL     1       2.320   7.026  19.634  0.00  0.00    +0.000 A 
ATOM      3  C   UNL     1       1.612   7.937  20.424  0.00  0.00    +0.000 A 
ATOM      4  C   UNL     1       1.131   9.132  19.881  0.00  0.00    +0.000 A 
ATOM      5  C   UNL     1       1.380   9.483  18.548  0.00  0.00    +0.000 A 
ATOM      6  C   UNL     1       2.087   8.565  17.760  0.00  0.00    +0.000 A 
ATOM      7  C   UNL     1       2.557   7.358  18.296  0.00  0.00    +0.000 A 
BRANCH   5   8
ATOM      8  N   UNL     1       0.785  10.646  18.041  0.00  0.00    +0.000 N 
ATOM      9  H   UNL     1       0.299  10.475  17.165  0.00  0.00    +0.000 HD
BRANCH   8  10
ATOM     10  C   UNL     1      -0.012  11.477  18.932  0.00  0.00    +0.000 C 
BRANCH  10  11
ATOM     11  C   UNL     1      -1.475  11.400  18.547  0.00  0.00    +0.000 A 
ATOM     12  C   UNL     1      -1.900  10.571  17.503  0.00  0.00    +0.000 A 
ATOM     13  C   UNL     1      -3.263  10.391  17.250  0.00  0.00    +0.000 A 
ATOM     14  C   UNL     1      -4.232  11.037  18.032  0.00  0.00    +0.000 A 
ATOM     15  C   UNL     1      -5.603  10.793  17.849  0.00  0.00    +0.000 A 
ATOM     16  C   UNL     1      -6.555  11.442  18.636  0.00  0.00    +0.000 A 
ATOM     17  C   UNL     1      -6.150  12.368  19.592  0.00  0.00    +0.000 A 
ATOM     18  C   UNL     1      -4.790  12.617  19.792  0.00  0.00    +0.000 A 
ATOM     19  C   UNL     1      -3.817  11.937  19.039  0.00  0.00    +0.000 A 
ATOM     20  C   UNL     1      -2.442  12.107  19.283  0.00  0.00    +0.000 A 
ENDBRANCH  10  11
ENDBRANCH   8  10
ENDBRANCH   5   8
ENDBRANCH   1   2
BRANCH   1  21
ATOM     21  C   UNL     1       1.653   4.667  20.271  0.00  0.00    +0.000 C 
BRANCH  21  22
ATOM     22  N   UNL     1       2.053   3.386  19.668  0.00  0.00    +0.000 NA
ATOM     23  H   UNL     1       2.862   3.020  20.184  0.00  0.00    +0.000 HD
BRANCH  22  24
ATOM     24  C   UNL     1       2.466   3.602  18.260  0.00  0.00    +0.000 C 
BRANCH  24  25
ATOM     25  C   UNL     1       3.915   3.101  18.002  0.00  0.00    +0.000 C 
BRANCH  25  28
ATOM     26  C   UNL     1       6.845   5.567  18.182  0.00  0.00    +0.000 A 
ATOM     27  C   UNL     1       5.889   4.596  18.517  0.00  0.00    +0.000 A 
ATOM     28  C   UNL     1       4.877   4.213  17.619  0.00  0.00    +0.000 A 
ATOM     29  C   UNL     1       4.802   4.871  16.383  0.00  0.00    +0.000 A 
ATOM     30  C   UNL     1       5.733   5.851  16.037  0.00  0.00    +0.000 A 
ATOM     31  C   UNL     1       6.748   6.184  16.931  0.00  0.00    +0.000 A 
BRANCH  31  32
ATOM     32  O   UNL     1       7.677   7.128  16.591  0.00  0.00    +0.000 OA
ATOM     33  H   UNL     1       8.561   6.731  16.671  0.00  0.00    +0.000 HD
ENDBRANCH  31  32
BRANCH  26  34
ATOM     34  C   UNL     1       7.953   5.947  19.129  0.00  0.00    +0.000 C 
BRANCH  34  35
ATOM     35  O   UNL     1       7.773   5.364  20.421  0.00  0.00    +0.000 OA
ATOM     36  H   UNL     1       6.870   5.597  20.696  0.00  0.00    +0.000 HD
ENDBRANCH  34  35
ENDBRANCH  26  34
ENDBRANCH  25  28
BRANCH  25  37
ATOM     37  O   UNL     1       4.366   2.419  19.179  0.00  0.00    +0.000 OA
ATOM     38  H   UNL     1       5.341   2.467  19.125  0.00  0.00    +0.000 HD
ENDBRANCH  25  37
ENDBRANCH  24  25
ENDBRANCH  22  24
ENDBRANCH  21  22
ENDBRANCH   1  21
TORSDOF 13
ENDMDL
MODEL 2
REMARK VINA RESULT:      -8.4      0.821      1.206
REMARK  Name = 
REMARK  13 active torsions:
REMARK  status: ('A' for Active; 'I' for Inactive)
REMARK    1  A    between atoms: O_1  and  C_2
REMARK    2  A    between atoms: C_2  and  C_3
REMARK    3  A    between atoms: C_5  and  C_6
REMARK    4  A    between atoms: C_6  and  O_7
REMARK    5  A    between atoms: C_6  and  C_8
REMARK    6  A    between atoms: C_8  and  N_9
REMARK    7  A    between atoms: N_9  and  C_10
REMARK    8  A    between atoms: C_10  and  C_11
REMARK    9  A    between atoms: C_11  and  C_12
REMARK   10  A    between atoms: C_15  and  N_16
REMARK   11  A    between atoms: N_16  and  C_17
REMARK   12  A    between atoms: C_17  and  C_18
REMARK   13  A    between atoms: C_32  and  O_33
REMARK                            x       y       z     vdW  Elec       q    Type
REMARK                         _______ _______ _______ _____ _____    ______ ____
ROOT
ATOM      1  C   UNL     1       2.865   6.316  19.790  0.00  0.00    +0.000 C 
ENDROOT
BRANCH   1   2
ATOM      2  C   UNL     1       2.150   7.590  19.396  0.00  0.00    +0.000 A 
ATOM      3  C   UNL     1       2.211   8.068  18.084  0.00  0.00    +0.000 A 
ATOM      4  C   UNL     1       1.598   9.274  17.734  0.00  0.00    +0.000 A 
ATOM      5  C   UNL     1       0.864  10.020  18.664  0.00  0.00    +0.000 A 
ATOM      6  C   UNL     1       0.808   9.537  19.978  0.00  0.00    +0.000 A 
ATOM      7  C   UNL     1       1.435   8.337  20.339  0.00  0.00    +0.000 A 
BRANCH   5   8
ATOM      8  N   UNL     1       0.359  11.268  18.272  0.00  0.00    +0.000 N 
ATOM      9  H   UNL     1      -0.067  11.233  17.350  0.00  0.00    +0.000 HD
BRANCH   8  10
ATOM     10  C   UNL     1      -0.466  12.020  19.206  0.00  0.00    +0.000 C 
BRANCH  10  11
ATOM     11  C   UNL     1      -1.919  11.961  18.783  0.00  0.00    +0.000 A 
ATOM     12  C   UNL     1      -2.280  11.476  17.521  0.00  0.00    +0.000 A 
ATOM     13  C   UNL     1      -3.625  11.285  17.192  0.00  0.00    +0.000 A 
ATOM     14  C   UNL     1      -4.640  11.574  18.118  0.00  0.00    +0.000 A 
ATOM     15  C   UNL     1      -5.988  11.299  17.836  0.00  0.00    +0.000 A 
ATOM     16  C   UNL     1      -6.987  11.590  18.766  0.00  0.00    +0.000 A 
ATOM     17  C   UNL     1      -6.653  12.191  19.975  0.00  0.00    +0.000 A 
ATOM     18  C   UNL     1      -5.317  12.466  20.274  0.00  0.00    +0.000 A 
ATOM     19  C   UNL     1      -4.295  12.135  19.367  0.00  0.00    +0.000 A 
ATOM     20  C   UNL     1      -2.937  12.322  19.683  0.00  0.00    +0.000 A 
ENDBRANCH  10  11
ENDBRANCH   8  10
ENDBRANCH   5   8
ENDBRANCH   1   2
BRANCH   1  21
ATOM     21  C   UNL     1       1.912   5.286  20.423  0.00  0.00    +0.000 C 
BRANCH  21  22
ATOM     22  N   UNL     1       1.991   3.983  19.743  0.00  0.00    +0.000 NA
ATOM     23  H   UNL     1       1.107   3.483  19.892  0.00  0.00    +0.000 HD
BRANCH  22  24
ATOM     24  C   UNL     1       3.082   3.172  20.338  0.00  0.00    +0.000 C 
BRANCH  24  25
ATOM     25  C   UNL     1       4.060   2.641  19.253  0.00  0.00    +0.000 C 
BRANCH  25  28
ATOM     26  C   UNL     1       6.540   5.411  18.320  0.00  0.00    +0.000 A 
ATOM     27  C   UNL     1       5.830   4.433  19.033  0.00  0.00    +0.000 A 
ATOM     28  C   UNL     1       4.743   3.746  18.465  0.00  0.00    +0.000 A 
ATOM     29  C   UNL     1       4.335   4.102  17.172  0.00  0.00    +0.000 A 
ATOM     30  C   UNL     1       5.017   5.084  16.452  0.00  0.00    +0.000 A 
ATOM     31  C   UNL     1       6.114   5.722  17.025  0.00  0.00    +0.000 A 
BRANCH  31  32
ATOM     32  O   UNL     1       6.801   6.671  16.319  0.00  0.00    +0.000 OA
ATOM     33  H   UNL     1       6.293   7.500  16.347  0.00  0.00    +0.000 HD
ENDBRANCH  31  32
BRANCH  26  34
ATOM     34  C   UNL     1       7.730   6.118  18.915  0.00  0.00    +0.000 C 
BRANCH  34  35
ATOM     35  O   UNL     1       8.364   5.335  19.928  0.00  0.00    +0.000 OA
ATOM     36  H   UNL     1       7.648   5.002  20.495  0.00  0.00    +0.000 HD
ENDBRANCH  34  35
ENDBRANCH  26  34
ENDBRANCH  25  28
BRANCH  25  37
ATOM     37  O   UNL     1       5.026   1.801  19.897  0.00  0.00    +0.000 OA
ATOM     38  H   UNL     1       4.490   1.210  20.464  0.00  0.00    +0.000 HD
ENDBRANCH  25  37
ENDBRANCH  24  25
ENDBRANCH  22  24
ENDBRANCH  21  22
ENDBRANCH   1  21
TORSDOF 13
ENDMDL
MODEL 3
REMARK VINA RESULT:      -7.8      2.938      3.484
REMARK  Name = 
REMARK  13 active torsions:
REMARK  status: ('A' for Active; 'I' for Inactive)
REMARK    1  A    between atoms: O_1  and  C_2
REMARK    2  A    between atoms: C_2  and  C_3
REMARK    3  A    between atoms: C_5  and  C_6
REMARK    4  A    between atoms: C_6  and  O_7
REMARK    5  A    between atoms: C_6  and  C_8
REMARK    6  A    between atoms: C_8  and  N_9
REMARK    7  A    between atoms: N_9  and  C_10
REMARK    8  A    between atoms: C_10  and  C_11
REMARK    9  A    between atoms: C_11  and  C_12
REMARK   10  A    between atoms: C_15  and  N_16
REMARK   11  A    between atoms: N_16  and  C_17
REMARK   12  A    between atoms: C_17  and  C_18
REMARK   13  A    between atoms: C_32  and  O_33
REMARK                            x       y       z     vdW  Elec       q    Type
REMARK                         _______ _______ _______ _____ _____    ______ ____
ROOT
ATOM      1  C   UNL     1       1.202   3.033  20.359  0.00  0.00    +0.000 C 
ENDROOT
BRANCH   1   2
ATOM      2  C   UNL     1       1.514   4.412  19.822  0.00  0.00    +0.000 A 
ATOM      3  C   UNL     1       1.593   4.643  18.445  0.00  0.00    +0.000 A 
ATOM      4  C   UNL     1       1.937   5.904  17.950  0.00  0.00    +0.000 A 
ATOM      5  C   UNL     1       2.165   6.989  18.805  0.00  0.00    +0.000 A 
ATOM      6  C   UNL     1       2.086   6.752  20.184  0.00  0.00    +0.000 A 
ATOM      7  C   UNL     1       1.758   5.485  20.686  0.00  0.00    +0.000 A 
BRANCH   5   8
ATOM      8  N   UNL     1       2.602   8.199  18.248  0.00  0.00    +0.000 N 
ATOM      9  H   UNL     1       3.343   8.058  17.566  0.00  0.00    +0.000 HD
BRANCH   8  10
ATOM     10  C   UNL     1       1.613   9.150  17.762  0.00  0.00    +0.000 C 
BRANCH  10  11
ATOM     11  C   UNL     1       1.245  10.127  18.859  0.00  0.00    +0.000 A 
ATOM     12  C   UNL     1       1.473  11.498  18.704  0.00  0.00    +0.000 A 
ATOM     13  C   UNL     1       0.999  12.408  19.653  0.00  0.00    +0.000 A 
ATOM     14  C   UNL     1       0.285  11.968  20.779  0.00  0.00    +0.000 A 
ATOM     15  C   UNL     1      -0.278  12.876  21.691  0.00  0.00    +0.000 A 
ATOM     16  C   UNL     1      -0.986  12.423  22.805  0.00  0.00    +0.000 A 
ATOM     17  C   UNL     1      -1.110  11.057  23.039  0.00  0.00    +0.000 A 
ATOM     18  C   UNL     1      -0.562  10.141  22.139  0.00  0.00    +0.000 A 
ATOM     19  C   UNL     1       0.114  10.581  20.987  0.00  0.00    +0.000 A 
ATOM     20  C   UNL     1       0.597   9.678  20.023  0.00  0.00    +0.000 A 
ENDBRANCH  10  11
ENDBRANCH   8  10
ENDBRANCH   5   8
ENDBRANCH   1   2
BRANCH   1  21
ATOM     21  C   UNL     1       2.293   2.522  21.317  0.00  0.00    +0.000 C 
BRANCH  21  22
ATOM     22  N   UNL     1       3.604   3.117  21.015  0.00  0.00    +0.000 NA
ATOM     23  H   UNL     1       3.455   4.010  20.532  0.00  0.00    +0.000 HD
BRANCH  22  24
ATOM     24  C   UNL     1       4.362   2.223  20.105  0.00  0.00    +0.000 C 
BRANCH  24  25
ATOM     25  C   UNL     1       4.032   2.509  18.613  0.00  0.00    +0.000 C 
BRANCH  25  28
ATOM     26  C   UNL     1       6.698   5.244  18.274  0.00  0.00    +0.000 A 
ATOM     27  C   UNL     1       5.801   4.305  18.808  0.00  0.00    +0.000 A 
ATOM     28  C   UNL     1       4.926   3.568  17.991  0.00  0.00    +0.000 A 
ATOM     29  C   UNL     1       4.922   3.833  16.614  0.00  0.00    +0.000 A 
ATOM     30  C   UNL     1       5.794   4.774  16.064  0.00  0.00    +0.000 A 
ATOM     31  C   UNL     1       6.677   5.462  16.892  0.00  0.00    +0.000 A 
BRANCH  31  32
ATOM     32  O   UNL     1       7.549   6.371  16.360  0.00  0.00    +0.000 OA
ATOM     33  H   UNL     1       7.060   7.192  16.175  0.00  0.00    +0.000 HD
ENDBRANCH  31  32
BRANCH  26  34
ATOM     34  C   UNL     1       7.663   6.003  19.146  0.00  0.00    +0.000 C 
BRANCH  34  35
ATOM     35  O   UNL     1       7.879   5.349  20.398  0.00  0.00    +0.000 OA
ATOM     36  H   UNL     1       8.315   6.004  20.969  0.00  0.00    +0.000 HD
ENDBRANCH  34  35
ENDBRANCH  26  34
ENDBRANCH  25  28
BRANCH  25  37
ATOM     37  O   UNL     1       4.126   1.274  17.892  0.00  0.00    +0.000 OA
ATOM     38  H   UNL     1       3.685   0.623  18.474  0.00  0.00    +0.000 HD
ENDBRANCH  25  37
ENDBRANCH  24  25
ENDBRANCH  22  24
ENDBRANCH  21  22
ENDBRANCH   1  21
TORSDOF 13
ENDMDL
MODEL 4
REMARK VINA RESULT:      -7.8      2.809      3.756
REMARK  Name = 
REMARK  13 active torsions:
REMARK  status: ('A' for Active; 'I' for Inactive)
REMARK    1  A    between atoms: O_1  and  C_2
REMARK    2  A    between atoms: C_2  and  C_3
REMARK    3  A    between atoms: C_5  and  C_6
REMARK    4  A    between atoms: C_6  and  O_7
REMARK    5  A    between atoms: C_6  and  C_8
REMARK    6  A    between atoms: C_8  and  N_9
REMARK    7  A    between atoms: N_9  and  C_10
REMARK    8  A    between atoms: C_10  and  C_11
REMARK    9  A    between atoms: C_11  and  C_12
REMARK   10  A    between atoms: C_15  and  N_16
REMARK   11  A    between atoms: N_16  and  C_17
REMARK   12  A    between atoms: C_17  and  C_18
REMARK   13  A    between atoms: C_32  and  O_33
REMARK                            x       y       z     vdW  Elec       q    Type
REMARK                         _______ _______ _______ _____ _____    ______ ____
ROOT
ATOM      1  C   UNL     1       1.818   3.783  17.698  0.00  0.00    +0.000 C 
ENDROOT
BRANCH   1   2
ATOM      2  C   UNL     1       1.818   5.021  18.568  0.00  0.00    +0.000 A 
ATOM      3  C   UNL     1       2.261   6.248  18.067  0.00  0.00    +0.000 A 
ATOM      4  C   UNL     1       2.314   7.378  18.888  0.00  0.00    +0.000 A 
ATOM      5  C   UNL     1       1.882   7.338  20.220  0.00  0.00    +0.000 A 
ATOM      6  C   UNL     1       1.440   6.105  20.717  0.00  0.00    +0.000 A 
ATOM      7  C   UNL     1       1.401   4.964  19.903  0.00  0.00    +0.000 A 
BRANCH   5   8
ATOM      8  N   UNL     1       2.054   8.480  21.013  0.00  0.00    +0.000 N 
ATOM      9  H   UNL     1       2.082   9.330  20.456  0.00  0.00    +0.000 HD
BRANCH   8  10
ATOM     10  C   UNL     1       1.220   8.651  22.194  0.00  0.00    +0.000 C 
BRANCH  10  11
ATOM     11  C   UNL     1       0.315   9.854  22.024  0.00  0.00    +0.000 A 
ATOM     12  C   UNL     1      -0.601  10.209  23.020  0.00  0.00    +0.000 A 
ATOM     13  C   UNL     1      -1.327  11.400  22.924  0.00  0.00    +0.000 A 
ATOM     14  C   UNL     1      -1.154  12.262  21.830  0.00  0.00    +0.000 A 
ATOM     15  C   UNL     1      -1.806  13.505  21.767  0.00  0.00    +0.000 A 
ATOM     16  C   UNL     1      -1.623  14.353  20.674  0.00  0.00    +0.000 A 
ATOM     17  C   UNL     1      -0.814  13.954  19.615  0.00  0.00    +0.000 A 
ATOM     18  C   UNL     1      -0.154  12.724  19.665  0.00  0.00    +0.000 A 
ATOM     19  C   UNL     1      -0.290  11.879  20.781  0.00  0.00    +0.000 A 
ATOM     20  C   UNL     1       0.433  10.678  20.891  0.00  0.00    +0.000 A 
ENDBRANCH  10  11
ENDBRANCH   8  10
ENDBRANCH   5   8
ENDBRANCH   1   2
BRANCH   1  21
ATOM     21  C   UNL     1       1.187   2.572  18.409  0.00  0.00    +0.000 C 
BRANCH  21  22
ATOM     22  N   UNL     1       2.209   1.624  18.880  0.00  0.00    +0.000 NA
ATOM     23  H   UNL     1       2.397   1.812  19.871  0.00  0.00    +0.000 HD
BRANCH  22  24
ATOM     24  C   UNL     1       3.470   1.831  18.126  0.00  0.00    +0.000 C 
BRANCH  24  25
ATOM     25  C   UNL     1       4.581   2.447  19.023  0.00  0.00    +0.000 C 
BRANCH  25  28
ATOM     26  C   UNL     1       5.856   5.030  16.494  0.00  0.00    +0.000 A 
ATOM     27  C   UNL     1       5.383   3.843  17.073  0.00  0.00    +0.000 A 
ATOM     28  C   UNL     1       5.169   3.729  18.458  0.00  0.00    +0.000 A 
ATOM     29  C   UNL     1       5.496   4.822  19.273  0.00  0.00    +0.000 A 
ATOM     30  C   UNL     1       5.984   6.006  18.718  0.00  0.00    +0.000 A 
ATOM     31  C   UNL     1       6.150   6.105  17.339  0.00  0.00    +0.000 A 
BRANCH  31  32
ATOM     32  O   UNL     1       6.608   7.269  16.786  0.00  0.00    +0.000 OA
ATOM     33  H   UNL     1       5.995   7.984  17.027  0.00  0.00    +0.000 HD
ENDBRANCH  31  32
BRANCH  26  34
ATOM     34  C   UNL     1       6.047   5.164  15.006  0.00  0.00    +0.000 C 
BRANCH  34  35
ATOM     35  O   UNL     1       7.420   5.356  14.659  0.00  0.00    +0.000 OA
ATOM     36  H   UNL     1       7.438   6.112  14.048  0.00  0.00    +0.000 HD
ENDBRANCH  34  35
ENDBRANCH  26  34
ENDBRANCH  25  28
BRANCH  25  37
ATOM     37  O   UNL     1       4.028   2.669  20.326  0.00  0.00    +0.000 OA
ATOM     38  H   UNL     1       4.733   2.377  20.939  0.00  0.00    +0.000 HD
ENDBRANCH  25  37
ENDBRANCH  24  25
ENDBRANCH  22  24
ENDBRANCH  21  22
ENDBRANCH   1  21
TORSDOF 13
ENDMDL
MODEL 5
REMARK VINA RESULT:      -7.8      5.169      8.681
REMARK  Name = 
REMARK  13 active torsions:
REMARK  status: ('A' for Active; 'I' for Inactive)
REMARK    1  A    between atoms: O_1  and  C_2
REMARK    2  A    between atoms: C_2  and  C_3
REMARK    3  A    between atoms: C_5  and  C_6
REMARK    4  A    between atoms: C_6  and  O_7
REMARK    5  A    between atoms: C_6  and  C_8
REMARK    6  A    between atoms: C_8  and  N_9
REMARK    7  A    between atoms: N_9  and  C_10
REMARK    8  A    between atoms: C_10  and  C_11
REMARK    9  A    between atoms: C_11  and  C_12
REMARK   10  A    between atoms: C_15  and  N_16
REMARK   11  A    between atoms: N_16  and  C_17
REMARK   12  A    between atoms: C_17  and  C_18
REMARK   13  A    between atoms: C_32  and  O_33
REMARK                            x       y       z     vdW  Elec       q    Type
REMARK                         _______ _______ _______ _____ _____    ______ ____
ROOT
ATOM      1  C   UNL     1       8.136   8.285  17.406  0.00  0.00    +0.000 C 
ENDROOT
BRANCH   1   2
ATOM      2  C   UNL     1       7.317   7.023  17.564  0.00  0.00    +0.000 A 
ATOM      3  C   UNL     1       7.327   6.309  18.767  0.00  0.00    +0.000 A 
ATOM      4  C   UNL     1       6.616   5.113  18.894  0.00  0.00    +0.000 A 
ATOM      5  C   UNL     1       5.831   4.613  17.847  0.00  0.00    +0.000 A 
ATOM      6  C   UNL     1       5.825   5.331  16.645  0.00  0.00    +0.000 A 
ATOM      7  C   UNL     1       6.551   6.522  16.506  0.00  0.00    +0.000 A 
BRANCH   5   8
ATOM      8  N   UNL     1       5.223   3.360  18.008  0.00  0.00    +0.000 N 
ATOM      9  H   UNL     1       5.514   2.903  18.869  0.00  0.00    +0.000 HD
BRANCH   8  10
ATOM     10  C   UNL     1       3.786   3.242  17.808  0.00  0.00    +0.000 C 
BRANCH  10  11
ATOM     11  C   UNL     1       3.062   4.331  18.570  0.00  0.00    +0.000 A 
ATOM     12  C   UNL     1       2.692   4.147  19.907  0.00  0.00    +0.000 A 
ATOM     13  C   UNL     1       2.159   5.206  20.648  0.00  0.00    +0.000 A 
ATOM     14  C   UNL     1       1.981   6.472  20.069  0.00  0.00    +0.000 A 
ATOM     15  C   UNL     1       1.535   7.567  20.827  0.00  0.00    +0.000 A 
ATOM     16  C   UNL     1       1.365   8.821  20.238  0.00  0.00    +0.000 A 
ATOM     17  C   UNL     1       1.606   8.987  18.878  0.00  0.00    +0.000 A 
ATOM     18  C   UNL     1       2.057   7.909  18.112  0.00  0.00    +0.000 A 
ATOM     19  C   UNL     1       2.278   6.652  18.700  0.00  0.00    +0.000 A 
ATOM     20  C   UNL     1       2.814   5.577  17.968  0.00  0.00    +0.000 A 
ENDBRANCH  10  11
ENDBRANCH   8  10
ENDBRANCH   5   8
ENDBRANCH   1   2
BRANCH   1  21
ATOM     21  C   UNL     1       8.711   8.777  18.746  0.00  0.00    +0.000 C 
BRANCH  21  22
ATOM     22  N   UNL     1       8.930  10.232  18.743  0.00  0.00    +0.000 NA
ATOM     23  H   UNL     1       9.745  10.439  18.154  0.00  0.00    +0.000 HD
BRANCH  22  24
ATOM     24  C   UNL     1       9.229  10.698  20.120  0.00  0.00    +0.000 C 
BRANCH  24  25
ATOM     25  C   UNL     1      10.563  11.494  20.181  0.00  0.00    +0.000 C 
BRANCH  25  28
ATOM     26  C   UNL     1      10.008  14.544  17.925  0.00  0.00    +0.000 A 
ATOM     27  C   UNL     1       9.853  13.570  18.923  0.00  0.00    +0.000 A 
ATOM     28  C   UNL     1      10.730  12.476  19.034  0.00  0.00    +0.000 A 
ATOM     29  C   UNL     1      11.746  12.341  18.078  0.00  0.00    +0.000 A 
ATOM     30  C   UNL     1      11.909  13.290  17.067  0.00  0.00    +0.000 A 
ATOM     31  C   UNL     1      11.049  14.384  17.004  0.00  0.00    +0.000 A 
BRANCH  31  32
ATOM     32  O   UNL     1      11.213  15.329  16.030  0.00  0.00    +0.000 OA
ATOM     33  H   UNL     1      10.429  15.904  16.026  0.00  0.00    +0.000 HD
ENDBRANCH  31  32
BRANCH  26  34
ATOM     34  C   UNL     1       9.093  15.736  17.832  0.00  0.00    +0.000 C 
BRANCH  34  35
ATOM     35  O   UNL     1       7.803  15.381  17.330  0.00  0.00    +0.000 OA
ATOM     36  H   UNL     1       7.192  15.460  18.082  0.00  0.00    +0.000 HD
ENDBRANCH  34  35
ENDBRANCH  26  34
ENDBRANCH  25  28
BRANCH  25  37
ATOM     37  O   UNL     1      10.621  12.168  21.444  0.00  0.00    +0.000 OA
ATOM     38  H   UNL     1      10.936  11.483  22.067  0.00  0.00    +0.000 HD
ENDBRANCH  25  37
ENDBRANCH  24  25
ENDBRANCH  22  24
ENDBRANCH  21  22
ENDBRANCH   1  21
TORSDOF 13
ENDMDL
MODEL 6
REMARK VINA RESULT:      -7.7      2.025      3.247
REMARK  Name = 
REMARK  13 active torsions:
REMARK  status: ('A' for Active; 'I' for Inactive)
REMARK    1  A    between atoms: O_1  and  C_2
REMARK    2  A    between atoms: C_2  and  C_3
REMARK    3  A    between atoms: C_5  and  C_6
REMARK    4  A    between atoms: C_6  and  O_7
REMARK    5  A    between atoms: C_6  and  C_8
REMARK    6  A    between atoms: C_8  and  N_9
REMARK    7  A    between atoms: N_9  and  C_10
REMARK    8  A    between atoms: C_10  and  C_11
REMARK    9  A    between atoms: C_11  and  C_12
REMARK   10  A    between atoms: C_15  and  N_16
REMARK   11  A    between atoms: N_16  and  C_17
REMARK   12  A    between atoms: C_17  and  C_18
REMARK   13  A    between atoms: C_32  and  O_33
REMARK                            x       y       z     vdW  Elec       q    Type
REMARK                         _______ _______ _______ _____ _____    ______ ____
ROOT
ATOM      1  C   UNL     1       1.122   3.106  20.972  0.00  0.00    +0.000 C 
ENDROOT
BRANCH   1   2
ATOM      2  C   UNL     1       1.474   4.414  20.300  0.00  0.00    +0.000 A 
ATOM      3  C   UNL     1       1.541   4.507  18.906  0.00  0.00    +0.000 A 
ATOM      4  C   UNL     1       1.923   5.701  18.287  0.00  0.00    +0.000 A 
ATOM      5  C   UNL     1       2.202   6.855  19.030  0.00  0.00    +0.000 A 
ATOM      6  C   UNL     1       2.135   6.756  20.426  0.00  0.00    +0.000 A 
ATOM      7  C   UNL     1       1.770   5.556  21.053  0.00  0.00    +0.000 A 
BRANCH   5   8
ATOM      8  N   UNL     1       2.673   7.988  18.353  0.00  0.00    +0.000 N 
ATOM      9  H   UNL     1       3.556   7.809  17.881  0.00  0.00    +0.000 HD
BRANCH   8  10
ATOM     10  C   UNL     1       1.759   8.729  17.497  0.00  0.00    +0.000 C 
BRANCH  10  11
ATOM     11  C   UNL     1       1.375  10.039  18.154  0.00  0.00    +0.000 A 
ATOM     12  C   UNL     1       2.270  11.115  18.185  0.00  0.00    +0.000 A 
ATOM     13  C   UNL     1       1.860  12.365  18.659  0.00  0.00    +0.000 A 
ATOM     14  C   UNL     1       0.548  12.567  19.113  0.00  0.00    +0.000 A 
ATOM     15  C   UNL     1       0.096  13.839  19.503  0.00  0.00    +0.000 A 
ATOM     16  C   UNL     1      -1.213  14.026  19.951  0.00  0.00    +0.000 A 
ATOM     17  C   UNL     1      -2.075  12.938  20.047  0.00  0.00    +0.000 A 
ATOM     18  C   UNL     1      -1.643  11.668  19.656  0.00  0.00    +0.000 A 
ATOM     19  C   UNL     1      -0.343  11.472  19.159  0.00  0.00    +0.000 A 
ATOM     20  C   UNL     1       0.084  10.221  18.679  0.00  0.00    +0.000 A 
ENDBRANCH  10  11
ENDBRANCH   8  10
ENDBRANCH   5   8
ENDBRANCH   1   2
BRANCH   1  21
ATOM     21  C   UNL     1       2.268   2.082  20.890  0.00  0.00    +0.000 C 
BRANCH  21  22
ATOM     22  N   UNL     1       3.578   2.713  21.117  0.00  0.00    +0.000 NA
ATOM     23  H   UNL     1       3.471   3.730  21.027  0.00  0.00    +0.000 HD
BRANCH  22  24
ATOM     24  C   UNL     1       4.540   2.259  20.083  0.00  0.00    +0.000 C 
BRANCH  24  25
ATOM     25  C   UNL     1       4.069   2.643  18.652  0.00  0.00    +0.000 C 
BRANCH  25  28
ATOM     26  C   UNL     1       6.757   5.337  18.190  0.00  0.00    +0.000 A 
ATOM     27  C   UNL     1       5.871   4.413  18.765  0.00  0.00    +0.000 A 
ATOM     28  C   UNL     1       4.951   3.687  17.989  0.00  0.00    +0.000 A 
ATOM     29  C   UNL     1       4.891   3.949  16.613  0.00  0.00    +0.000 A 
ATOM     30  C   UNL     1       5.752   4.875  16.023  0.00  0.00    +0.000 A 
ATOM     31  C   UNL     1       6.681   5.552  16.810  0.00  0.00    +0.000 A 
BRANCH  31  32
ATOM     32  O   UNL     1       7.542   6.447  16.237  0.00  0.00    +0.000 OA
ATOM     33  H   UNL     1       7.302   6.545  15.300  0.00  0.00    +0.000 HD
ENDBRANCH  31  32
BRANCH  26  34
ATOM     34  C   UNL     1       7.770   6.084  19.017  0.00  0.00    +0.000 C 
BRANCH  34  35
ATOM     35  O   UNL     1       7.983   5.465  20.287  0.00  0.00    +0.000 OA
ATOM     36  H   UNL     1       7.274   5.793  20.866  0.00  0.00    +0.000 HD
ENDBRANCH  34  35
ENDBRANCH  26  34
ENDBRANCH  25  28
BRANCH  25  37
ATOM     37  O   UNL     1       4.014   1.447  17.865  0.00  0.00    +0.000 OA
ATOM     38  H   UNL     1       3.067   1.204  17.864  0.00  0.00    +0.000 HD
ENDBRANCH  25  37
ENDBRANCH  24  25
ENDBRANCH  22  24
ENDBRANCH  21  22
ENDBRANCH   1  21
TORSDOF 13
ENDMDL
MODEL 7
REMARK VINA RESULT:      -7.7      2.680      3.857
REMARK  Name = 
REMARK  13 active torsions:
REMARK  status: ('A' for Active; 'I' for Inactive)
REMARK    1  A    between atoms: O_1  and  C_2
REMARK    2  A    between atoms: C_2  and  C_3
REMARK    3  A    between atoms: C_5  and  C_6
REMARK    4  A    between atoms: C_6  and  O_7
REMARK    5  A    between atoms: C_6  and  C_8
REMARK    6  A    between atoms: C_8  and  N_9
REMARK    7  A    between atoms: N_9  and  C_10
REMARK    8  A    between atoms: C_10  and  C_11
REMARK    9  A    between atoms: C_11  and  C_12
REMARK   10  A    between atoms: C_15  and  N_16
REMARK   11  A    between atoms: N_16  and  C_17
REMARK   12  A    between atoms: C_17  and  C_18
REMARK   13  A    between atoms: C_32  and  O_33
REMARK                            x       y       z     vdW  Elec       q    Type
REMARK                         _______ _______ _______ _____ _____    ______ ____
ROOT
ATOM      1  C   UNL     1       1.939   5.379  20.996  0.00  0.00    +0.000 C 
ENDROOT
BRANCH   1   2
ATOM      2  C   UNL     1       1.859   6.688  20.240  0.00  0.00    +0.000 A 
ATOM      3  C   UNL     1       1.271   7.815  20.822  0.00  0.00    +0.000 A 
ATOM      4  C   UNL     1       1.146   9.007  20.103  0.00  0.00    +0.000 A 
ATOM      5  C   UNL     1       1.645   9.133  18.800  0.00  0.00    +0.000 A 
ATOM      6  C   UNL     1       2.232   8.000  18.222  0.00  0.00    +0.000 A 
ATOM      7  C   UNL     1       2.344   6.797  18.932  0.00  0.00    +0.000 A 
BRANCH   5   8
ATOM      8  N   UNL     1       1.399  10.323  18.102  0.00  0.00    +0.000 N 
ATOM      9  H   UNL     1       1.276  10.161  17.106  0.00  0.00    +0.000 HD
BRANCH   8  10
ATOM     10  C   UNL     1       0.396  11.246  18.613  0.00  0.00    +0.000 C 
BRANCH  10  11
ATOM     11  C   UNL     1       0.958  12.652  18.664  0.00  0.00    +0.000 A 
ATOM     12  C   UNL     1       2.317  12.890  18.431  0.00  0.00    +0.000 A 
ATOM     13  C   UNL     1       2.802  14.197  18.332  0.00  0.00    +0.000 A 
ATOM     14  C   UNL     1       1.939  15.296  18.465  0.00  0.00    +0.000 A 
ATOM     15  C   UNL     1       2.395  16.611  18.275  0.00  0.00    +0.000 A 
ATOM     16  C   UNL     1       1.525  17.695  18.408  0.00  0.00    +0.000 A 
ATOM     17  C   UNL     1       0.198  17.478  18.767  0.00  0.00    +0.000 A 
ATOM     18  C   UNL     1      -0.272  16.176  18.953  0.00  0.00    +0.000 A 
ATOM     19  C   UNL     1       0.580  15.072  18.776  0.00  0.00    +0.000 A 
ATOM     20  C   UNL     1       0.107  13.751  18.872  0.00  0.00    +0.000 A 
ENDBRANCH  10  11
ENDBRANCH   8  10
ENDBRANCH   5   8
ENDBRANCH   1   2
BRANCH   1  21
ATOM     21  C   UNL     1       1.410   4.195  20.166  0.00  0.00    +0.000 C 
BRANCH  21  22
ATOM     22  N   UNL     1       2.504   3.338  19.684  0.00  0.00    +0.000 NA
ATOM     23  H   UNL     1       3.396   3.743  19.989  0.00  0.00    +0.000 HD
BRANCH  22  24
ATOM     24  C   UNL     1       2.498   3.304  18.201  0.00  0.00    +0.000 C 
BRANCH  24  25
ATOM     25  C   UNL     1       3.841   2.764  17.633  0.00  0.00    +0.000 C 
BRANCH  25  28
ATOM     26  C   UNL     1       6.601   5.401  17.981  0.00  0.00    +0.000 A 
ATOM     27  C   UNL     1       5.626   4.435  18.274  0.00  0.00    +0.000 A 
ATOM     28  C   UNL     1       4.826   3.862  17.270  0.00  0.00    +0.000 A 
ATOM     29  C   UNL     1       4.980   4.321  15.955  0.00  0.00    +0.000 A 
ATOM     30  C   UNL     1       5.933   5.293  15.644  0.00  0.00    +0.000 A 
ATOM     31  C   UNL     1       6.738   5.816  16.652  0.00  0.00    +0.000 A 
BRANCH  31  32
ATOM     32  O   UNL     1       7.688   6.754  16.353  0.00  0.00    +0.000 OA
ATOM     33  H   UNL     1       7.894   7.250  17.164  0.00  0.00    +0.000 HD
ENDBRANCH  31  32
BRANCH  26  34
ATOM     34  C   UNL     1       7.485   5.985  19.051  0.00  0.00    +0.000 C 
BRANCH  34  35
ATOM     35  O   UNL     1       7.526   5.161  20.218  0.00  0.00    +0.000 OA
ATOM     36  H   UNL     1       8.468   5.016  20.410  0.00  0.00    +0.000 HD
ENDBRANCH  34  35
ENDBRANCH  26  34
ENDBRANCH  25  28
BRANCH  25  37
ATOM     37  O   UNL     1       4.405   1.869  18.599  0.00  0.00    +0.000 OA
ATOM     38  H   UNL     1       4.100   2.222  19.459  0.00  0.00    +0.000 HD
ENDBRANCH  25  37
ENDBRANCH  24  25
ENDBRANCH  22  24
ENDBRANCH  21  22
ENDBRANCH   1  21
TORSDOF 13
ENDMDL
MODEL 8
REMARK VINA RESULT:      -7.7      2.686      4.415
REMARK  Name = 
REMARK  13 active torsions:
REMARK  status: ('A' for Active; 'I' for Inactive)
REMARK    1  A    between atoms: O_1  and  C_2
REMARK    2  A    between atoms: C_2  and  C_3
REMARK    3  A    between atoms: C_5  and  C_6
REMARK    4  A    between atoms: C_6  and  O_7
REMARK    5  A    between atoms: C_6  and  C_8
REMARK    6  A    between atoms: C_8  and  N_9
REMARK    7  A    between atoms: N_9  and  C_10
REMARK    8  A    between atoms: C_10  and  C_11
REMARK    9  A    between atoms: C_11  and  C_12
REMARK   10  A    between atoms: C_15  and  N_16
REMARK   11  A    between atoms: N_16  and  C_17
REMARK   12  A    between atoms: C_17  and  C_18
REMARK   13  A    between atoms: C_32  and  O_33
REMARK                            x       y       z     vdW  Elec       q    Type
REMARK                         _______ _______ _______ _____ _____    ______ ____
ROOT
ATOM      1  C   UNL     1       2.312   5.417  20.499  0.00  0.00    +0.000 C 
ENDROOT
BRANCH   1   2
ATOM      2  C   UNL     1       2.085   6.763  19.846  0.00  0.00    +0.000 A 
ATOM      3  C   UNL     1       1.517   7.820  20.563  0.00  0.00    +0.000 A 
ATOM      4  C   UNL     1       1.256   9.045  19.943  0.00  0.00    +0.000 A 
ATOM      5  C   UNL     1       1.595   9.276  18.604  0.00  0.00    +0.000 A 
ATOM      6  C   UNL     1       2.163   8.213  17.890  0.00  0.00    +0.000 A 
ATOM      7  C   UNL     1       2.411   6.976  18.502  0.00  0.00    +0.000 A 
BRANCH   5   8
ATOM      8  N   UNL     1       1.216  10.492  18.019  0.00  0.00    +0.000 N 
ATOM      9  H   UNL     1       1.004  10.388  17.030  0.00  0.00    +0.000 HD
BRANCH   8  10
ATOM     10  C   UNL     1       0.220  11.316  18.688  0.00  0.00    +0.000 C 
BRANCH  10  11
ATOM     11  C   UNL     1       0.680  12.759  18.731  0.00  0.00    +0.000 A 
ATOM     12  C   UNL     1      -0.239  13.808  18.622  0.00  0.00    +0.000 A 
ATOM     13  C   UNL     1       0.170  15.132  18.810  0.00  0.00    +0.000 A 
ATOM     14  C   UNL     1       1.507  15.436  19.111  0.00  0.00    +0.000 A 
ATOM     15  C   UNL     1       1.913  16.750  19.395  0.00  0.00    +0.000 A 
ATOM     16  C   UNL     1       3.245  17.038  19.695  0.00  0.00    +0.000 A 
ATOM     17  C   UNL     1       4.194  16.020  19.680  0.00  0.00    +0.000 A 
ATOM     18  C   UNL     1       3.806  14.707  19.406  0.00  0.00    +0.000 A 
ATOM     19  C   UNL     1       2.460  14.394  19.149  0.00  0.00    +0.000 A 
ATOM     20  C   UNL     1       2.033  13.067  18.957  0.00  0.00    +0.000 A 
ENDBRANCH  10  11
ENDBRANCH   8  10
ENDBRANCH   5   8
ENDBRANCH   1   2
BRANCH   1  21
ATOM     21  C   UNL     1       1.267   4.375  20.060  0.00  0.00    +0.000 C 
BRANCH  21  22
ATOM     22  N   UNL     1       1.725   3.002  20.324  0.00  0.00    +0.000 NA
ATOM     23  H   UNL     1       1.226   2.642  21.145  0.00  0.00    +0.000 HD
BRANCH  22  24
ATOM     24  C   UNL     1       3.176   3.008  20.636  0.00  0.00    +0.000 C 
BRANCH  24  25
ATOM     25  C   UNL     1       4.015   2.392  19.482  0.00  0.00    +0.000 C 
BRANCH  25  28
ATOM     26  C   UNL     1       6.132   5.095  17.777  0.00  0.00    +0.000 A 
ATOM     27  C   UNL     1       5.623   4.187  18.718  0.00  0.00    +0.000 A 
ATOM     28  C   UNL     1       4.476   3.416  18.459  0.00  0.00    +0.000 A 
ATOM     29  C   UNL     1       3.803   3.615  17.246  0.00  0.00    +0.000 A 
ATOM     30  C   UNL     1       4.282   4.525  16.303  0.00  0.00    +0.000 A 
ATOM     31  C   UNL     1       5.442   5.248  16.569  0.00  0.00    +0.000 A 
BRANCH  31  32
ATOM     32  O   UNL     1       5.930   6.127  15.642  0.00  0.00    +0.000 OA
ATOM     33  H   UNL     1       6.046   6.992  16.071  0.00  0.00    +0.000 HD
ENDBRANCH  31  32
BRANCH  26  34
ATOM     34  C   UNL     1       7.383   5.891  18.039  0.00  0.00    +0.000 C 
BRANCH  34  35
ATOM     35  O   UNL     1       7.213   7.273  17.719  0.00  0.00    +0.000 OA
ATOM     36  H   UNL     1       6.273   7.469  17.872  0.00  0.00    +0.000 HD
ENDBRANCH  34  35
ENDBRANCH  26  34
ENDBRANCH  25  28
BRANCH  25  37
ATOM     37  O   UNL     1       5.134   1.708  20.061  0.00  0.00    +0.000 OA
ATOM     38  H   UNL     1       5.052   0.791  19.730  0.00  0.00    +0.000 HD
ENDBRANCH  25  37
ENDBRANCH  24  25
ENDBRANCH  22  24
ENDBRANCH  21  22
ENDBRANCH   1  21
TORSDOF 13
ENDMDL
MODEL 9
REMARK VINA RESULT:      -7.7      4.702      9.145
REMARK  Name = 
REMARK  13 active torsions:
REMARK  status: ('A' for Active; 'I' for Inactive)
REMARK    1  A    between atoms: O_1  and  C_2
REMARK    2  A    between atoms: C_2  and  C_3
REMARK    3  A    between atoms: C_5  and  C_6
REMARK    4  A    between atoms: C_6  and  O_7
REMARK    5  A    between atoms: C_6  and  C_8
REMARK    6  A    between atoms: C_8  and  N_9
REMARK    7  A    between atoms: N_9  and  C_10
REMARK    8  A    between atoms: C_10  and  C_11
REMARK    9  A    between atoms: C_11  and  C_12
REMARK   10  A    between atoms: C_15  and  N_16
REMARK   11  A    between atoms: N_16  and  C_17
REMARK   12  A    between atoms: C_17  and  C_18
REMARK   13  A    between atoms: C_32  and  O_33
REMARK                            x       y       z     vdW  Elec       q    Type
REMARK                         _______ _______ _______ _____ _____    ______ ____
ROOT
ATOM      1  C   UNL     1       4.379   4.041  17.075  0.00  0.00    +0.000 C 
ENDROOT
BRANCH   1   2
ATOM      2  C   UNL     1       5.316   5.227  17.145  0.00  0.00    +0.000 A 
ATOM      3  C   UNL     1       6.413   5.221  18.011  0.00  0.00    +0.000 A 
ATOM      4  C   UNL     1       7.245   6.339  18.117  0.00  0.00    +0.000 A 
ATOM      5  C   UNL     1       7.044   7.480  17.330  0.00  0.00    +0.000 A 
ATOM      6  C   UNL     1       5.942   7.480  16.464  0.00  0.00    +0.000 A 
ATOM      7  C   UNL     1       5.094   6.369  16.367  0.00  0.00    +0.000 A 
BRANCH   5   8
ATOM      8  N   UNL     1       7.855   8.600  17.557  0.00  0.00    +0.000 N 
ATOM      9  H   UNL     1       7.349   9.471  17.416  0.00  0.00    +0.000 HD
BRANCH   8  10
ATOM     10  C   UNL     1       8.666   8.651  18.765  0.00  0.00    +0.000 C 
BRANCH  10  11
ATOM     11  C   UNL     1       9.189  10.056  18.983  0.00  0.00    +0.000 A 
ATOM     12  C   UNL     1       9.574  10.855  17.901  0.00  0.00    +0.000 A 
ATOM     13  C   UNL     1       9.914  12.197  18.094  0.00  0.00    +0.000 A 
ATOM     14  C   UNL     1       9.879  12.770  19.375  0.00  0.00    +0.000 A 
ATOM     15  C   UNL     1      10.127  14.139  19.571  0.00  0.00    +0.000 A 
ATOM     16  C   UNL     1      10.087  14.696  20.850  0.00  0.00    +0.000 A 
ATOM     17  C   UNL     1       9.832  13.885  21.952  0.00  0.00    +0.000 A 
ATOM     18  C   UNL     1       9.576  12.524  21.773  0.00  0.00    +0.000 A 
ATOM     19  C   UNL     1       9.567  11.957  20.486  0.00  0.00    +0.000 A 
ATOM     20  C   UNL     1       9.226  10.608  20.275  0.00  0.00    +0.000 A 
ENDBRANCH  10  11
ENDBRANCH   8  10
ENDBRANCH   5   8
ENDBRANCH   1   2
BRANCH   1  21
ATOM     21  C   UNL     1       4.282   3.297  18.419  0.00  0.00    +0.000 C 
BRANCH  21  22
ATOM     22  N   UNL     1       2.926   3.374  18.986  0.00  0.00    +0.000 NA
ATOM     23  H   UNL     1       2.346   2.651  18.546  0.00  0.00    +0.000 HD
BRANCH  22  24
ATOM     24  C   UNL     1       2.327   4.695  18.677  0.00  0.00    +0.000 C 
BRANCH  24  25
ATOM     25  C   UNL     1       2.825   5.795  19.656  0.00  0.00    +0.000 C 
BRANCH  25  28
ATOM     26  C   UNL     1       1.085   9.174  20.160  0.00  0.00    +0.000 A 
ATOM     27  C   UNL     1       1.569   7.873  20.364  0.00  0.00    +0.000 A 
ATOM     28  C   UNL     1       2.253   7.171  19.356  0.00  0.00    +0.000 A 
ATOM     29  C   UNL     1       2.397   7.781  18.102  0.00  0.00    +0.000 A 
ATOM     30  C   UNL     1       1.909   9.068  17.873  0.00  0.00    +0.000 A 
ATOM     31  C   UNL     1       1.268   9.756  18.901  0.00  0.00    +0.000 A 
BRANCH  31  32
ATOM     32  O   UNL     1       0.805  11.025  18.692  0.00  0.00    +0.000 OA
ATOM     33  H   UNL     1       1.556  11.587  18.435  0.00  0.00    +0.000 HD
ENDBRANCH  31  32
BRANCH  26  34
ATOM     34  C   UNL     1       0.388   9.940  21.253  0.00  0.00    +0.000 C 
BRANCH  34  35
ATOM     35  O   UNL     1       1.053  11.169  21.552  0.00  0.00    +0.000 OA
ATOM     36  H   UNL     1       0.870  11.761  20.803  0.00  0.00    +0.000 HD
ENDBRANCH  34  35
ENDBRANCH  26  34
ENDBRANCH  25  28
BRANCH  25  37
ATOM     37  O   UNL     1       2.497   5.385  20.989  0.00  0.00    +0.000 OA
ATOM     38  H   UNL     1       2.834   4.469  21.048  0.00  0.00    +0.000 HD
ENDBRANCH  25  37
ENDBRANCH  24  25
ENDBRANCH  22  24
ENDBRANCH  21  22
ENDBRANCH   1  21
TORSDOF 13
ENDMDL
