MODEL 1
REMARK VINA RESULT:      -8.1      0.000      0.000
REMARK  Name = 
REMARK  3 active torsions:
REMARK  status: ('A' for Active; 'I' for Inactive)
REMARK    1  A    between atoms: C_1  and  C_2
REMARK    2  A    between atoms: C_5  and  C_6
REMARK    3  A    between atoms: C_20  and  C_22
REMARK                            x       y       z     vdW  Elec       q    Type
REMARK                         _______ _______ _______ _____ _____    ______ ____
ROOT
ATOM      1  C   UNL     1       3.051   2.549  21.177  0.00  0.00    +0.000 C 
ATOM      2  C   UNL     1       2.964   4.048  20.920  0.00  0.00    +0.000 C 
ATOM      3  C   UNL     1       3.448   4.347  19.505  0.00  0.00    +0.000 C 
ATOM      4  C   UNL     1       3.156   5.755  19.054  0.00  0.00    +0.000 A 
ATOM      5  C   UNL     1       3.785   6.345  17.945  0.00  0.00    +0.000 A 
ATOM      6  N   UNL     1       3.510   7.627  17.598  0.00  0.00    +0.000 NA
ATOM      7  C   UNL     1       2.596   8.336  18.304  0.00  0.00    +0.000 A 
ATOM      8  C   UNL     1       1.902   7.818  19.395  0.00  0.00    +0.000 A 
ATOM      9  C   UNL     1       2.173   6.488  19.763  0.00  0.00    +0.000 A 
ATOM     10  C   UNL     1       1.462   5.859  20.946  0.00  0.00    +0.000 C 
ATOM     11  O   UNL     1       1.593   4.438  21.016  0.00  0.00    +0.000 OA
ATOM     12  C   UNL     1       0.863   8.649  20.116  0.00  0.00    +0.000 C 
ATOM     13  N   UNL     1       0.922  10.076  19.798  0.00  0.00    +0.000 N 
ATOM     14  C   UNL     1       0.779  10.981  20.854  0.00  0.00    +0.000 C 
ATOM     15  O   UNL     1       0.640  10.609  22.018  0.00  0.00    +0.000 OA
ATOM     16  C   UNL     1       1.129  10.364  18.379  0.00  0.00    +0.000 C 
ATOM     17  C   UNL     1       2.432   9.763  17.879  0.00  0.00    +0.000 C 
ENDROOT
BRANCH   5  18
ATOM     18  C   UNL     1       4.788   5.700  17.054  0.00  0.00    +0.000 A 
ATOM     19  C   UNL     1       4.488   4.621  16.198  0.00  0.00    +0.000 A 
ATOM     20  C   UNL     1       5.457   4.006  15.396  0.00  0.00    +0.000 A 
ATOM     21  C   UNL     1       6.756   4.495  15.376  0.00  0.00    +0.000 A 
ATOM     22  C   UNL     1       7.082   5.595  16.160  0.00  0.00    +0.000 A 
ATOM     23  C   UNL     1       6.114   6.178  16.991  0.00  0.00    +0.000 A 
ENDBRANCH   5  18
BRANCH  14  24
ATOM     24  C   UNL     1       0.833  12.444  20.639  0.00  0.00    +0.000 A 
ATOM     25  C   UNL     1      -0.353  13.140  20.388  0.00  0.00    +0.000 A 
ATOM     26  C   UNL     1      -0.320  14.520  20.205  0.00  0.00    +0.000 A 
ATOM     27  C   UNL     1       0.906  15.163  20.280  0.00  0.00    +0.000 A 
ATOM     28  N   UNL     1       2.078  14.515  20.457  0.00  0.00    +0.000 NA
ATOM     29  C   UNL     1       2.014  13.167  20.590  0.00  0.00    +0.000 A 
ENDBRANCH  14  24
TORSDOF 2
ENDMDL
MODEL 2
REMARK VINA RESULT:      -8.0      0.506      1.258
REMARK  Name = 
REMARK  3 active torsions:
REMARK  status: ('A' for Active; 'I' for Inactive)
REMARK    1  A    between atoms: C_1  and  C_2
REMARK    2  A    between atoms: C_5  and  C_6
REMARK    3  A    between atoms: C_20  and  C_22
REMARK                            x       y       z     vdW  Elec       q    Type
REMARK                         _______ _______ _______ _____ _____    ______ ____
ROOT
ATOM      1  C   UNL     1       3.068   2.561  21.122  0.00  0.00    +0.000 C 
ATOM      2  C   UNL     1       2.978   4.061  20.870  0.00  0.00    +0.000 C 
ATOM      3  C   UNL     1       3.462   4.366  19.456  0.00  0.00    +0.000 C 
ATOM      4  C   UNL     1       3.168   5.775  19.011  0.00  0.00    +0.000 A 
ATOM      5  C   UNL     1       3.795   6.371  17.904  0.00  0.00    +0.000 A 
ATOM      6  N   UNL     1       3.518   7.653  17.561  0.00  0.00    +0.000 NA
ATOM      7  C   UNL     1       2.604   8.358  18.270  0.00  0.00    +0.000 A 
ATOM      8  C   UNL     1       1.911   7.836  19.360  0.00  0.00    +0.000 A 
ATOM      9  C   UNL     1       2.184   6.505  19.723  0.00  0.00    +0.000 A 
ATOM     10  C   UNL     1       1.474   5.870  20.903  0.00  0.00    +0.000 C 
ATOM     11  O   UNL     1       1.607   4.449  20.968  0.00  0.00    +0.000 OA
ATOM     12  C   UNL     1       0.871   8.662  20.085  0.00  0.00    +0.000 C 
ATOM     13  N   UNL     1       0.928  10.090  19.772  0.00  0.00    +0.000 N 
ATOM     14  C   UNL     1       0.784  10.991  20.832  0.00  0.00    +0.000 C 
ATOM     15  O   UNL     1       0.646  10.614  21.994  0.00  0.00    +0.000 OA
ATOM     16  C   UNL     1       1.134  10.384  18.354  0.00  0.00    +0.000 C 
ATOM     17  C   UNL     1       2.437   9.787  17.851  0.00  0.00    +0.000 C 
ENDROOT
BRANCH   5  18
ATOM     18  C   UNL     1       4.798   5.730  17.010  0.00  0.00    +0.000 A 
ATOM     19  C   UNL     1       6.146   6.136  16.936  0.00  0.00    +0.000 A 
ATOM     20  C   UNL     1       7.062   5.543  16.059  0.00  0.00    +0.000 A 
ATOM     21  C   UNL     1       6.674   4.471  15.267  0.00  0.00    +0.000 A 
ATOM     22  C   UNL     1       5.370   3.999  15.351  0.00  0.00    +0.000 A 
ATOM     23  C   UNL     1       4.448   4.627  16.202  0.00  0.00    +0.000 A 
ENDBRANCH   5  18
BRANCH  14  24
ATOM     24  C   UNL     1       0.836  12.455  20.622  0.00  0.00    +0.000 A 
ATOM     25  C   UNL     1       2.079  13.095  20.598  0.00  0.00    +0.000 A 
ATOM     26  C   UNL     1       2.145  14.470  20.380  0.00  0.00    +0.000 A 
ATOM     27  C   UNL     1       0.959  15.162  20.193  0.00  0.00    +0.000 A 
ATOM     28  N   UNL     1      -0.261  14.587  20.275  0.00  0.00    +0.000 NA
ATOM     29  C   UNL     1      -0.291  13.256  20.529  0.00  0.00    +0.000 A 
ENDBRANCH  14  24
TORSDOF 2
ENDMDL
MODEL 3
REMARK VINA RESULT:      -8.0      1.103      1.527
REMARK  Name = 
REMARK  3 active torsions:
REMARK  status: ('A' for Active; 'I' for Inactive)
REMARK    1  A    between atoms: C_1  and  C_2
REMARK    2  A    between atoms: C_5  and  C_6
REMARK    3  A    between atoms: C_20  and  C_22
REMARK                            x       y       z     vdW  Elec       q    Type
REMARK                         _______ _______ _______ _____ _____    ______ ____
ROOT
ATOM      1  C   UNL     1       4.459   1.759  20.531  0.00  0.00    +0.000 C 
ATOM      2  C   UNL     1       4.115   3.240  20.440  0.00  0.00    +0.000 C 
ATOM      3  C   UNL     1       4.363   3.730  19.017  0.00  0.00    +0.000 C 
ATOM      4  C   UNL     1       3.807   5.104  18.748  0.00  0.00    +0.000 A 
ATOM      5  C   UNL     1       4.191   5.878  17.641  0.00  0.00    +0.000 A 
ATOM      6  N   UNL     1       3.684   7.123  17.459  0.00  0.00    +0.000 NA
ATOM      7  C   UNL     1       2.773   7.614  18.333  0.00  0.00    +0.000 A 
ATOM      8  C   UNL     1       2.311   6.902  19.438  0.00  0.00    +0.000 A 
ATOM      9  C   UNL     1       2.824   5.608  19.635  0.00  0.00    +0.000 A 
ATOM     10  C   UNL     1       2.373   4.776  20.821  0.00  0.00    +0.000 C 
ATOM     11  O   UNL     1       2.725   3.395  20.730  0.00  0.00    +0.000 OA
ATOM     12  C   UNL     1       1.260   7.491  20.354  0.00  0.00    +0.000 C 
ATOM     13  N   UNL     1       1.063   8.930  20.179  0.00  0.00    +0.000 N 
ATOM     14  C   UNL     1       0.922   9.710  21.331  0.00  0.00    +0.000 C 
ATOM     15  O   UNL     1       0.992   9.225  22.458  0.00  0.00    +0.000 OA
ATOM     16  C   UNL     1       1.040   9.365  18.781  0.00  0.00    +0.000 C 
ATOM     17  C   UNL     1       2.343   9.026  18.078  0.00  0.00    +0.000 C 
ENDROOT
BRANCH   5  18
ATOM     18  C   UNL     1       5.157   5.480  16.580  0.00  0.00    +0.000 A 
ATOM     19  C   UNL     1       6.532   5.787  16.623  0.00  0.00    +0.000 A 
ATOM     20  C   UNL     1       7.414   5.434  15.595  0.00  0.00    +0.000 A 
ATOM     21  C   UNL     1       6.959   4.699  14.510  0.00  0.00    +0.000 A 
ATOM     22  C   UNL     1       5.622   4.322  14.454  0.00  0.00    +0.000 A 
ATOM     23  C   UNL     1       4.738   4.716  15.469  0.00  0.00    +0.000 A 
ENDBRANCH   5  18
BRANCH  14  24
ATOM     24  C   UNL     1       0.728  11.175  21.261  0.00  0.00    +0.000 A 
ATOM     25  C   UNL     1      -0.356  11.751  21.931  0.00  0.00    +0.000 A 
ATOM     26  C   UNL     1      -0.539  13.131  21.892  0.00  0.00    +0.000 A 
ATOM     27  C   UNL     1       0.374  13.894  21.181  0.00  0.00    +0.000 A 
ATOM     28  N   UNL     1       1.394  13.366  20.470  0.00  0.00    +0.000 NA
ATOM     29  C   UNL     1       1.519  12.017  20.495  0.00  0.00    +0.000 A 
ENDBRANCH  14  24
TORSDOF 2
ENDMDL
MODEL 4
REMARK VINA RESULT:      -7.9      0.945      1.182
REMARK  Name = 
REMARK  3 active torsions:
REMARK  status: ('A' for Active; 'I' for Inactive)
REMARK    1  A    between atoms: C_1  and  C_2
REMARK    2  A    between atoms: C_5  and  C_6
REMARK    3  A    between atoms: C_20  and  C_22
REMARK                            x       y       z     vdW  Elec       q    Type
REMARK                         _______ _______ _______ _____ _____    ______ ____
ROOT
ATOM      1  C   UNL     1       4.104   2.076  20.669  0.00  0.00    +0.000 C 
ATOM      2  C   UNL     1       3.829   3.567  20.511  0.00  0.00    +0.000 C 
ATOM      3  C   UNL     1       4.123   3.985  19.074  0.00  0.00    +0.000 C 
ATOM      4  C   UNL     1       3.634   5.370  18.739  0.00  0.00    +0.000 A 
ATOM      5  C   UNL     1       4.072   6.080  17.608  0.00  0.00    +0.000 A 
ATOM      6  N   UNL     1       3.625   7.337  17.367  0.00  0.00    +0.000 NA
ATOM      7  C   UNL     1       2.723   7.904  18.202  0.00  0.00    +0.000 A 
ATOM      8  C   UNL     1       2.209   7.260  19.327  0.00  0.00    +0.000 A 
ATOM      9  C   UNL     1       2.660   5.954  19.586  0.00  0.00    +0.000 A 
ATOM     10  C   UNL     1       2.152   5.193  20.796  0.00  0.00    +0.000 C 
ATOM     11  O   UNL     1       2.443   3.794  20.768  0.00  0.00    +0.000 OA
ATOM     12  C   UNL     1       1.171   7.933  20.198  0.00  0.00    +0.000 C 
ATOM     13  N   UNL     1       1.042   9.371  19.960  0.00  0.00    +0.000 N 
ATOM     14  C   UNL     1       0.917  10.203  21.076  0.00  0.00    +0.000 C 
ATOM     15  O   UNL     1       0.945   9.763  22.224  0.00  0.00    +0.000 OA
ATOM     16  C   UNL     1       1.063   9.747  18.546  0.00  0.00    +0.000 C 
ATOM     17  C   UNL     1       2.361   9.322  17.882  0.00  0.00    +0.000 C 
ENDROOT
BRANCH   5  18
ATOM     18  C   UNL     1       5.037   5.595  16.583  0.00  0.00    +0.000 A 
ATOM     19  C   UNL     1       4.664   4.816  15.470  0.00  0.00    +0.000 A 
ATOM     20  C   UNL     1       5.595   4.340  14.539  0.00  0.00    +0.000 A 
ATOM     21  C   UNL     1       6.934   4.683  14.657  0.00  0.00    +0.000 A 
ATOM     22  C   UNL     1       7.339   5.500  15.706  0.00  0.00    +0.000 A 
ATOM     23  C   UNL     1       6.404   5.937  16.657  0.00  0.00    +0.000 A 
ENDBRANCH   5  18
BRANCH  14  24
ATOM     24  C   UNL     1       0.790  11.671  20.943  0.00  0.00    +0.000 A 
ATOM     25  C   UNL     1       1.898  12.415  20.527  0.00  0.00    +0.000 A 
ATOM     26  C   UNL     1       1.787  13.796  20.377  0.00  0.00    +0.000 A 
ATOM     27  C   UNL     1       0.565  14.389  20.649  0.00  0.00    +0.000 A 
ATOM     28  N   UNL     1      -0.507  13.711  21.114  0.00  0.00    +0.000 NA
ATOM     29  C   UNL     1      -0.352  12.376  21.289  0.00  0.00    +0.000 A 
ENDBRANCH  14  24
TORSDOF 2
ENDMDL
MODEL 5
REMARK VINA RESULT:      -7.3      3.011      8.243
REMARK  Name = 
REMARK  3 active torsions:
REMARK  status: ('A' for Active; 'I' for Inactive)
REMARK    1  A    between atoms: C_1  and  C_2
REMARK    2  A    between atoms: C_5  and  C_6
REMARK    3  A    between atoms: C_20  and  C_22
REMARK                            x       y       z     vdW  Elec       q    Type
REMARK                         _______ _______ _______ _____ _____    ______ ____
ROOT
ATOM      1  C   UNL     1       1.036   2.763  22.223  0.00  0.00    +0.000 C 
ATOM      2  C   UNL     1       1.723   3.248  20.952  0.00  0.00    +0.000 C 
ATOM      3  C   UNL     1       1.752   4.773  20.944  0.00  0.00    +0.000 C 
ATOM      4  C   UNL     1       2.637   5.351  19.871  0.00  0.00    +0.000 A 
ATOM      5  C   UNL     1       2.566   6.695  19.467  0.00  0.00    +0.000 A 
ATOM      6  N   UNL     1       3.364   7.161  18.475  0.00  0.00    +0.000 NA
ATOM      7  C   UNL     1       4.264   6.334  17.889  0.00  0.00    +0.000 A 
ATOM      8  C   UNL     1       4.425   4.998  18.250  0.00  0.00    +0.000 A 
ATOM      9  C   UNL     1       3.607   4.503  19.282  0.00  0.00    +0.000 A 
ATOM     10  C   UNL     1       3.721   3.057  19.724  0.00  0.00    +0.000 C 
ATOM     11  O   UNL     1       3.070   2.775  20.964  0.00  0.00    +0.000 OA
ATOM     12  C   UNL     1       5.477   4.138  17.585  0.00  0.00    +0.000 C 
ATOM     13  N   UNL     1       6.021   4.714  16.355  0.00  0.00    +0.000 N 
ATOM     14  C   UNL     1       6.212   3.857  15.267  0.00  0.00    +0.000 C 
ATOM     15  O   UNL     1       5.910   2.666  15.315  0.00  0.00    +0.000 OA
ATOM     16  C   UNL     1       6.296   6.149  16.438  0.00  0.00    +0.000 C 
ATOM     17  C   UNL     1       5.035   6.935  16.753  0.00  0.00    +0.000 C 
ENDROOT
BRANCH   5  18
ATOM     18  C   UNL     1       1.656   7.734  20.022  0.00  0.00    +0.000 A 
ATOM     19  C   UNL     1       1.150   7.704  21.337  0.00  0.00    +0.000 A 
ATOM     20  C   UNL     1       0.265   8.673  21.825  0.00  0.00    +0.000 A 
ATOM     21  C   UNL     1      -0.096   9.750  21.027  0.00  0.00    +0.000 A 
ATOM     22  C   UNL     1       0.426   9.852  19.743  0.00  0.00    +0.000 A 
ATOM     23  C   UNL     1       1.279   8.854  19.250  0.00  0.00    +0.000 A 
ENDBRANCH   5  18
BRANCH  14  24
ATOM     24  C   UNL     1       6.747   4.343  13.976  0.00  0.00    +0.000 A 
ATOM     25  C   UNL     1       6.366   3.699  12.795  0.00  0.00    +0.000 A 
ATOM     26  C   UNL     1       6.845   4.160  11.571  0.00  0.00    +0.000 A 
ATOM     27  C   UNL     1       7.694   5.255  11.568  0.00  0.00    +0.000 A 
ATOM     28  N   UNL     1       8.134   5.861  12.693  0.00  0.00    +0.000 NA
ATOM     29  C   UNL     1       7.681   5.361  13.870  0.00  0.00    +0.000 A 
ENDBRANCH  14  24
TORSDOF 2
ENDMDL
MODEL 6
REMARK VINA RESULT:      -6.6      3.525      6.391
REMARK  Name = 
REMARK  3 active torsions:
REMARK  status: ('A' for Active; 'I' for Inactive)
REMARK    1  A    between atoms: C_1  and  C_2
REMARK    2  A    between atoms: C_5  and  C_6
REMARK    3  A    between atoms: C_20  and  C_22
REMARK                            x       y       z     vdW  Elec       q    Type
REMARK                         _______ _______ _______ _____ _____    ______ ____
ROOT
ATOM      1  C   UNL     1      -3.206   9.287  15.954  0.00  0.00    +0.000 C 
ATOM      2  C   UNL     1      -2.805  10.049  17.212  0.00  0.00    +0.000 C 
ATOM      3  C   UNL     1      -1.338   9.775  17.522  0.00  0.00    +0.000 C 
ATOM      4  C   UNL     1      -0.768  10.680  18.583  0.00  0.00    +0.000 A 
ATOM      5  C   UNL     1       0.435  10.405  19.254  0.00  0.00    +0.000 A 
ATOM      6  N   UNL     1       0.891  11.237  20.223  0.00  0.00    +0.000 NA
ATOM      7  C   UNL     1       0.200  12.361  20.527  0.00  0.00    +0.000 A 
ATOM      8  C   UNL     1      -0.984  12.729  19.889  0.00  0.00    +0.000 A 
ATOM      9  C   UNL     1      -1.465  11.878  18.878  0.00  0.00    +0.000 A 
ATOM     10  C   UNL     1      -2.751  12.209  18.144  0.00  0.00    +0.000 C 
ATOM     11  O   UNL     1      -2.955  11.446  16.954  0.00  0.00    +0.000 OA
ATOM     12  C   UNL     1      -1.687  14.021  20.245  0.00  0.00    +0.000 C 
ATOM     13  N   UNL     1      -1.223  14.620  21.497  0.00  0.00    +0.000 N 
ATOM     14  C   UNL     1      -2.189  15.142  22.362  0.00  0.00    +0.000 C 
ATOM     15  O   UNL     1      -3.391  15.079  22.111  0.00  0.00    +0.000 OA
ATOM     16  C   UNL     1       0.230  14.587  21.673  0.00  0.00    +0.000 C 
ATOM     17  C   UNL     1       0.754  13.162  21.665  0.00  0.00    +0.000 C 
ENDROOT
BRANCH   5  18
ATOM     18  C   UNL     1       1.323   9.232  19.024  0.00  0.00    +0.000 A 
ATOM     19  C   UNL     1       2.096   9.057  17.859  0.00  0.00    +0.000 A 
ATOM     20  C   UNL     1       2.895   7.927  17.649  0.00  0.00    +0.000 A 
ATOM     21  C   UNL     1       2.999   6.956  18.635  0.00  0.00    +0.000 A 
ATOM     22  C   UNL     1       2.300   7.116  19.826  0.00  0.00    +0.000 A 
ATOM     23  C   UNL     1       1.470   8.232  20.009  0.00  0.00    +0.000 A 
ENDBRANCH   5  18
BRANCH  14  24
ATOM     24  C   UNL     1      -1.824  15.760  23.656  0.00  0.00    +0.000 A 
ATOM     25  C   UNL     1      -1.843  14.978  24.814  0.00  0.00    +0.000 A 
ATOM     26  C   UNL     1      -1.481  15.541  26.035  0.00  0.00    +0.000 A 
ATOM     27  C   UNL     1      -1.109  16.875  26.058  0.00  0.00    +0.000 A 
ATOM     28  N   UNL     1      -1.142  17.677  24.971  0.00  0.00    +0.000 NA
ATOM     29  C   UNL     1      -1.539  17.108  23.807  0.00  0.00    +0.000 A 
ENDBRANCH  14  24
TORSDOF 2
ENDMDL
MODEL 7
REMARK VINA RESULT:      -6.6      7.849      8.986
REMARK  Name = 
REMARK  3 active torsions:
REMARK  status: ('A' for Active; 'I' for Inactive)
REMARK    1  A    between atoms: C_1  and  C_2
REMARK    2  A    between atoms: C_5  and  C_6
REMARK    3  A    between atoms: C_20  and  C_22
REMARK                            x       y       z     vdW  Elec       q    Type
REMARK                         _______ _______ _______ _____ _____    ______ ____
ROOT
ATOM      1  C   UNL     1       9.914  15.588  23.534  0.00  0.00    +0.000 C 
ATOM      2  C   UNL     1       8.786  15.865  22.547  0.00  0.00    +0.000 C 
ATOM      3  C   UNL     1       8.983  15.010  21.300  0.00  0.00    +0.000 C 
ATOM      4  C   UNL     1       7.791  15.005  20.380  0.00  0.00    +0.000 A 
ATOM      5  C   UNL     1       7.859  14.568  19.046  0.00  0.00    +0.000 A 
ATOM      6  N   UNL     1       6.764  14.612  18.248  0.00  0.00    +0.000 NA
ATOM      7  C   UNL     1       5.583  15.050  18.747  0.00  0.00    +0.000 A 
ATOM      8  C   UNL     1       5.417  15.469  20.066  0.00  0.00    +0.000 A 
ATOM      9  C   UNL     1       6.543  15.423  20.906  0.00  0.00    +0.000 A 
ATOM     10  C   UNL     1       6.441  15.871  22.352  0.00  0.00    +0.000 C 
ATOM     11  O   UNL     1       7.554  15.486  23.161  0.00  0.00    +0.000 OA
ATOM     12  C   UNL     1       4.060  15.907  20.574  0.00  0.00    +0.000 C 
ATOM     13  N   UNL     1       3.089  16.172  19.513  0.00  0.00    +0.000 N 
ATOM     14  C   UNL     1       2.279  17.304  19.645  0.00  0.00    +0.000 C 
ATOM     15  O   UNL     1       2.387  18.076  20.595  0.00  0.00    +0.000 OA
ATOM     16  C   UNL     1       3.103  15.188  18.430  0.00  0.00    +0.000 C 
ATOM     17  C   UNL     1       4.463  15.129  17.756  0.00  0.00    +0.000 C 
ENDROOT
BRANCH   5  18
ATOM     18  C   UNL     1       9.066  14.039  18.354  0.00  0.00    +0.000 A 
ATOM     19  C   UNL     1      10.058  14.861  17.781  0.00  0.00    +0.000 A 
ATOM     20  C   UNL     1      11.165  14.340  17.101  0.00  0.00    +0.000 A 
ATOM     21  C   UNL     1      11.354  12.967  17.028  0.00  0.00    +0.000 A 
ATOM     22  C   UNL     1      10.433  12.119  17.631  0.00  0.00    +0.000 A 
ATOM     23  C   UNL     1       9.304  12.650  18.273  0.00  0.00    +0.000 A 
ENDBRANCH   5  18
BRANCH  14  24
ATOM     24  C   UNL     1       1.272  17.665  18.622  0.00  0.00    +0.000 A 
ATOM     25  C   UNL     1       1.703  18.157  17.386  0.00  0.00    +0.000 A 
ATOM     26  C   UNL     1       0.768  18.481  16.406  0.00  0.00    +0.000 A 
ATOM     27  C   UNL     1      -0.575  18.301  16.696  0.00  0.00    +0.000 A 
ATOM     28  N   UNL     1      -1.030  17.890  17.900  0.00  0.00    +0.000 NA
ATOM     29  C   UNL     1      -0.095  17.623  18.845  0.00  0.00    +0.000 A 
ENDBRANCH  14  24
TORSDOF 2
ENDMDL
MODEL 8
REMARK VINA RESULT:      -6.5      3.806      9.731
REMARK  Name = 
REMARK  3 active torsions:
REMARK  status: ('A' for Active; 'I' for Inactive)
REMARK    1  A    between atoms: C_1  and  C_2
REMARK    2  A    between atoms: C_5  and  C_6
REMARK    3  A    between atoms: C_20  and  C_22
REMARK                            x       y       z     vdW  Elec       q    Type
REMARK                         _______ _______ _______ _____ _____    ______ ____
ROOT
ATOM      1  C   UNL     1      -4.182  14.602  24.233  0.00  0.00    +0.000 C 
ATOM      2  C   UNL     1      -3.508  13.521  23.395  0.00  0.00    +0.000 C 
ATOM      3  C   UNL     1      -4.067  13.561  21.976  0.00  0.00    +0.000 C 
ATOM      4  C   UNL     1      -3.287  12.720  20.999  0.00  0.00    +0.000 A 
ATOM      5  C   UNL     1      -3.792  12.347  19.742  0.00  0.00    +0.000 A 
ATOM      6  N   UNL     1      -3.062  11.563  18.911  0.00  0.00    +0.000 NA
ATOM      7  C   UNL     1      -1.821  11.162  19.277  0.00  0.00    +0.000 A 
ATOM      8  C   UNL     1      -1.230  11.513  20.489  0.00  0.00    +0.000 A 
ATOM      9  C   UNL     1      -1.973  12.330  21.359  0.00  0.00    +0.000 A 
ATOM     10  C   UNL     1      -1.398  12.747  22.700  0.00  0.00    +0.000 C 
ATOM     11  O   UNL     1      -2.111  13.810  23.334  0.00  0.00    +0.000 OA
ATOM     12  C   UNL     1       0.177  11.066  20.823  0.00  0.00    +0.000 C 
ATOM     13  N   UNL     1       0.678   9.998  19.957  0.00  0.00    +0.000 N 
ATOM     14  C   UNL     1       1.386   8.954  20.561  0.00  0.00    +0.000 C 
ATOM     15  O   UNL     1       1.561   8.903  21.777  0.00  0.00    +0.000 OA
ATOM     16  C   UNL     1       0.360  10.178  18.540  0.00  0.00    +0.000 C 
ATOM     17  C   UNL     1      -1.141  10.236  18.316  0.00  0.00    +0.000 C 
ENDROOT
BRANCH   5  18
ATOM     18  C   UNL     1      -5.118  12.721  19.179  0.00  0.00    +0.000 A 
ATOM     19  C   UNL     1      -5.778  13.931  19.479  0.00  0.00    +0.000 A 
ATOM     20  C   UNL     1      -7.043  14.244  18.967  0.00  0.00    +0.000 A 
ATOM     21  C   UNL     1      -7.667  13.379  18.079  0.00  0.00    +0.000 A 
ATOM     22  C   UNL     1      -7.027  12.203  17.709  0.00  0.00    +0.000 A 
ATOM     23  C   UNL     1      -5.778  11.878  18.260  0.00  0.00    +0.000 A 
ENDBRANCH   5  18
BRANCH  14  24
ATOM     24  C   UNL     1       1.926   7.823  19.776  0.00  0.00    +0.000 A 
ATOM     25  C   UNL     1       2.431   8.062  18.494  0.00  0.00    +0.000 A 
ATOM     26  C   UNL     1       2.962   7.010  17.752  0.00  0.00    +0.000 A 
ATOM     27  C   UNL     1       2.971   5.746  18.319  0.00  0.00    +0.000 A 
ATOM     28  N   UNL     1       2.433   5.466  19.527  0.00  0.00    +0.000 NA
ATOM     29  C   UNL     1       1.887   6.505  20.205  0.00  0.00    +0.000 A 
ENDBRANCH  14  24
TORSDOF 2
ENDMDL
MODEL 9
REMARK VINA RESULT:      -6.5      3.441      9.250
REMARK  Name = 
REMARK  3 active torsions:
REMARK  status: ('A' for Active; 'I' for Inactive)
REMARK    1  A    between atoms: C_1  and  C_2
REMARK    2  A    between atoms: C_5  and  C_6
REMARK    3  A    between atoms: C_20  and  C_22
REMARK                            x       y       z     vdW  Elec       q    Type
REMARK                         _______ _______ _______ _____ _____    ______ ____
ROOT
ATOM      1  C   UNL     1      -3.702  13.474  24.212  0.00  0.00    +0.000 C 
ATOM      2  C   UNL     1      -3.023  12.486  23.272  0.00  0.00    +0.000 C 
ATOM      3  C   UNL     1      -3.493  12.742  21.844  0.00  0.00    +0.000 C 
ATOM      4  C   UNL     1      -2.691  12.004  20.805  0.00  0.00    +0.000 A 
ATOM      5  C   UNL     1      -3.134  11.828  19.483  0.00  0.00    +0.000 A 
ATOM      6  N   UNL     1      -2.388  11.129  18.593  0.00  0.00    +0.000 NA
ATOM      7  C   UNL     1      -1.188  10.623  18.967  0.00  0.00    +0.000 A 
ATOM      8  C   UNL     1      -0.657  10.779  20.246  0.00  0.00    +0.000 A 
ATOM      9  C   UNL     1      -1.418  11.507  21.178  0.00  0.00    +0.000 A 
ATOM     10  C   UNL     1      -0.907  11.711  22.592  0.00  0.00    +0.000 C 
ATOM     11  O   UNL     1      -1.614  12.712  23.327  0.00  0.00    +0.000 OA
ATOM     12  C   UNL     1       0.708  10.225  20.590  0.00  0.00    +0.000 C 
ATOM     13  N   UNL     1       1.217   9.260  19.615  0.00  0.00    +0.000 N 
ATOM     14  C   UNL     1       1.844   8.112  20.108  0.00  0.00    +0.000 C 
ATOM     15  O   UNL     1       1.944   7.889  21.313  0.00  0.00    +0.000 OA
ATOM     16  C   UNL     1       0.992   9.643  18.221  0.00  0.00    +0.000 C 
ATOM     17  C   UNL     1      -0.489   9.803  17.926  0.00  0.00    +0.000 C 
ENDROOT
BRANCH   5  18
ATOM     18  C   UNL     1      -4.408  12.338  18.906  0.00  0.00    +0.000 A 
ATOM     19  C   UNL     1      -4.891  11.966  17.636  0.00  0.00    +0.000 A 
ATOM     20  C   UNL     1      -6.074  12.488  17.098  0.00  0.00    +0.000 A 
ATOM     21  C   UNL     1      -6.853  13.358  17.847  0.00  0.00    +0.000 A 
ATOM     22  C   UNL     1      -6.446  13.706  19.129  0.00  0.00    +0.000 A 
ATOM     23  C   UNL     1      -5.238  13.210  19.642  0.00  0.00    +0.000 A 
ENDBRANCH   5  18
BRANCH  14  24
ATOM     24  C   UNL     1       2.385   7.071  19.205  0.00  0.00    +0.000 A 
ATOM     25  C   UNL     1       1.962   5.748  19.361  0.00  0.00    +0.000 A 
ATOM     26  C   UNL     1       2.445   4.761  18.504  0.00  0.00    +0.000 A 
ATOM     27  C   UNL     1       3.341   5.133  17.514  0.00  0.00    +0.000 A 
ATOM     28  N   UNL     1       3.820   6.389  17.376  0.00  0.00    +0.000 NA
ATOM     29  C   UNL     1       3.361   7.315  18.252  0.00  0.00    +0.000 A 
ENDBRANCH  14  24
TORSDOF 2
ENDMDL
