MODEL 1
REMARK VINA RESULT:      -7.2      0.000      0.000
REMARK  Name = 
REMARK  7 active torsions:
REMARK  status: ('A' for Active; 'I' for Inactive)
REMARK    1  A    between atoms: C_1  and  O_2
REMARK    2  A    between atoms: O_2  and  C_3
REMARK    3  A    between atoms: C_6  and  C_7
REMARK    4  A    between atoms: C_10  and  C_11
REMARK    5  A    between atoms: C_11  and  C_12
REMARK    6  A    between atoms: C_17  and  O_18
REMARK    7  A    between atoms: O_18  and  C_19
REMARK                            x       y       z     vdW  Elec       q    Type
REMARK                         _______ _______ _______ _____ _____    ______ ____
ROOT
ATOM      1  C   UNL     1       2.542   5.763  19.229  0.00  0.00    +0.000 C 
ATOM      2  N   UNL     1       2.927   5.197  20.323  0.00  0.00    +0.000 NA
ATOM      3  O   UNL     1       3.104   3.828  20.063  0.00  0.00    +0.000 OA
ATOM      4  C   UNL     1       2.898   3.565  18.666  0.00  0.00    +0.000 C 
ATOM      5  C   UNL     1       2.425   4.866  18.050  0.00  0.00    +0.000 C 
ENDROOT
BRANCH   1   9
ATOM      6  C   UNL     1       1.328   9.853  19.002  0.00  0.00    +0.000 A 
ATOM      7  C   UNL     1       1.186   9.134  20.190  0.00  0.00    +0.000 A 
ATOM      8  C   UNL     1       1.621   7.813  20.274  0.00  0.00    +0.000 A 
ATOM      9  C   UNL     1       2.186   7.194  19.153  0.00  0.00    +0.000 A 
ATOM     10  C   UNL     1       2.339   7.911  17.965  0.00  0.00    +0.000 A 
ATOM     11  C   UNL     1       1.902   9.234  17.887  0.00  0.00    +0.000 A 
BRANCH   6  13
ATOM     12  C   UNL     1      -0.469  11.256  19.596  0.00  0.00    +0.000 C 
ATOM     13  O   UNL     1       0.825  11.122  19.022  0.00  0.00    +0.000 OA
ENDBRANCH   6  13
ENDBRANCH   1   9
BRANCH   4  14
ATOM     14  C   UNL     1       4.208   3.071  18.032  0.00  0.00    +0.000 C 
BRANCH  14  15
ATOM     15  C   UNL     1       5.061   4.054  17.255  0.00  0.00    +0.000 A 
ATOM     16  C   UNL     1       4.942   4.134  15.849  0.00  0.00    +0.000 A 
ATOM     17  C   UNL     1       5.815   4.898  15.072  0.00  0.00    +0.000 A 
ATOM     18  C   UNL     1       6.814   5.634  15.688  0.00  0.00    +0.000 A 
ATOM     19  C   UNL     1       6.924   5.610  17.075  0.00  0.00    +0.000 A 
ATOM     20  C   UNL     1       6.059   4.836  17.871  0.00  0.00    +0.000 A 
BRANCH  20  21
ATOM     21  O   UNL     1       6.417   4.877  19.192  0.00  0.00    +0.000 OA
ATOM     22  C   UNL     1       7.570   5.601  19.587  0.00  0.00    +0.000 C 
ENDBRANCH  20  21
ENDBRANCH  14  15
ENDBRANCH   4  14
TORSDOF 5
ENDMDL
MODEL 2
REMARK VINA RESULT:      -7.2      2.494      4.440
REMARK  Name = 
REMARK  7 active torsions:
REMARK  status: ('A' for Active; 'I' for Inactive)
REMARK    1  A    between atoms: C_1  and  O_2
REMARK    2  A    between atoms: O_2  and  C_3
REMARK    3  A    between atoms: C_6  and  C_7
REMARK    4  A    between atoms: C_10  and  C_11
REMARK    5  A    between atoms: C_11  and  C_12
REMARK    6  A    between atoms: C_17  and  O_18
REMARK    7  A    between atoms: O_18  and  C_19
REMARK                            x       y       z     vdW  Elec       q    Type
REMARK                         _______ _______ _______ _____ _____    ______ ____
ROOT
ATOM      1  C   UNL     1       1.395   8.675  19.567  0.00  0.00    +0.000 C 
ATOM      2  N   UNL     1       1.468   8.990  18.318  0.00  0.00    +0.000 NA
ATOM      3  O   UNL     1       2.321   8.069  17.688  0.00  0.00    +0.000 OA
ATOM      4  C   UNL     1       2.721   7.055  18.623  0.00  0.00    +0.000 C 
ATOM      5  C   UNL     1       2.168   7.472  19.970  0.00  0.00    +0.000 C 
ENDROOT
BRANCH   1   9
ATOM      6  C   UNL     1      -0.622  11.082  22.465  0.00  0.00    +0.000 A 
ATOM      7  C   UNL     1      -0.188  11.635  21.258  0.00  0.00    +0.000 A 
ATOM      8  C   UNL     1       0.432  10.838  20.297  0.00  0.00    +0.000 A 
ATOM      9  C   UNL     1       0.641   9.479  20.550  0.00  0.00    +0.000 A 
ATOM     10  C   UNL     1       0.201   8.918  21.751  0.00  0.00    +0.000 A 
ATOM     11  C   UNL     1      -0.420   9.720  22.709  0.00  0.00    +0.000 A 
BRANCH   6  13
ATOM     12  C   UNL     1      -2.589  12.082  23.287  0.00  0.00    +0.000 C 
ATOM     13  O   UNL     1      -1.174  11.964  23.348  0.00  0.00    +0.000 OA
ENDBRANCH   6  13
ENDBRANCH   1   9
BRANCH   4  14
ATOM     14  C   UNL     1       2.174   5.690  18.174  0.00  0.00    +0.000 C 
BRANCH  14  15
ATOM     15  C   UNL     1       2.272   4.514  19.126  0.00  0.00    +0.000 A 
ATOM     16  C   UNL     1       1.178   4.189  19.960  0.00  0.00    +0.000 A 
ATOM     17  C   UNL     1       1.273   3.226  20.966  0.00  0.00    +0.000 A 
ATOM     18  C   UNL     1       2.460   2.535  21.143  0.00  0.00    +0.000 A 
ATOM     19  C   UNL     1       3.538   2.803  20.305  0.00  0.00    +0.000 A 
ATOM     20  C   UNL     1       3.462   3.778  19.293  0.00  0.00    +0.000 A 
BRANCH  20  21
ATOM     21  O   UNL     1       4.667   3.950  18.666  0.00  0.00    +0.000 OA
ATOM     22  C   UNL     1       5.617   4.855  19.201  0.00  0.00    +0.000 C 
ENDBRANCH  20  21
ENDBRANCH  14  15
ENDBRANCH   4  14
TORSDOF 5
ENDMDL
MODEL 3
REMARK VINA RESULT:      -7.1      2.484      4.341
REMARK  Name = 
REMARK  7 active torsions:
REMARK  status: ('A' for Active; 'I' for Inactive)
REMARK    1  A    between atoms: C_1  and  O_2
REMARK    2  A    between atoms: O_2  and  C_3
REMARK    3  A    between atoms: C_6  and  C_7
REMARK    4  A    between atoms: C_10  and  C_11
REMARK    5  A    between atoms: C_11  and  C_12
REMARK    6  A    between atoms: C_17  and  O_18
REMARK    7  A    between atoms: O_18  and  C_19
REMARK                            x       y       z     vdW  Elec       q    Type
REMARK                         _______ _______ _______ _____ _____    ______ ____
ROOT
ATOM      1  C   UNL     1       1.511   8.641  19.535  0.00  0.00    +0.000 C 
ATOM      2  N   UNL     1       1.497   8.951  18.283  0.00  0.00    +0.000 NA
ATOM      3  O   UNL     1       2.293   8.018  17.598  0.00  0.00    +0.000 OA
ATOM      4  C   UNL     1       2.749   7.004  18.506  0.00  0.00    +0.000 C 
ATOM      5  C   UNL     1       2.298   7.432  19.888  0.00  0.00    +0.000 C 
ENDROOT
BRANCH   1   9
ATOM      6  C   UNL     1      -0.592  10.890  22.498  0.00  0.00    +0.000 A 
ATOM      7  C   UNL     1      -0.082   9.625  22.795  0.00  0.00    +0.000 A 
ATOM      8  C   UNL     1       0.640   8.912  21.840  0.00  0.00    +0.000 A 
ATOM      9  C   UNL     1       0.837   9.457  20.567  0.00  0.00    +0.000 A 
ATOM     10  C   UNL     1       0.338  10.726  20.267  0.00  0.00    +0.000 A 
ATOM     11  C   UNL     1      -0.383  11.436  21.228  0.00  0.00    +0.000 A 
BRANCH   6  13
ATOM     12  C   UNL     1      -2.542  12.075  23.083  0.00  0.00    +0.000 C 
ATOM     13  O   UNL     1      -1.320  11.476  23.494  0.00  0.00    +0.000 OA
ENDBRANCH   6  13
ENDBRANCH   1   9
BRANCH   4  14
ATOM     14  C   UNL     1       2.157   5.643  18.104  0.00  0.00    +0.000 C 
BRANCH  14  15
ATOM     15  C   UNL     1       2.247   4.488  19.083  0.00  0.00    +0.000 A 
ATOM     16  C   UNL     1       1.150   4.192  19.925  0.00  0.00    +0.000 A 
ATOM     17  C   UNL     1       1.239   3.252  20.953  0.00  0.00    +0.000 A 
ATOM     18  C   UNL     1       2.421   2.556  21.146  0.00  0.00    +0.000 A 
ATOM     19  C   UNL     1       3.500   2.796  20.302  0.00  0.00    +0.000 A 
ATOM     20  C   UNL     1       3.432   3.748  19.267  0.00  0.00    +0.000 A 
BRANCH  20  21
ATOM     21  O   UNL     1       4.637   3.895  18.636  0.00  0.00    +0.000 OA
ATOM     22  C   UNL     1       5.608   4.778  19.170  0.00  0.00    +0.000 C 
ENDBRANCH  20  21
ENDBRANCH  14  15
ENDBRANCH   4  14
TORSDOF 5
ENDMDL
MODEL 4
REMARK VINA RESULT:      -7.0      1.119      2.056
REMARK  Name = 
REMARK  7 active torsions:
REMARK  status: ('A' for Active; 'I' for Inactive)
REMARK    1  A    between atoms: C_1  and  O_2
REMARK    2  A    between atoms: O_2  and  C_3
REMARK    3  A    between atoms: C_6  and  C_7
REMARK    4  A    between atoms: C_10  and  C_11
REMARK    5  A    between atoms: C_11  and  C_12
REMARK    6  A    between atoms: C_17  and  O_18
REMARK    7  A    between atoms: O_18  and  C_19
REMARK                            x       y       z     vdW  Elec       q    Type
REMARK                         _______ _______ _______ _____ _____    ______ ____
ROOT
ATOM      1  C   UNL     1       2.642   6.026  19.096  0.00  0.00    +0.000 C 
ATOM      2  N   UNL     1       3.045   5.415  20.159  0.00  0.00    +0.000 NA
ATOM      3  O   UNL     1       3.305   4.078  19.818  0.00  0.00    +0.000 OA
ATOM      4  C   UNL     1       3.132   3.891  18.405  0.00  0.00    +0.000 C 
ATOM      5  C   UNL     1       2.592   5.199  17.863  0.00  0.00    +0.000 C 
ENDROOT
BRANCH   1   9
ATOM      6  C   UNL     1       1.195  10.046  19.105  0.00  0.00    +0.000 A 
ATOM      7  C   UNL     1       1.106   9.256  20.253  0.00  0.00    +0.000 A 
ATOM      8  C   UNL     1       1.617   7.959  20.260  0.00  0.00    +0.000 A 
ATOM      9  C   UNL     1       2.204   7.437  19.103  0.00  0.00    +0.000 A 
ATOM     10  C   UNL     1       2.305   8.226  17.955  0.00  0.00    +0.000 A 
ATOM     11  C   UNL     1       1.793   9.524  17.955  0.00  0.00    +0.000 A 
BRANCH   6  13
ATOM     12  C   UNL     1       1.147  12.120  20.220  0.00  0.00    +0.000 C 
ATOM     13  O   UNL     1       0.622  11.281  19.200  0.00  0.00    +0.000 OA
ENDBRANCH   6  13
ENDBRANCH   1   9
BRANCH   4  14
ATOM     14  C   UNL     1       4.477   3.513  17.763  0.00  0.00    +0.000 C 
BRANCH  14  15
ATOM     15  C   UNL     1       5.607   4.524  17.783  0.00  0.00    +0.000 A 
ATOM     16  C   UNL     1       6.305   4.776  18.986  0.00  0.00    +0.000 A 
ATOM     17  C   UNL     1       7.237   5.809  19.100  0.00  0.00    +0.000 A 
ATOM     18  C   UNL     1       7.521   6.600  17.999  0.00  0.00    +0.000 A 
ATOM     19  C   UNL     1       6.881   6.343  16.791  0.00  0.00    +0.000 A 
ATOM     20  C   UNL     1       5.932   5.313  16.661  0.00  0.00    +0.000 A 
BRANCH  20  21
ATOM     21  O   UNL     1       5.354   5.311  15.421  0.00  0.00    +0.000 OA
ATOM     22  C   UNL     1       5.828   4.422  14.424  0.00  0.00    +0.000 C 
ENDBRANCH  20  21
ENDBRANCH  14  15
ENDBRANCH   4  14
TORSDOF 5
ENDMDL
MODEL 5
REMARK VINA RESULT:      -6.9      0.939      1.018
REMARK  Name = 
REMARK  7 active torsions:
REMARK  status: ('A' for Active; 'I' for Inactive)
REMARK    1  A    between atoms: C_1  and  O_2
REMARK    2  A    between atoms: O_2  and  C_3
REMARK    3  A    between atoms: C_6  and  C_7
REMARK    4  A    between atoms: C_10  and  C_11
REMARK    5  A    between atoms: C_11  and  C_12
REMARK    6  A    between atoms: C_17  and  O_18
REMARK    7  A    between atoms: O_18  and  C_19
REMARK                            x       y       z     vdW  Elec       q    Type
REMARK                         _______ _______ _______ _____ _____    ______ ____
ROOT
ATOM      1  C   UNL     1       2.233   6.388  19.520  0.00  0.00    +0.000 C 
ATOM      2  N   UNL     1       2.088   5.505  20.449  0.00  0.00    +0.000 NA
ATOM      3  O   UNL     1       2.519   4.269  19.942  0.00  0.00    +0.000 OA
ATOM      4  C   UNL     1       3.058   4.442  18.622  0.00  0.00    +0.000 C 
ATOM      5  C   UNL     1       2.811   5.889  18.246  0.00  0.00    +0.000 C 
ENDROOT
BRANCH   1   9
ATOM      6  C   UNL     1       0.819  10.392  19.995  0.00  0.00    +0.000 A 
ATOM      7  C   UNL     1       0.890   9.529  21.090  0.00  0.00    +0.000 A 
ATOM      8  C   UNL     1       1.391   8.237  20.940  0.00  0.00    +0.000 A 
ATOM      9  C   UNL     1       1.806   7.794  19.680  0.00  0.00    +0.000 A 
ATOM     10  C   UNL     1       1.746   8.656  18.583  0.00  0.00    +0.000 A 
ATOM     11  C   UNL     1       1.245   9.949  18.740  0.00  0.00    +0.000 A 
BRANCH   6  13
ATOM     12  C   UNL     1      -1.125  11.723  19.992  0.00  0.00    +0.000 C 
ATOM     13  O   UNL     1       0.269  11.616  20.250  0.00  0.00    +0.000 OA
ENDBRANCH   6  13
ENDBRANCH   1   9
BRANCH   4  14
ATOM     14  C   UNL     1       4.556   4.095  18.623  0.00  0.00    +0.000 C 
BRANCH  14  15
ATOM     15  C   UNL     1       5.368   4.359  17.370  0.00  0.00    +0.000 A 
ATOM     16  C   UNL     1       4.756   4.261  16.100  0.00  0.00    +0.000 A 
ATOM     17  C   UNL     1       5.491   4.330  14.915  0.00  0.00    +0.000 A 
ATOM     18  C   UNL     1       6.860   4.533  14.970  0.00  0.00    +0.000 A 
ATOM     19  C   UNL     1       7.481   4.677  16.206  0.00  0.00    +0.000 A 
ATOM     20  C   UNL     1       6.756   4.600  17.410  0.00  0.00    +0.000 A 
BRANCH  20  21
ATOM     21  O   UNL     1       7.581   4.662  18.501  0.00  0.00    +0.000 OA
ATOM     22  C   UNL     1       7.836   5.910  19.121  0.00  0.00    +0.000 C 
ENDBRANCH  20  21
ENDBRANCH  14  15
ENDBRANCH   4  14
TORSDOF 5
ENDMDL
MODEL 6
REMARK VINA RESULT:      -6.9      0.398      1.104
REMARK  Name = 
REMARK  7 active torsions:
REMARK  status: ('A' for Active; 'I' for Inactive)
REMARK    1  A    between atoms: C_1  and  O_2
REMARK    2  A    between atoms: O_2  and  C_3
REMARK    3  A    between atoms: C_6  and  C_7
REMARK    4  A    between atoms: C_10  and  C_11
REMARK    5  A    between atoms: C_11  and  C_12
REMARK    6  A    between atoms: C_17  and  O_18
REMARK    7  A    between atoms: O_18  and  C_19
REMARK                            x       y       z     vdW  Elec       q    Type
REMARK                         _______ _______ _______ _____ _____    ______ ____
ROOT
ATOM      1  C   UNL     1       2.449   5.749  19.277  0.00  0.00    +0.000 C 
ATOM      2  N   UNL     1       2.890   5.235  20.375  0.00  0.00    +0.000 NA
ATOM      3  O   UNL     1       3.109   3.866  20.156  0.00  0.00    +0.000 OA
ATOM      4  C   UNL     1       2.866   3.547  18.777  0.00  0.00    +0.000 C 
ATOM      5  C   UNL     1       2.326   4.808  18.134  0.00  0.00    +0.000 C 
ENDROOT
BRANCH   1   9
ATOM      6  C   UNL     1       1.445   9.890  18.956  0.00  0.00    +0.000 A 
ATOM      7  C   UNL     1       1.940   9.190  17.853  0.00  0.00    +0.000 A 
ATOM      8  C   UNL     1       2.226   7.830  17.950  0.00  0.00    +0.000 A 
ATOM      9  C   UNL     1       2.038   7.163  19.165  0.00  0.00    +0.000 A 
ATOM     10  C   UNL     1       1.535   7.856  20.268  0.00  0.00    +0.000 A 
ATOM     11  C   UNL     1       1.248   9.217  20.166  0.00  0.00    +0.000 A 
BRANCH   6  13
ATOM     12  C   UNL     1       1.041  11.991  19.940  0.00  0.00    +0.000 C 
ATOM     13  O   UNL     1       1.243  11.225  18.759  0.00  0.00    +0.000 OA
ENDBRANCH   6  13
ENDBRANCH   1   9
BRANCH   4  14
ATOM     14  C   UNL     1       4.172   3.077  18.115  0.00  0.00    +0.000 C 
BRANCH  14  15
ATOM     15  C   UNL     1       5.000   4.082  17.338  0.00  0.00    +0.000 A 
ATOM     16  C   UNL     1       4.806   4.228  15.945  0.00  0.00    +0.000 A 
ATOM     17  C   UNL     1       5.650   5.013  15.158  0.00  0.00    +0.000 A 
ATOM     18  C   UNL     1       6.695   5.704  15.751  0.00  0.00    +0.000 A 
ATOM     19  C   UNL     1       6.880   5.613  17.126  0.00  0.00    +0.000 A 
ATOM     20  C   UNL     1       6.045   4.818  17.933  0.00  0.00    +0.000 A 
BRANCH  20  21
ATOM     21  O   UNL     1       6.474   4.791  19.232  0.00  0.00    +0.000 OA
ATOM     22  C   UNL     1       7.563   5.607  19.631  0.00  0.00    +0.000 C 
ENDBRANCH  20  21
ENDBRANCH  14  15
ENDBRANCH   4  14
TORSDOF 5
ENDMDL
MODEL 7
REMARK VINA RESULT:      -6.8      1.056      2.262
REMARK  Name = 
REMARK  7 active torsions:
REMARK  status: ('A' for Active; 'I' for Inactive)
REMARK    1  A    between atoms: C_1  and  O_2
REMARK    2  A    between atoms: O_2  and  C_3
REMARK    3  A    between atoms: C_6  and  C_7
REMARK    4  A    between atoms: C_10  and  C_11
REMARK    5  A    between atoms: C_11  and  C_12
REMARK    6  A    between atoms: C_17  and  O_18
REMARK    7  A    between atoms: O_18  and  C_19
REMARK                            x       y       z     vdW  Elec       q    Type
REMARK                         _______ _______ _______ _____ _____    ______ ____
ROOT
ATOM      1  C   UNL     1       2.668   5.832  19.081  0.00  0.00    +0.000 C 
ATOM      2  N   UNL     1       3.095   5.248  20.149  0.00  0.00    +0.000 NA
ATOM      3  O   UNL     1       3.424   3.924  19.817  0.00  0.00    +0.000 OA
ATOM      4  C   UNL     1       3.269   3.722  18.404  0.00  0.00    +0.000 C 
ATOM      5  C   UNL     1       2.667   4.998  17.852  0.00  0.00    +0.000 C 
ENDROOT
BRANCH   1   9
ATOM      6  C   UNL     1       1.379   9.906  19.079  0.00  0.00    +0.000 A 
ATOM      7  C   UNL     1       1.912   9.329  17.925  0.00  0.00    +0.000 A 
ATOM      8  C   UNL     1       2.293   7.988  17.917  0.00  0.00    +0.000 A 
ATOM      9  C   UNL     1       2.160   7.220  19.078  0.00  0.00    +0.000 A 
ATOM     10  C   UNL     1       1.618   7.789  20.232  0.00  0.00    +0.000 A 
ATOM     11  C   UNL     1       1.237   9.131  20.235  0.00  0.00    +0.000 A 
BRANCH   6  13
ATOM     12  C   UNL     1      -0.083  11.652  19.684  0.00  0.00    +0.000 C 
ATOM     13  O   UNL     1       1.084  11.235  18.985  0.00  0.00    +0.000 OA
ENDBRANCH   6  13
ENDBRANCH   1   9
BRANCH   4  14
ATOM     14  C   UNL     1       4.635   3.409  17.771  0.00  0.00    +0.000 C 
BRANCH  14  15
ATOM     15  C   UNL     1       5.689   4.498  17.731  0.00  0.00    +0.000 A 
ATOM     16  C   UNL     1       6.398   4.835  18.907  0.00  0.00    +0.000 A 
ATOM     17  C   UNL     1       7.256   5.935  18.966  0.00  0.00    +0.000 A 
ATOM     18  C   UNL     1       7.454   6.711  17.835  0.00  0.00    +0.000 A 
ATOM     19  C   UNL     1       6.803   6.373  16.652  0.00  0.00    +0.000 A 
ATOM     20  C   UNL     1       5.927   5.274  16.579  0.00  0.00    +0.000 A 
BRANCH  20  21
ATOM     21  O   UNL     1       5.319   5.194  15.356  0.00  0.00    +0.000 OA
ATOM     22  C   UNL     1       5.845   4.330  14.362  0.00  0.00    +0.000 C 
ENDBRANCH  20  21
ENDBRANCH  14  15
ENDBRANCH   4  14
TORSDOF 5
ENDMDL
MODEL 8
REMARK VINA RESULT:      -6.8      0.922      1.423
REMARK  Name = 
REMARK  7 active torsions:
REMARK  status: ('A' for Active; 'I' for Inactive)
REMARK    1  A    between atoms: C_1  and  O_2
REMARK    2  A    between atoms: O_2  and  C_3
REMARK    3  A    between atoms: C_6  and  C_7
REMARK    4  A    between atoms: C_10  and  C_11
REMARK    5  A    between atoms: C_11  and  C_12
REMARK    6  A    between atoms: C_17  and  O_18
REMARK    7  A    between atoms: O_18  and  C_19
REMARK                            x       y       z     vdW  Elec       q    Type
REMARK                         _______ _______ _______ _____ _____    ______ ____
ROOT
ATOM      1  C   UNL     1       2.313   6.153  19.744  0.00  0.00    +0.000 C 
ATOM      2  N   UNL     1       2.308   5.326  20.734  0.00  0.00    +0.000 NA
ATOM      3  O   UNL     1       2.802   4.095  20.273  0.00  0.00    +0.000 OA
ATOM      4  C   UNL     1       3.231   4.221  18.908  0.00  0.00    +0.000 C 
ATOM      5  C   UNL     1       2.840   5.615  18.463  0.00  0.00    +0.000 C 
ENDROOT
BRANCH   1   9
ATOM      6  C   UNL     1       0.964  10.195  20.048  0.00  0.00    +0.000 A 
ATOM      7  C   UNL     1       1.438   9.694  18.834  0.00  0.00    +0.000 A 
ATOM      8  C   UNL     1       1.838   8.363  18.728  0.00  0.00    +0.000 A 
ATOM      9  C   UNL     1       1.784   7.528  19.849  0.00  0.00    +0.000 A 
ATOM     10  C   UNL     1       1.302   8.022  21.063  0.00  0.00    +0.000 A 
ATOM     11  C   UNL     1       0.901   9.355  21.163  0.00  0.00    +0.000 A 
BRANCH   6  13
ATOM     12  C   UNL     1      -0.055  11.980  18.896  0.00  0.00    +0.000 C 
ATOM     13  O   UNL     1       0.644  11.522  20.047  0.00  0.00    +0.000 OA
ENDBRANCH   6  13
ENDBRANCH   1   9
BRANCH   4  14
ATOM     14  C   UNL     1       4.749   3.992  18.817  0.00  0.00    +0.000 C 
BRANCH  14  15
ATOM     15  C   UNL     1       5.456   4.291  17.510  0.00  0.00    +0.000 A 
ATOM     16  C   UNL     1       4.761   4.157  16.286  0.00  0.00    +0.000 A 
ATOM     17  C   UNL     1       5.407   4.258  15.052  0.00  0.00    +0.000 A 
ATOM     18  C   UNL     1       6.764   4.530  15.009  0.00  0.00    +0.000 A 
ATOM     19  C   UNL     1       7.463   4.711  16.199  0.00  0.00    +0.000 A 
ATOM     20  C   UNL     1       6.830   4.602  17.451  0.00  0.00    +0.000 A 
BRANCH  20  21
ATOM     21  O   UNL     1       7.725   4.710  18.481  0.00  0.00    +0.000 OA
ATOM     22  C   UNL     1       7.876   5.947  19.156  0.00  0.00    +0.000 C 
ENDBRANCH  20  21
ENDBRANCH  14  15
ENDBRANCH   4  14
TORSDOF 5
ENDMDL
MODEL 9
REMARK VINA RESULT:      -6.8      3.251      7.413
REMARK  Name = 
REMARK  7 active torsions:
REMARK  status: ('A' for Active; 'I' for Inactive)
REMARK    1  A    between atoms: C_1  and  O_2
REMARK    2  A    between atoms: O_2  and  C_3
REMARK    3  A    between atoms: C_6  and  C_7
REMARK    4  A    between atoms: C_10  and  C_11
REMARK    5  A    between atoms: C_11  and  C_12
REMARK    6  A    between atoms: C_17  and  O_18
REMARK    7  A    between atoms: O_18  and  C_19
REMARK                            x       y       z     vdW  Elec       q    Type
REMARK                         _______ _______ _______ _____ _____    ______ ____
ROOT
ATOM      1  C   UNL     1       6.248   5.582  15.852  0.00  0.00    +0.000 C 
ATOM      2  N   UNL     1       7.206   6.153  16.501  0.00  0.00    +0.000 NA
ATOM      3  O   UNL     1       6.662   6.719  17.665  0.00  0.00    +0.000 OA
ATOM      4  C   UNL     1       5.272   6.377  17.772  0.00  0.00    +0.000 C 
ATOM      5  C   UNL     1       4.910   5.650  16.493  0.00  0.00    +0.000 C 
ENDROOT
BRANCH   1   9
ATOM      6  C   UNL     1       6.889   3.589  12.127  0.00  0.00    +0.000 A 
ATOM      7  C   UNL     1       5.821   3.229  12.951  0.00  0.00    +0.000 A 
ATOM      8  C   UNL     1       5.590   3.909  14.146  0.00  0.00    +0.000 A 
ATOM      9  C   UNL     1       6.445   4.946  14.533  0.00  0.00    +0.000 A 
ATOM     10  C   UNL     1       7.509   5.317  13.708  0.00  0.00    +0.000 A 
ATOM     11  C   UNL     1       7.735   4.633  12.513  0.00  0.00    +0.000 A 
BRANCH   6  13
ATOM     12  C   UNL     1       6.539   1.500  11.096  0.00  0.00    +0.000 C 
ATOM     13  O   UNL     1       7.045   2.826  11.006  0.00  0.00    +0.000 OA
ENDBRANCH   6  13
ENDBRANCH   1   9
BRANCH   4  14
ATOM     14  C   UNL     1       5.046   5.500  19.016  0.00  0.00    +0.000 C 
BRANCH  14  15
ATOM     15  C   UNL     1       3.645   5.006  19.318  0.00  0.00    +0.000 A 
ATOM     16  C   UNL     1       2.768   5.803  20.088  0.00  0.00    +0.000 A 
ATOM     17  C   UNL     1       1.533   5.329  20.534  0.00  0.00    +0.000 A 
ATOM     18  C   UNL     1       1.126   4.050  20.190  0.00  0.00    +0.000 A 
ATOM     19  C   UNL     1       1.951   3.262  19.394  0.00  0.00    +0.000 A 
ATOM     20  C   UNL     1       3.204   3.721  18.945  0.00  0.00    +0.000 A 
BRANCH  20  21
ATOM     21  O   UNL     1       3.887   2.746  18.272  0.00  0.00    +0.000 OA
ATOM     22  C   UNL     1       3.580   1.381  18.503  0.00  0.00    +0.000 C 
ENDBRANCH  20  21
ENDBRANCH  14  15
ENDBRANCH   4  14
TORSDOF 5
ENDMDL
