MODEL 1
REMARK VINA RESULT:      -7.4      0.000      0.000
REMARK  Name = 
REMARK  2 active torsions:
REMARK  status: ('A' for Active; 'I' for Inactive)
REMARK    1  A    between atoms: O_1  and  C_2
REMARK    2  A    between atoms: N_5  and  C_6
REMARK                            x       y       z     vdW  Elec       q    Type
REMARK                         _______ _______ _______ _____ _____    ______ ____
ROOT
ATOM      1  C   UNL     1       2.803   5.766  19.379  0.00  0.00    +0.000 A 
ATOM      2  N   UNL     1       3.852   6.163  18.647  0.00  0.00    +0.000 NA
ATOM      3  C   UNL     1       4.299   5.322  17.692  0.00  0.00    +0.000 A 
ATOM      4  N   UNL     1       5.474   5.658  16.981  0.00  0.00    +0.000 N 
ATOM      5  C   UNL     1       3.671   4.109  17.425  0.00  0.00    +0.000 A 
ATOM      6  C   UNL     1       2.597   3.696  18.230  0.00  0.00    +0.000 A 
ATOM      7  C   UNL     1       1.985   2.441  18.073  0.00  0.00    +0.000 A 
ATOM      8  C   UNL     1       0.949   2.040  18.921  0.00  0.00    +0.000 A 
ATOM      9  C   UNL     1       0.496   2.893  19.926  0.00  0.00    +0.000 A 
ATOM     10  C   UNL     1       1.082   4.145  20.088  0.00  0.00    +0.000 A 
ATOM     11  C   UNL     1       2.139   4.551  19.251  0.00  0.00    +0.000 A 
ATOM     12  H   UNL     1       5.262   5.813  16.002  0.00  0.00    +0.000 HD
ENDROOT
BRANCH   4  13
ATOM     13  C   UNL     1       6.483   6.500  17.497  0.00  0.00    +0.000 A 
ATOM     14  C   UNL     1       7.378   6.024  18.474  0.00  0.00    +0.000 A 
ATOM     15  C   UNL     1       8.356   6.850  19.023  0.00  0.00    +0.000 A 
ATOM     16  C   UNL     1       8.462   8.158  18.574  0.00  0.00    +0.000 A 
ATOM     17  F   UNL     1       9.380   8.967  19.116  0.00  0.00    +0.000 F 
ATOM     18  C   UNL     1       7.626   8.640  17.571  0.00  0.00    +0.000 A 
ATOM     19  C   UNL     1       6.644   7.807  17.023  0.00  0.00    +0.000 A 
ENDBRANCH   4  13
BRANCH   1  20
ATOM     20  O   UNL     1       2.458   6.681  20.321  0.00  0.00    +0.000 OA
ATOM     21  H   UNL     1       2.373   6.091  21.091  0.00  0.00    +0.000 HD
ENDBRANCH   1  20
TORSDOF 2
ENDMDL
MODEL 2
REMARK VINA RESULT:      -7.4      3.599      4.410
REMARK  Name = 
REMARK  2 active torsions:
REMARK  status: ('A' for Active; 'I' for Inactive)
REMARK    1  A    between atoms: O_1  and  C_2
REMARK    2  A    between atoms: N_5  and  C_6
REMARK                            x       y       z     vdW  Elec       q    Type
REMARK                         _______ _______ _______ _____ _____    ______ ____
ROOT
ATOM      1  C   UNL     1       3.927   2.660  18.043  0.00  0.00    +0.000 A 
ATOM      2  N   UNL     1       4.735   3.373  17.248  0.00  0.00    +0.000 NA
ATOM      3  C   UNL     1       4.603   4.716  17.270  0.00  0.00    +0.000 A 
ATOM      4  N   UNL     1       5.357   5.492  16.361  0.00  0.00    +0.000 N 
ATOM      5  C   UNL     1       3.706   5.354  18.122  0.00  0.00    +0.000 A 
ATOM      6  C   UNL     1       2.842   4.585  18.918  0.00  0.00    +0.000 A 
ATOM      7  C   UNL     1       1.851   5.169  19.724  0.00  0.00    +0.000 A 
ATOM      8  C   UNL     1       0.976   4.373  20.469  0.00  0.00    +0.000 A 
ATOM      9  C   UNL     1       1.089   2.985  20.434  0.00  0.00    +0.000 A 
ATOM     10  C   UNL     1       2.074   2.389  19.651  0.00  0.00    +0.000 A 
ATOM     11  C   UNL     1       2.949   3.181  18.882  0.00  0.00    +0.000 A 
ATOM     12  H   UNL     1       6.018   6.078  16.859  0.00  0.00    +0.000 HD
ENDROOT
BRANCH   4  13
ATOM     13  C   UNL     1       5.834   5.000  15.126  0.00  0.00    +0.000 A 
ATOM     14  C   UNL     1       5.000   4.224  14.298  0.00  0.00    +0.000 A 
ATOM     15  C   UNL     1       5.464   3.698  13.094  0.00  0.00    +0.000 A 
ATOM     16  C   UNL     1       6.764   3.972  12.697  0.00  0.00    +0.000 A 
ATOM     17  F   UNL     1       7.226   3.447  11.555  0.00  0.00    +0.000 F 
ATOM     18  C   UNL     1       7.593   4.780  13.469  0.00  0.00    +0.000 A 
ATOM     19  C   UNL     1       7.124   5.306  14.677  0.00  0.00    +0.000 A 
ENDBRANCH   4  13
BRANCH   1  20
ATOM     20  O   UNL     1       4.134   1.324  17.919  0.00  0.00    +0.000 OA
ATOM     21  H   UNL     1       5.107   1.316  17.894  0.00  0.00    +0.000 HD
ENDBRANCH   1  20
TORSDOF 2
ENDMDL
MODEL 3
REMARK VINA RESULT:      -7.4      3.582      4.380
REMARK  Name = 
REMARK  2 active torsions:
REMARK  status: ('A' for Active; 'I' for Inactive)
REMARK    1  A    between atoms: O_1  and  C_2
REMARK    2  A    between atoms: N_5  and  C_6
REMARK                            x       y       z     vdW  Elec       q    Type
REMARK                         _______ _______ _______ _____ _____    ______ ____
ROOT
ATOM      1  C   UNL     1       3.936   2.657  18.061  0.00  0.00    +0.000 A 
ATOM      2  N   UNL     1       4.740   3.374  17.265  0.00  0.00    +0.000 NA
ATOM      3  C   UNL     1       4.596   4.715  17.279  0.00  0.00    +0.000 A 
ATOM      4  N   UNL     1       5.347   5.493  16.368  0.00  0.00    +0.000 N 
ATOM      5  C   UNL     1       3.689   5.350  18.122  0.00  0.00    +0.000 A 
ATOM      6  C   UNL     1       2.829   4.578  18.919  0.00  0.00    +0.000 A 
ATOM      7  C   UNL     1       1.828   5.157  19.717  0.00  0.00    +0.000 A 
ATOM      8  C   UNL     1       0.957   4.357  20.463  0.00  0.00    +0.000 A 
ATOM      9  C   UNL     1       1.084   2.970  20.436  0.00  0.00    +0.000 A 
ATOM     10  C   UNL     1       2.078   2.379  19.661  0.00  0.00    +0.000 A 
ATOM     11  C   UNL     1       2.949   3.175  18.892  0.00  0.00    +0.000 A 
ATOM     12  H   UNL     1       6.000   6.088  16.865  0.00  0.00    +0.000 HD
ENDROOT
BRANCH   4  13
ATOM     13  C   UNL     1       5.834   4.998  15.138  0.00  0.00    +0.000 A 
ATOM     14  C   UNL     1       7.153   5.274  14.731  0.00  0.00    +0.000 A 
ATOM     15  C   UNL     1       7.639   4.828  13.504  0.00  0.00    +0.000 A 
ATOM     16  C   UNL     1       6.813   4.072  12.687  0.00  0.00    +0.000 A 
ATOM     17  F   UNL     1       7.263   3.663  11.494  0.00  0.00    +0.000 F 
ATOM     18  C   UNL     1       5.523   3.737  13.088  0.00  0.00    +0.000 A 
ATOM     19  C   UNL     1       5.037   4.189  14.320  0.00  0.00    +0.000 A 
ENDBRANCH   4  13
BRANCH   1  20
ATOM     20  O   UNL     1       4.155   1.323  17.946  0.00  0.00    +0.000 OA
ATOM     21  H   UNL     1       3.346   0.991  18.373  0.00  0.00    +0.000 HD
ENDBRANCH   1  20
TORSDOF 2
ENDMDL
MODEL 4
REMARK VINA RESULT:      -7.3      0.083      1.111
REMARK  Name = 
REMARK  2 active torsions:
REMARK  status: ('A' for Active; 'I' for Inactive)
REMARK    1  A    between atoms: O_1  and  C_2
REMARK    2  A    between atoms: N_5  and  C_6
REMARK                            x       y       z     vdW  Elec       q    Type
REMARK                         _______ _______ _______ _____ _____    ______ ____
ROOT
ATOM      1  C   UNL     1       2.782   5.709  19.389  0.00  0.00    +0.000 A 
ATOM      2  N   UNL     1       3.834   6.121  18.669  0.00  0.00    +0.000 NA
ATOM      3  C   UNL     1       4.305   5.286  17.721  0.00  0.00    +0.000 A 
ATOM      4  N   UNL     1       5.483   5.639  17.023  0.00  0.00    +0.000 N 
ATOM      5  C   UNL     1       3.699   4.063  17.448  0.00  0.00    +0.000 A 
ATOM      6  C   UNL     1       2.622   3.634  18.241  0.00  0.00    +0.000 A 
ATOM      7  C   UNL     1       2.032   2.369  18.078  0.00  0.00    +0.000 A 
ATOM      8  C   UNL     1       0.992   1.954  18.915  0.00  0.00    +0.000 A 
ATOM      9  C   UNL     1       0.515   2.801  19.913  0.00  0.00    +0.000 A 
ATOM     10  C   UNL     1       1.079   4.062  20.080  0.00  0.00    +0.000 A 
ATOM     11  C   UNL     1       2.139   4.484  19.255  0.00  0.00    +0.000 A 
ATOM     12  H   UNL     1       5.280   5.790  16.041  0.00  0.00    +0.000 HD
ENDROOT
BRANCH   4  13
ATOM     13  C   UNL     1       6.473   6.498  17.550  0.00  0.00    +0.000 A 
ATOM     14  C   UNL     1       6.549   7.840  17.131  0.00  0.00    +0.000 A 
ATOM     15  C   UNL     1       7.541   8.691  17.610  0.00  0.00    +0.000 A 
ATOM     16  C   UNL     1       8.450   8.209  18.539  0.00  0.00    +0.000 A 
ATOM     17  F   UNL     1       9.425   9.014  18.983  0.00  0.00    +0.000 F 
ATOM     18  C   UNL     1       8.366   6.903  19.012  0.00  0.00    +0.000 A 
ATOM     19  C   UNL     1       7.369   6.051  18.527  0.00  0.00    +0.000 A 
ENDBRANCH   4  13
BRANCH   1  20
ATOM     20  O   UNL     1       2.412   6.619  20.325  0.00  0.00    +0.000 OA
ATOM     21  H   UNL     1       2.998   6.346  21.053  0.00  0.00    +0.000 HD
ENDBRANCH   1  20
TORSDOF 2
ENDMDL
MODEL 5
REMARK VINA RESULT:      -7.2      3.456      5.058
REMARK  Name = 
REMARK  2 active torsions:
REMARK  status: ('A' for Active; 'I' for Inactive)
REMARK    1  A    between atoms: O_1  and  C_2
REMARK    2  A    between atoms: N_5  and  C_6
REMARK                            x       y       z     vdW  Elec       q    Type
REMARK                         _______ _______ _______ _____ _____    ______ ____
ROOT
ATOM      1  C   UNL     1       1.903   8.682  18.459  0.00  0.00    +0.000 A 
ATOM      2  N   UNL     1       2.447   7.460  18.389  0.00  0.00    +0.000 NA
ATOM      3  C   UNL     1       2.389   6.688  19.494  0.00  0.00    +0.000 A 
ATOM      4  N   UNL     1       3.053   5.440  19.492  0.00  0.00    +0.000 N 
ATOM      5  C   UNL     1       1.742   7.108  20.652  0.00  0.00    +0.000 A 
ATOM      6  C   UNL     1       1.213   8.407  20.717  0.00  0.00    +0.000 A 
ATOM      7  C   UNL     1       0.636   8.921  21.889  0.00  0.00    +0.000 A 
ATOM      8  C   UNL     1       0.160  10.235  21.934  0.00  0.00    +0.000 A 
ATOM      9  C   UNL     1       0.239  11.048  20.805  0.00  0.00    +0.000 A 
ATOM     10  C   UNL     1       0.796  10.551  19.631  0.00  0.00    +0.000 A 
ATOM     11  C   UNL     1       1.294   9.234  19.580  0.00  0.00    +0.000 A 
ATOM     12  H   UNL     1       2.384   4.683  19.570  0.00  0.00    +0.000 HD
ENDROOT
BRANCH   4  13
ATOM     13  C   UNL     1       4.164   5.150  18.669  0.00  0.00    +0.000 A 
ATOM     14  C   UNL     1       5.474   5.370  19.136  0.00  0.00    +0.000 A 
ATOM     15  C   UNL     1       6.580   5.127  18.326  0.00  0.00    +0.000 A 
ATOM     16  C   UNL     1       6.382   4.631  17.046  0.00  0.00    +0.000 A 
ATOM     17  F   UNL     1       7.439   4.421  16.251  0.00  0.00    +0.000 F 
ATOM     18  C   UNL     1       5.101   4.354  16.577  0.00  0.00    +0.000 A 
ATOM     19  C   UNL     1       3.992   4.601  17.393  0.00  0.00    +0.000 A 
ENDBRANCH   4  13
BRANCH   1  20
ATOM     20  O   UNL     1       2.043   9.373  17.299  0.00  0.00    +0.000 OA
ATOM     21  H   UNL     1       1.804  10.263  17.615  0.00  0.00    +0.000 HD
ENDBRANCH   1  20
TORSDOF 2
ENDMDL
MODEL 6
REMARK VINA RESULT:      -7.2      3.486      5.116
REMARK  Name = 
REMARK  2 active torsions:
REMARK  status: ('A' for Active; 'I' for Inactive)
REMARK    1  A    between atoms: O_1  and  C_2
REMARK    2  A    between atoms: N_5  and  C_6
REMARK                            x       y       z     vdW  Elec       q    Type
REMARK                         _______ _______ _______ _____ _____    ______ ____
ROOT
ATOM      1  C   UNL     1       1.880   8.734  18.474  0.00  0.00    +0.000 A 
ATOM      2  N   UNL     1       2.438   7.519  18.396  0.00  0.00    +0.000 NA
ATOM      3  C   UNL     1       2.384   6.737  19.494  0.00  0.00    +0.000 A 
ATOM      4  N   UNL     1       3.063   5.497  19.485  0.00  0.00    +0.000 N 
ATOM      5  C   UNL     1       1.727   7.139  20.653  0.00  0.00    +0.000 A 
ATOM      6  C   UNL     1       1.182   8.432  20.726  0.00  0.00    +0.000 A 
ATOM      7  C   UNL     1       0.593   8.930  21.900  0.00  0.00    +0.000 A 
ATOM      8  C   UNL     1       0.102  10.237  21.953  0.00  0.00    +0.000 A 
ATOM      9  C   UNL     1       0.176  11.060  20.831  0.00  0.00    +0.000 A 
ATOM     10  C   UNL     1       0.745  10.579  19.655  0.00  0.00    +0.000 A 
ATOM     11  C   UNL     1       1.259   9.269  19.596  0.00  0.00    +0.000 A 
ATOM     12  H   UNL     1       2.402   4.731  19.554  0.00  0.00    +0.000 HD
ENDROOT
BRANCH   4  13
ATOM     13  C   UNL     1       4.181   5.227  18.665  0.00  0.00    +0.000 A 
ATOM     14  C   UNL     1       4.003   4.748  17.353  0.00  0.00    +0.000 A 
ATOM     15  C   UNL     1       5.094   4.441  16.543  0.00  0.00    +0.000 A 
ATOM     16  C   UNL     1       6.375   4.639  17.034  0.00  0.00    +0.000 A 
ATOM     17  F   UNL     1       7.428   4.319  16.271  0.00  0.00    +0.000 F 
ATOM     18  C   UNL     1       6.580   5.162  18.307  0.00  0.00    +0.000 A 
ATOM     19  C   UNL     1       5.483   5.469  19.119  0.00  0.00    +0.000 A 
ENDBRANCH   4  13
BRANCH   1  20
ATOM     20  O   UNL     1       2.017   9.436  17.321  0.00  0.00    +0.000 OA
ATOM     21  H   UNL     1       2.704   8.899  16.888  0.00  0.00    +0.000 HD
ENDBRANCH   1  20
TORSDOF 2
ENDMDL
MODEL 7
REMARK VINA RESULT:      -7.1      3.789      6.245
REMARK  Name = 
REMARK  2 active torsions:
REMARK  status: ('A' for Active; 'I' for Inactive)
REMARK    1  A    between atoms: O_1  and  C_2
REMARK    2  A    between atoms: N_5  and  C_6
REMARK                            x       y       z     vdW  Elec       q    Type
REMARK                         _______ _______ _______ _____ _____    ______ ____
ROOT
ATOM      1  C   UNL     1       6.704   5.491  15.940  0.00  0.00    +0.000 A 
ATOM      2  N   UNL     1       5.772   5.081  16.810  0.00  0.00    +0.000 NA
ATOM      3  C   UNL     1       4.915   4.124  16.399  0.00  0.00    +0.000 A 
ATOM      4  N   UNL     1       3.848   3.751  17.249  0.00  0.00    +0.000 N 
ATOM      5  C   UNL     1       5.016   3.533  15.143  0.00  0.00    +0.000 A 
ATOM      6  C   UNL     1       5.976   4.005  14.233  0.00  0.00    +0.000 A 
ATOM      7  C   UNL     1       6.063   3.517  12.919  0.00  0.00    +0.000 A 
ATOM      8  C   UNL     1       6.999   4.041  12.023  0.00  0.00    +0.000 A 
ATOM      9  C   UNL     1       7.873   5.046  12.431  0.00  0.00    +0.000 A 
ATOM     10  C   UNL     1       7.810   5.533  13.733  0.00  0.00    +0.000 A 
ATOM     11  C   UNL     1       6.858   5.026  14.639  0.00  0.00    +0.000 A 
ATOM     12  H   UNL     1       3.953   2.788  17.547  0.00  0.00    +0.000 HD
ENDROOT
BRANCH   4  13
ATOM     13  C   UNL     1       3.300   4.606  18.231  0.00  0.00    +0.000 A 
ATOM     14  C   UNL     1       3.038   4.125  19.528  0.00  0.00    +0.000 A 
ATOM     15  C   UNL     1       2.462   4.941  20.499  0.00  0.00    +0.000 A 
ATOM     16  C   UNL     1       2.171   6.260  20.183  0.00  0.00    +0.000 A 
ATOM     17  F   UNL     1       1.591   7.043  21.102  0.00  0.00    +0.000 F 
ATOM     18  C   UNL     1       2.469   6.777  18.926  0.00  0.00    +0.000 A 
ATOM     19  C   UNL     1       3.046   5.954  17.954  0.00  0.00    +0.000 A 
ENDBRANCH   4  13
BRANCH   1  20
ATOM     20  O   UNL     1       7.492   6.469  16.453  0.00  0.00    +0.000 OA
ATOM     21  H   UNL     1       7.492   6.199  17.388  0.00  0.00    +0.000 HD
ENDBRANCH   1  20
TORSDOF 2
ENDMDL
MODEL 8
REMARK VINA RESULT:      -7.1      3.708      4.637
REMARK  Name = 
REMARK  2 active torsions:
REMARK  status: ('A' for Active; 'I' for Inactive)
REMARK    1  A    between atoms: O_1  and  C_2
REMARK    2  A    between atoms: N_5  and  C_6
REMARK                            x       y       z     vdW  Elec       q    Type
REMARK                         _______ _______ _______ _____ _____    ______ ____
ROOT
ATOM      1  C   UNL     1       4.340   3.611  18.200  0.00  0.00    +0.000 A 
ATOM      2  N   UNL     1       5.107   4.098  17.216  0.00  0.00    +0.000 NA
ATOM      3  C   UNL     1       5.056   5.426  16.985  0.00  0.00    +0.000 A 
ATOM      4  N   UNL     1       5.764   5.956  15.882  0.00  0.00    +0.000 N 
ATOM      5  C   UNL     1       4.283   6.281  17.766  0.00  0.00    +0.000 A 
ATOM      6  C   UNL     1       3.456   5.744  18.766  0.00  0.00    +0.000 A 
ATOM      7  C   UNL     1       2.582   6.543  19.521  0.00  0.00    +0.000 A 
ATOM      8  C   UNL     1       1.738   5.972  20.477  0.00  0.00    +0.000 A 
ATOM      9  C   UNL     1       1.767   4.598  20.706  0.00  0.00    +0.000 A 
ATOM     10  C   UNL     1       2.636   3.792  19.977  0.00  0.00    +0.000 A 
ATOM     11  C   UNL     1       3.478   4.355  18.998  0.00  0.00    +0.000 A 
ATOM     12  H   UNL     1       6.501   6.575  16.199  0.00  0.00    +0.000 HD
ENDROOT
BRANCH   4  13
ATOM     13  C   UNL     1       6.091   5.204  14.732  0.00  0.00    +0.000 A 
ATOM     14  C   UNL     1       5.161   4.300  14.184  0.00  0.00    +0.000 A 
ATOM     15  C   UNL     1       5.479   3.521  13.073  0.00  0.00    +0.000 A 
ATOM     16  C   UNL     1       6.727   3.665  12.485  0.00  0.00    +0.000 A 
ATOM     17  F   UNL     1       7.050   2.900  11.435  0.00  0.00    +0.000 F 
ATOM     18  C   UNL     1       7.645   4.589  12.973  0.00  0.00    +0.000 A 
ATOM     19  C   UNL     1       7.323   5.369  14.089  0.00  0.00    +0.000 A 
ENDBRANCH   4  13
BRANCH   1  20
ATOM     20  O   UNL     1       4.456   2.265  18.324  0.00  0.00    +0.000 OA
ATOM     21  H   UNL     1       4.218   2.171  19.263  0.00  0.00    +0.000 HD
ENDBRANCH   1  20
TORSDOF 2
ENDMDL
MODEL 9
REMARK VINA RESULT:      -7.0      3.772      6.305
REMARK  Name = 
REMARK  2 active torsions:
REMARK  status: ('A' for Active; 'I' for Inactive)
REMARK    1  A    between atoms: O_1  and  C_2
REMARK    2  A    between atoms: N_5  and  C_6
REMARK                            x       y       z     vdW  Elec       q    Type
REMARK                         _______ _______ _______ _____ _____    ______ ____
ROOT
ATOM      1  C   UNL     1       6.668   5.506  15.893  0.00  0.00    +0.000 A 
ATOM      2  N   UNL     1       5.721   5.130  16.763  0.00  0.00    +0.000 NA
ATOM      3  C   UNL     1       4.850   4.181  16.363  0.00  0.00    +0.000 A 
ATOM      4  N   UNL     1       3.770   3.843  17.210  0.00  0.00    +0.000 N 
ATOM      5  C   UNL     1       4.950   3.566  15.118  0.00  0.00    +0.000 A 
ATOM      6  C   UNL     1       5.926   4.003  14.208  0.00  0.00    +0.000 A 
ATOM      7  C   UNL     1       6.015   3.490  12.903  0.00  0.00    +0.000 A 
ATOM      8  C   UNL     1       6.968   3.980  12.006  0.00  0.00    +0.000 A 
ATOM      9  C   UNL     1       7.856   4.977  12.403  0.00  0.00    +0.000 A 
ATOM     10  C   UNL     1       7.791   5.489  13.696  0.00  0.00    +0.000 A 
ATOM     11  C   UNL     1       6.823   5.015  14.602  0.00  0.00    +0.000 A 
ATOM     12  H   UNL     1       3.855   2.884  17.526  0.00  0.00    +0.000 HD
ENDROOT
BRANCH   4  13
ATOM     13  C   UNL     1       3.229   4.725  18.172  0.00  0.00    +0.000 A 
ATOM     14  C   UNL     1       2.991   6.074  17.848  0.00  0.00    +0.000 A 
ATOM     15  C   UNL     1       2.494   6.968  18.793  0.00  0.00    +0.000 A 
ATOM     16  C   UNL     1       2.204   6.507  20.068  0.00  0.00    +0.000 A 
ATOM     17  F   UNL     1       1.753   7.366  20.991  0.00  0.00    +0.000 F 
ATOM     18  C   UNL     1       2.378   5.167  20.401  0.00  0.00    +0.000 A 
ATOM     19  C   UNL     1       2.879   4.272  19.449  0.00  0.00    +0.000 A 
ENDBRANCH   4  13
BRANCH   1  20
ATOM     20  O   UNL     1       7.469   6.480  16.396  0.00  0.00    +0.000 OA
ATOM     21  H   UNL     1       7.531   6.174  17.318  0.00  0.00    +0.000 HD
ENDBRANCH   1  20
TORSDOF 2
ENDMDL
