MODEL 1
REMARK VINA RESULT:      -7.5      0.000      0.000
REMARK  Name = 
REMARK  21 active torsions:
REMARK  status: ('A' for Active; 'I' for Inactive)
REMARK    1  A    between atoms: C_1  and  C_2
REMARK    2  A    between atoms: C_2  and  C_3
REMARK    3  A    between atoms: C_3  and  C_4
REMARK    4  A    between atoms: C_3  and  C_5
REMARK    5  A    between atoms: C_6  and  C_7
REMARK    6  A    between atoms: C_6  and  C_8
REMARK    7  A    between atoms: C_8  and  C_9
REMARK    8  A    between atoms: C_9  and  C_10
REMARK    9  A    between atoms: C_9  and  C_11
REMARK   10  A    between atoms: C_11  and  C_12
REMARK   11  A    between atoms: C_12  and  C_13
REMARK   12  A    between atoms: C_12  and  C_14
REMARK   13  A    between atoms: C_15  and  C_16
REMARK   14  A    between atoms: C_17  and  C_18
REMARK   15  A    between atoms: C_19  and  C_20
REMARK   16  A    between atoms: N_22  and  CA_23
REMARK   17  A    between atoms: CA_23  and  C_24
REMARK   18  A    between atoms: CA_23  and  C_26
REMARK   19  A    between atoms: C_24  and  O_25
REMARK   20  A    between atoms: C_26  and  C_27
REMARK   21  A    between atoms: C_27  and  O_28
REMARK                            x       y       z     vdW  Elec       q    Type
REMARK                         _______ _______ _______ _____ _____    ______ ____
ROOT
ATOM      1  C   UNL     1       8.390   8.398  18.638  0.00  0.00    +0.000 C 
ATOM      2  C   UNL     1       7.704   8.057  17.537  0.00  0.00    +0.000 C 
ENDROOT
BRANCH   2   3
ATOM      3  C   UNL     1       7.120   6.696  17.421  0.00  0.00    +0.000 C 
ATOM      4  O   UNL     1       7.813   5.690  17.339  0.00  0.00    +0.000 OA
ATOM      5  N   UNL     1       5.744   6.671  17.448  0.00  0.00    +0.000 N 
ATOM      6  H   UNL     1       5.245   7.542  17.564  0.00  0.00    +0.000 HD
BRANCH   5   7
ATOM      7  CA  UNL     1       4.936   5.433  17.476  0.00  0.00    +0.000 C 
BRANCH   7   8
ATOM      8  C   UNL     1       5.040   4.654  16.145  0.00  0.00    +0.000 C 
BRANCH   8   9
ATOM      9  O   UNL     1       5.895   3.517  16.199  0.00  0.00    +0.000 OA
ATOM     10  H   UNL     1       5.756   2.991  15.384  0.00  0.00    +0.000 HD
ENDBRANCH   8   9
ENDBRANCH   7   8
BRANCH   7  11
ATOM     11  C   UNL     1       3.497   5.721  17.966  0.00  0.00    +0.000 C 
BRANCH  11  12
ATOM     12  C   UNL     1       2.797   4.622  18.809  0.00  0.00    +0.000 C 
ATOM     13  C   UNL     1       1.988   3.704  17.856  0.00  0.00    +0.000 C 
ATOM     14  O   UNL     1       0.992   4.091  17.239  0.00  0.00    +0.000 OA
ATOM     15  C   UNL     1       2.401   2.290  17.649  0.00  0.00    +0.000 C 
ATOM     16  C   UNL     1       3.343   1.731  18.416  0.00  0.00    +0.000 C 
ATOM     17  C   UNL     1       4.037   2.407  19.506  0.00  0.00    +0.000 C 
ATOM     18  O   UNL     1       3.309   2.980  20.602  0.00  0.00    +0.000 OA
ATOM     19  C   UNL     1       3.845   3.894  19.625  0.00  0.00    +0.000 C 
BRANCH  12  20
ATOM     20  O   UNL     1       1.908   5.228  19.738  0.00  0.00    +0.000 OA
ATOM     21  H   UNL     1       2.340   5.202  20.610  0.00  0.00    +0.000 HD
ENDBRANCH  12  20
ENDBRANCH  11  12
ENDBRANCH   7  11
ENDBRANCH   5   7
ENDBRANCH   2   3
BRANCH   1  23
ATOM     22  C   UNL     1       8.971  10.669  17.898  0.00  0.00    +0.000 C 
ATOM     23  C   UNL     1       8.998   9.699  18.827  0.00  0.00    +0.000 C 
BRANCH  22  25
ATOM     24  C   UNL     1       8.875  13.139  17.912  0.00  0.00    +0.000 C 
ATOM     25  C   UNL     1       9.519  11.983  18.148  0.00  0.00    +0.000 C 
BRANCH  24  26
ATOM     26  C   UNL     1       9.452  14.479  18.323  0.00  0.00    +0.000 C 
ATOM     27  C   UNL     1      10.974  14.348  18.427  0.00  0.00    +0.000 C 
BRANCH  26  28
ATOM     28  C   UNL     1       8.815  14.992  19.632  0.00  0.00    +0.000 C 
BRANCH  28  29
ATOM     29  C   UNL     1       7.276  15.192  19.598  0.00  0.00    +0.000 C 
ATOM     30  C   UNL     1       6.919  16.187  18.480  0.00  0.00    +0.000 C 
BRANCH  29  31
ATOM     31  C   UNL     1       6.700  15.641  20.965  0.00  0.00    +0.000 C 
BRANCH  31  33
ATOM     32  C   UNL     1       6.805  13.509  22.265  0.00  0.00    +0.000 C 
ATOM     33  C   UNL     1       7.176  14.799  22.142  0.00  0.00    +0.000 C 
ATOM     34  C   UNL     1       8.054  15.511  23.138  0.00  0.00    +0.000 C 
BRANCH  32  35
ATOM     35  C   UNL     1       7.303  12.529  23.308  0.00  0.00    +0.000 C 
ATOM     36  C   UNL     1       8.389  11.638  22.693  0.00  0.00    +0.000 C 
BRANCH  35  38
ATOM     37  C   UNL     1       6.387  11.279  25.335  0.00  0.00    +0.000 C 
ATOM     38  C   UNL     1       6.141  11.709  23.894  0.00  0.00    +0.000 C 
ENDBRANCH  35  38
ENDBRANCH  32  35
ENDBRANCH  31  33
ENDBRANCH  29  31
ENDBRANCH  28  29
ENDBRANCH  26  28
ENDBRANCH  24  26
ENDBRANCH  22  25
ENDBRANCH   1  23
TORSDOF 16
ENDMDL
MODEL 2
REMARK VINA RESULT:      -7.4      2.261      3.509
REMARK  Name = 
REMARK  21 active torsions:
REMARK  status: ('A' for Active; 'I' for Inactive)
REMARK    1  A    between atoms: C_1  and  C_2
REMARK    2  A    between atoms: C_2  and  C_3
REMARK    3  A    between atoms: C_3  and  C_4
REMARK    4  A    between atoms: C_3  and  C_5
REMARK    5  A    between atoms: C_6  and  C_7
REMARK    6  A    between atoms: C_6  and  C_8
REMARK    7  A    between atoms: C_8  and  C_9
REMARK    8  A    between atoms: C_9  and  C_10
REMARK    9  A    between atoms: C_9  and  C_11
REMARK   10  A    between atoms: C_11  and  C_12
REMARK   11  A    between atoms: C_12  and  C_13
REMARK   12  A    between atoms: C_12  and  C_14
REMARK   13  A    between atoms: C_15  and  C_16
REMARK   14  A    between atoms: C_17  and  C_18
REMARK   15  A    between atoms: C_19  and  C_20
REMARK   16  A    between atoms: N_22  and  CA_23
REMARK   17  A    between atoms: CA_23  and  C_24
REMARK   18  A    between atoms: CA_23  and  C_26
REMARK   19  A    between atoms: C_24  and  O_25
REMARK   20  A    between atoms: C_26  and  C_27
REMARK   21  A    between atoms: C_27  and  O_28
REMARK                            x       y       z     vdW  Elec       q    Type
REMARK                         _______ _______ _______ _____ _____    ______ ____
ROOT
ATOM      1  C   UNL     1       8.632   8.936  18.815  0.00  0.00    +0.000 C 
ATOM      2  C   UNL     1       8.125   8.410  17.690  0.00  0.00    +0.000 C 
ENDROOT
BRANCH   2   3
ATOM      3  C   UNL     1       7.612   7.016  17.691  0.00  0.00    +0.000 C 
ATOM      4  O   UNL     1       7.493   6.362  18.720  0.00  0.00    +0.000 OA
ATOM      5  N   UNL     1       7.255   6.548  16.447  0.00  0.00    +0.000 N 
ATOM      6  H   UNL     1       7.341   7.167  15.653  0.00  0.00    +0.000 HD
BRANCH   5   7
ATOM      7  CA  UNL     1       6.603   5.243  16.206  0.00  0.00    +0.000 C 
BRANCH   7   8
ATOM      8  C   UNL     1       6.868   4.728  14.773  0.00  0.00    +0.000 C 
BRANCH   8   9
ATOM      9  O   UNL     1       6.341   3.432  14.510  0.00  0.00    +0.000 OA
ATOM     10  H   UNL     1       6.206   3.347  13.543  0.00  0.00    +0.000 HD
ENDBRANCH   8   9
ENDBRANCH   7   8
BRANCH   7  11
ATOM     11  C   UNL     1       5.117   5.279  16.635  0.00  0.00    +0.000 C 
BRANCH  11  12
ATOM     12  C   UNL     1       4.676   4.306  17.760  0.00  0.00    +0.000 C 
ATOM     13  C   UNL     1       3.804   5.085  18.779  0.00  0.00    +0.000 C 
ATOM     14  O   UNL     1       4.256   5.974  19.505  0.00  0.00    +0.000 OA
ATOM     15  C   UNL     1       2.355   4.777  18.913  0.00  0.00    +0.000 C 
ATOM     16  C   UNL     1       1.821   3.708  18.313  0.00  0.00    +0.000 C 
ATOM     17  C   UNL     1       2.566   2.752  17.503  0.00  0.00    +0.000 C 
ATOM     18  O   UNL     1       3.690   2.043  18.045  0.00  0.00    +0.000 OA
ATOM     19  C   UNL     1       3.976   3.119  17.130  0.00  0.00    +0.000 C 
BRANCH  12  20
ATOM     20  O   UNL     1       5.824   3.794  18.425  0.00  0.00    +0.000 OA
ATOM     21  H   UNL     1       5.557   3.579  19.337  0.00  0.00    +0.000 HD
ENDBRANCH  12  20
ENDBRANCH  11  12
ENDBRANCH   7  11
ENDBRANCH   5   7
ENDBRANCH   2   3
BRANCH   1  23
ATOM     22  C   UNL     1       9.904  10.845  17.928  0.00  0.00    +0.000 C 
ATOM     23  C   UNL     1       9.162  10.282  18.896  0.00  0.00    +0.000 C 
BRANCH  22  25
ATOM     24  C   UNL     1       9.648  13.276  17.566  0.00  0.00    +0.000 C 
ATOM     25  C   UNL     1      10.349  12.218  18.006  0.00  0.00    +0.000 C 
BRANCH  24  26
ATOM     26  C   UNL     1      10.111  14.700  17.800  0.00  0.00    +0.000 C 
ATOM     27  C   UNL     1      11.546  14.842  17.285  0.00  0.00    +0.000 C 
BRANCH  26  28
ATOM     28  C   UNL     1       9.976  15.102  19.284  0.00  0.00    +0.000 C 
BRANCH  28  29
ATOM     29  C   UNL     1       8.648  15.805  19.673  0.00  0.00    +0.000 C 
ATOM     30  C   UNL     1       8.929  16.851  20.766  0.00  0.00    +0.000 C 
BRANCH  29  31
ATOM     31  C   UNL     1       7.547  14.805  20.111  0.00  0.00    +0.000 C 
BRANCH  31  33
ATOM     32  C   UNL     1       5.066  15.080  19.979  0.00  0.00    +0.000 C 
ATOM     33  C   UNL     1       6.243  14.944  19.335  0.00  0.00    +0.000 C 
ATOM     34  C   UNL     1       6.371  14.897  17.835  0.00  0.00    +0.000 C 
BRANCH  32  35
ATOM     35  C   UNL     1       3.720  15.351  19.336  0.00  0.00    +0.000 C 
ATOM     36  C   UNL     1       3.350  14.183  18.415  0.00  0.00    +0.000 C 
BRANCH  35  38
ATOM     37  C   UNL     1       3.013  16.636  17.249  0.00  0.00    +0.000 C 
ATOM     38  C   UNL     1       3.725  16.698  18.594  0.00  0.00    +0.000 C 
ENDBRANCH  35  38
ENDBRANCH  32  35
ENDBRANCH  31  33
ENDBRANCH  29  31
ENDBRANCH  28  29
ENDBRANCH  26  28
ENDBRANCH  24  26
ENDBRANCH  22  25
ENDBRANCH   1  23
TORSDOF 16
ENDMDL
MODEL 3
REMARK VINA RESULT:      -7.3      1.710      2.632
REMARK  Name = 
REMARK  21 active torsions:
REMARK  status: ('A' for Active; 'I' for Inactive)
REMARK    1  A    between atoms: C_1  and  C_2
REMARK    2  A    between atoms: C_2  and  C_3
REMARK    3  A    between atoms: C_3  and  C_4
REMARK    4  A    between atoms: C_3  and  C_5
REMARK    5  A    between atoms: C_6  and  C_7
REMARK    6  A    between atoms: C_6  and  C_8
REMARK    7  A    between atoms: C_8  and  C_9
REMARK    8  A    between atoms: C_9  and  C_10
REMARK    9  A    between atoms: C_9  and  C_11
REMARK   10  A    between atoms: C_11  and  C_12
REMARK   11  A    between atoms: C_12  and  C_13
REMARK   12  A    between atoms: C_12  and  C_14
REMARK   13  A    between atoms: C_15  and  C_16
REMARK   14  A    between atoms: C_17  and  C_18
REMARK   15  A    between atoms: C_19  and  C_20
REMARK   16  A    between atoms: N_22  and  CA_23
REMARK   17  A    between atoms: CA_23  and  C_24
REMARK   18  A    between atoms: CA_23  and  C_26
REMARK   19  A    between atoms: C_24  and  O_25
REMARK   20  A    between atoms: C_26  and  C_27
REMARK   21  A    between atoms: C_27  and  O_28
REMARK                            x       y       z     vdW  Elec       q    Type
REMARK                         _______ _______ _______ _____ _____    ______ ____
ROOT
ATOM      1  C   UNL     1       8.130   8.524  17.938  0.00  0.00    +0.000 C 
ATOM      2  C   UNL     1       8.339   7.415  18.663  0.00  0.00    +0.000 C 
ENDROOT
BRANCH   2   3
ATOM      3  C   UNL     1       7.656   6.149  18.292  0.00  0.00    +0.000 C 
ATOM      4  O   UNL     1       7.629   5.176  19.036  0.00  0.00    +0.000 OA
ATOM      5  N   UNL     1       7.037   6.184  17.063  0.00  0.00    +0.000 N 
ATOM      6  H   UNL     1       7.068   7.041  16.529  0.00  0.00    +0.000 HD
BRANCH   5   7
ATOM      7  CA  UNL     1       6.189   5.097  16.528  0.00  0.00    +0.000 C 
BRANCH   7   8
ATOM      8  C   UNL     1       6.295   4.995  14.990  0.00  0.00    +0.000 C 
BRANCH   8   9
ATOM      9  O   UNL     1       7.618   5.133  14.484  0.00  0.00    +0.000 OA
ATOM     10  H   UNL     1       8.243   5.040  15.233  0.00  0.00    +0.000 HD
ENDBRANCH   8   9
ENDBRANCH   7   8
BRANCH   7  11
ATOM     11  C   UNL     1       4.752   5.188  17.092  0.00  0.00    +0.000 C 
BRANCH  11  12
ATOM     12  C   UNL     1       4.323   4.116  18.128  0.00  0.00    +0.000 C 
ATOM     13  C   UNL     1       3.370   4.774  19.160  0.00  0.00    +0.000 C 
ATOM     14  O   UNL     1       3.743   5.632  19.964  0.00  0.00    +0.000 OA
ATOM     15  C   UNL     1       1.936   4.381  19.212  0.00  0.00    +0.000 C 
ATOM     16  C   UNL     1       1.487   3.330  18.518  0.00  0.00    +0.000 C 
ATOM     17  C   UNL     1       2.315   2.474  17.677  0.00  0.00    +0.000 C 
ATOM     18  O   UNL     1       3.455   1.789  18.216  0.00  0.00    +0.000 OA
ATOM     19  C   UNL     1       3.715   2.941  17.390  0.00  0.00    +0.000 C 
BRANCH  12  20
ATOM     20  O   UNL     1       5.471   3.620  18.805  0.00  0.00    +0.000 OA
ATOM     21  H   UNL     1       5.773   4.320  19.411  0.00  0.00    +0.000 HD
ENDBRANCH  12  20
ENDBRANCH  11  12
ENDBRANCH   7  11
ENDBRANCH   5   7
ENDBRANCH   2   3
BRANCH   1  23
ATOM     22  C   UNL     1       8.323  10.966  17.725  0.00  0.00    +0.000 C 
ATOM     23  C   UNL     1       8.749   9.799  18.238  0.00  0.00    +0.000 C 
BRANCH  22  25
ATOM     24  C   UNL     1       9.057  12.655  19.373  0.00  0.00    +0.000 C 
ATOM     25  C   UNL     1       8.912  12.229  18.107  0.00  0.00    +0.000 C 
BRANCH  24  26
ATOM     26  C   UNL     1       9.806  13.929  19.712  0.00  0.00    +0.000 C 
ATOM     27  C   UNL     1      11.208  13.560  20.203  0.00  0.00    +0.000 C 
BRANCH  26  28
ATOM     28  C   UNL     1       9.030  14.786  20.735  0.00  0.00    +0.000 C 
BRANCH  28  29
ATOM     29  C   UNL     1       8.175  13.997  21.763  0.00  0.00    +0.000 C 
ATOM     30  C   UNL     1       6.719  14.491  21.694  0.00  0.00    +0.000 C 
BRANCH  29  31
ATOM     31  C   UNL     1       8.739  14.086  23.204  0.00  0.00    +0.000 C 
BRANCH  31  33
ATOM     32  C   UNL     1       7.694  13.378  25.362  0.00  0.00    +0.000 C 
ATOM     33  C   UNL     1       8.178  13.032  24.152  0.00  0.00    +0.000 C 
ATOM     34  C   UNL     1       8.225  11.614  23.648  0.00  0.00    +0.000 C 
BRANCH  32  35
ATOM     35  C   UNL     1       6.997  12.457  26.344  0.00  0.00    +0.000 C 
ATOM     36  C   UNL     1       5.483  12.514  26.109  0.00  0.00    +0.000 C 
BRANCH  35  38
ATOM     37  C   UNL     1       8.411  13.923  27.880  0.00  0.00    +0.000 C 
ATOM     38  C   UNL     1       7.375  12.810  27.793  0.00  0.00    +0.000 C 
ENDBRANCH  35  38
ENDBRANCH  32  35
ENDBRANCH  31  33
ENDBRANCH  29  31
ENDBRANCH  28  29
ENDBRANCH  26  28
ENDBRANCH  24  26
ENDBRANCH  22  25
ENDBRANCH   1  23
TORSDOF 16
ENDMDL
MODEL 4
REMARK VINA RESULT:      -7.2      1.046      1.613
REMARK  Name = 
REMARK  21 active torsions:
REMARK  status: ('A' for Active; 'I' for Inactive)
REMARK    1  A    between atoms: C_1  and  C_2
REMARK    2  A    between atoms: C_2  and  C_3
REMARK    3  A    between atoms: C_3  and  C_4
REMARK    4  A    between atoms: C_3  and  C_5
REMARK    5  A    between atoms: C_6  and  C_7
REMARK    6  A    between atoms: C_6  and  C_8
REMARK    7  A    between atoms: C_8  and  C_9
REMARK    8  A    between atoms: C_9  and  C_10
REMARK    9  A    between atoms: C_9  and  C_11
REMARK   10  A    between atoms: C_11  and  C_12
REMARK   11  A    between atoms: C_12  and  C_13
REMARK   12  A    between atoms: C_12  and  C_14
REMARK   13  A    between atoms: C_15  and  C_16
REMARK   14  A    between atoms: C_17  and  C_18
REMARK   15  A    between atoms: C_19  and  C_20
REMARK   16  A    between atoms: N_22  and  CA_23
REMARK   17  A    between atoms: CA_23  and  C_24
REMARK   18  A    between atoms: CA_23  and  C_26
REMARK   19  A    between atoms: C_24  and  O_25
REMARK   20  A    between atoms: C_26  and  C_27
REMARK   21  A    between atoms: C_27  and  O_28
REMARK                            x       y       z     vdW  Elec       q    Type
REMARK                         _______ _______ _______ _____ _____    ______ ____
ROOT
ATOM      1  C   UNL     1       7.949   8.349  17.885  0.00  0.00    +0.000 C 
ATOM      2  C   UNL     1       8.184   7.309  18.697  0.00  0.00    +0.000 C 
ENDROOT
BRANCH   2   3
ATOM      3  C   UNL     1       7.516   6.006  18.443  0.00  0.00    +0.000 C 
ATOM      4  O   UNL     1       8.038   4.935  18.725  0.00  0.00    +0.000 OA
ATOM      5  N   UNL     1       6.256   6.119  17.899  0.00  0.00    +0.000 N 
ATOM      6  H   UNL     1       5.878   7.041  17.737  0.00  0.00    +0.000 HD
BRANCH   5   7
ATOM      7  CA  UNL     1       5.344   4.977  17.673  0.00  0.00    +0.000 C 
BRANCH   7   8
ATOM      8  C   UNL     1       5.674   4.233  16.359  0.00  0.00    +0.000 C 
BRANCH   8   9
ATOM      9  O   UNL     1       4.933   4.684  15.231  0.00  0.00    +0.000 OA
ATOM     10  H   UNL     1       4.025   4.902  15.528  0.00  0.00    +0.000 HD
ENDBRANCH   8   9
ENDBRANCH   7   8
BRANCH   7  11
ATOM     11  C   UNL     1       3.868   5.406  17.842  0.00  0.00    +0.000 C 
BRANCH  11  12
ATOM     12  C   UNL     1       2.970   4.531  18.756  0.00  0.00    +0.000 C 
ATOM     13  C   UNL     1       2.034   3.674  17.863  0.00  0.00    +0.000 C 
ATOM     14  O   UNL     1       1.134   4.162  17.175  0.00  0.00    +0.000 OA
ATOM     15  C   UNL     1       2.201   2.197  17.805  0.00  0.00    +0.000 C 
ATOM     16  C   UNL     1       3.016   1.564  18.656  0.00  0.00    +0.000 C 
ATOM     17  C   UNL     1       3.792   2.216  19.704  0.00  0.00    +0.000 C 
ATOM     18  O   UNL     1       3.150   3.010  20.713  0.00  0.00    +0.000 OA
ATOM     19  C   UNL     1       3.858   3.719  19.676  0.00  0.00    +0.000 C 
BRANCH  12  20
ATOM     20  O   UNL     1       2.179   5.368  19.590  0.00  0.00    +0.000 OA
ATOM     21  H   UNL     1       2.644   6.220  19.668  0.00  0.00    +0.000 HD
ENDBRANCH  12  20
ENDBRANCH  11  12
ENDBRANCH   7  11
ENDBRANCH   5   7
ENDBRANCH   2   3
BRANCH   1  23
ATOM     22  C   UNL     1       9.451   9.925  19.029  0.00  0.00    +0.000 C 
ATOM     23  C   UNL     1       8.552   9.654  18.068  0.00  0.00    +0.000 C 
BRANCH  22  25
ATOM     24  C   UNL     1       9.463  12.396  19.003  0.00  0.00    +0.000 C 
ATOM     25  C   UNL     1      10.093  11.216  19.134  0.00  0.00    +0.000 C 
BRANCH  24  26
ATOM     26  C   UNL     1      10.167  13.714  19.259  0.00  0.00    +0.000 C 
ATOM     27  C   UNL     1      11.600  13.428  19.713  0.00  0.00    +0.000 C 
BRANCH  26  28
ATOM     28  C   UNL     1       9.391  14.582  20.272  0.00  0.00    +0.000 C 
BRANCH  28  29
ATOM     29  C   UNL     1       7.964  14.086  20.630  0.00  0.00    +0.000 C 
ATOM     30  C   UNL     1       6.944  14.755  19.693  0.00  0.00    +0.000 C 
BRANCH  29  31
ATOM     31  C   UNL     1       7.606  14.319  22.121  0.00  0.00    +0.000 C 
BRANCH  31  33
ATOM     32  C   UNL     1       7.337  13.087  24.279  0.00  0.00    +0.000 C 
ATOM     33  C   UNL     1       7.704  13.065  22.982  0.00  0.00    +0.000 C 
ATOM     34  C   UNL     1       8.248  11.843  22.291  0.00  0.00    +0.000 C 
BRANCH  32  35
ATOM     35  C   UNL     1       7.264  11.893  25.209  0.00  0.00    +0.000 C 
ATOM     36  C   UNL     1       5.885  11.234  25.087  0.00  0.00    +0.000 C 
BRANCH  35  38
ATOM     37  C   UNL     1       6.340  12.485  27.512  0.00  0.00    +0.000 C 
ATOM     38  C   UNL     1       7.587  12.301  26.657  0.00  0.00    +0.000 C 
ENDBRANCH  35  38
ENDBRANCH  32  35
ENDBRANCH  31  33
ENDBRANCH  29  31
ENDBRANCH  28  29
ENDBRANCH  26  28
ENDBRANCH  24  26
ENDBRANCH  22  25
ENDBRANCH   1  23
TORSDOF 16
ENDMDL
MODEL 5
REMARK VINA RESULT:      -7.1      4.875     10.986
REMARK  Name = 
REMARK  21 active torsions:
REMARK  status: ('A' for Active; 'I' for Inactive)
REMARK    1  A    between atoms: C_1  and  C_2
REMARK    2  A    between atoms: C_2  and  C_3
REMARK    3  A    between atoms: C_3  and  C_4
REMARK    4  A    between atoms: C_3  and  C_5
REMARK    5  A    between atoms: C_6  and  C_7
REMARK    6  A    between atoms: C_6  and  C_8
REMARK    7  A    between atoms: C_8  and  C_9
REMARK    8  A    between atoms: C_9  and  C_10
REMARK    9  A    between atoms: C_9  and  C_11
REMARK   10  A    between atoms: C_11  and  C_12
REMARK   11  A    between atoms: C_12  and  C_13
REMARK   12  A    between atoms: C_12  and  C_14
REMARK   13  A    between atoms: C_15  and  C_16
REMARK   14  A    between atoms: C_17  and  C_18
REMARK   15  A    between atoms: C_19  and  C_20
REMARK   16  A    between atoms: N_22  and  CA_23
REMARK   17  A    between atoms: CA_23  and  C_24
REMARK   18  A    between atoms: CA_23  and  C_26
REMARK   19  A    between atoms: C_24  and  O_25
REMARK   20  A    between atoms: C_26  and  C_27
REMARK   21  A    between atoms: C_27  and  O_28
REMARK                            x       y       z     vdW  Elec       q    Type
REMARK                         _______ _______ _______ _____ _____    ______ ____
ROOT
ATOM      1  C   UNL     1       9.481  10.758  19.344  0.00  0.00    +0.000 C 
ATOM      2  C   UNL     1       9.325  11.249  20.582  0.00  0.00    +0.000 C 
ENDROOT
BRANCH   2   3
ATOM      3  C   UNL     1       9.849  12.599  20.914  0.00  0.00    +0.000 C 
ATOM      4  O   UNL     1      11.022  12.906  20.743  0.00  0.00    +0.000 OA
ATOM      5  N   UNL     1       8.896  13.469  21.393  0.00  0.00    +0.000 N 
ATOM      6  H   UNL     1       7.940  13.151  21.463  0.00  0.00    +0.000 HD
BRANCH   5   7
ATOM      7  CA  UNL     1       9.144  14.899  21.673  0.00  0.00    +0.000 C 
BRANCH   7   8
ATOM      8  C   UNL     1       9.456  15.143  23.167  0.00  0.00    +0.000 C 
BRANCH   8   9
ATOM      9  O   UNL     1       8.360  14.900  24.041  0.00  0.00    +0.000 OA
ATOM     10  H   UNL     1       8.118  13.953  23.973  0.00  0.00    +0.000 HD
ENDBRANCH   8   9
ENDBRANCH   7   8
BRANCH   7  11
ATOM     11  C   UNL     1       8.024  15.783  21.076  0.00  0.00    +0.000 C 
BRANCH  11  12
ATOM     12  C   UNL     1       8.014  15.979  19.536  0.00  0.00    +0.000 C 
ATOM     13  C   UNL     1       9.474  16.178  19.051  0.00  0.00    +0.000 C 
ATOM     14  O   UNL     1      10.143  17.175  19.334  0.00  0.00    +0.000 OA
ATOM     15  C   UNL     1      10.130  15.144  18.207  0.00  0.00    +0.000 C 
ATOM     16  C   UNL     1       9.425  14.131  17.692  0.00  0.00    +0.000 C 
ATOM     17  C   UNL     1       7.992  13.936  17.876  0.00  0.00    +0.000 C 
ATOM     18  O   UNL     1       7.053  14.949  17.489  0.00  0.00    +0.000 OA
ATOM     19  C   UNL     1       7.308  14.800  18.899  0.00  0.00    +0.000 C 
BRANCH  12  20
ATOM     20  O   UNL     1       7.252  17.134  19.207  0.00  0.00    +0.000 OA
ATOM     21  H   UNL     1       7.317  17.747  19.961  0.00  0.00    +0.000 HD
ENDBRANCH  12  20
ENDBRANCH  11  12
ENDBRANCH   7  11
ENDBRANCH   5   7
ENDBRANCH   2   3
BRANCH   1  23
ATOM     22  C   UNL     1       8.144   9.253  17.930  0.00  0.00    +0.000 C 
ATOM     23  C   UNL     1       9.008   9.449  18.941  0.00  0.00    +0.000 C 
BRANCH  22  25
ATOM     24  C   UNL     1       7.687   6.854  18.307  0.00  0.00    +0.000 C 
ATOM     25  C   UNL     1       7.755   7.928  17.503  0.00  0.00    +0.000 C 
BRANCH  24  26
ATOM     26  C   UNL     1       7.141   5.524  17.827  0.00  0.00    +0.000 C 
ATOM     27  C   UNL     1       8.136   4.420  18.197  0.00  0.00    +0.000 C 
BRANCH  26  28
ATOM     28  C   UNL     1       6.830   5.553  16.315  0.00  0.00    +0.000 C 
BRANCH  28  29
ATOM     29  C   UNL     1       5.988   4.366  15.778  0.00  0.00    +0.000 C 
ATOM     30  C   UNL     1       6.424   4.045  14.338  0.00  0.00    +0.000 C 
BRANCH  29  31
ATOM     31  C   UNL     1       4.462   4.626  15.866  0.00  0.00    +0.000 C 
BRANCH  31  33
ATOM     32  C   UNL     1       3.869   3.326  17.917  0.00  0.00    +0.000 C 
ATOM     33  C   UNL     1       3.896   4.512  17.276  0.00  0.00    +0.000 C 
ATOM     34  C   UNL     1       3.369   5.792  17.870  0.00  0.00    +0.000 C 
BRANCH  32  35
ATOM     35  C   UNL     1       3.454   3.095  19.356  0.00  0.00    +0.000 C 
ATOM     36  C   UNL     1       4.478   2.182  20.041  0.00  0.00    +0.000 C 
BRANCH  35  38
ATOM     37  C   UNL     1       1.020   3.536  19.979  0.00  0.00    +0.000 C 
ATOM     38  C   UNL     1       2.026   2.530  19.435  0.00  0.00    +0.000 C 
ENDBRANCH  35  38
ENDBRANCH  32  35
ENDBRANCH  31  33
ENDBRANCH  29  31
ENDBRANCH  28  29
ENDBRANCH  26  28
ENDBRANCH  24  26
ENDBRANCH  22  25
ENDBRANCH   1  23
TORSDOF 16
ENDMDL
MODEL 6
REMARK VINA RESULT:      -7.1      1.935      3.138
REMARK  Name = 
REMARK  21 active torsions:
REMARK  status: ('A' for Active; 'I' for Inactive)
REMARK    1  A    between atoms: C_1  and  C_2
REMARK    2  A    between atoms: C_2  and  C_3
REMARK    3  A    between atoms: C_3  and  C_4
REMARK    4  A    between atoms: C_3  and  C_5
REMARK    5  A    between atoms: C_6  and  C_7
REMARK    6  A    between atoms: C_6  and  C_8
REMARK    7  A    between atoms: C_8  and  C_9
REMARK    8  A    between atoms: C_9  and  C_10
REMARK    9  A    between atoms: C_9  and  C_11
REMARK   10  A    between atoms: C_11  and  C_12
REMARK   11  A    between atoms: C_12  and  C_13
REMARK   12  A    between atoms: C_12  and  C_14
REMARK   13  A    between atoms: C_15  and  C_16
REMARK   14  A    between atoms: C_17  and  C_18
REMARK   15  A    between atoms: C_19  and  C_20
REMARK   16  A    between atoms: N_22  and  CA_23
REMARK   17  A    between atoms: CA_23  and  C_24
REMARK   18  A    between atoms: CA_23  and  C_26
REMARK   19  A    between atoms: C_24  and  O_25
REMARK   20  A    between atoms: C_26  and  C_27
REMARK   21  A    between atoms: C_27  and  O_28
REMARK                            x       y       z     vdW  Elec       q    Type
REMARK                         _______ _______ _______ _____ _____    ______ ____
ROOT
ATOM      1  C   UNL     1       7.231   7.716  17.588  0.00  0.00    +0.000 C 
ATOM      2  C   UNL     1       7.683   6.706  18.346  0.00  0.00    +0.000 C 
ENDROOT
BRANCH   2   3
ATOM      3  C   UNL     1       7.033   5.372  18.264  0.00  0.00    +0.000 C 
ATOM      4  O   UNL     1       7.319   4.456  19.025  0.00  0.00    +0.000 OA
ATOM      5  N   UNL     1       6.068   5.277  17.287  0.00  0.00    +0.000 N 
ATOM      6  H   UNL     1       5.860   6.093  16.730  0.00  0.00    +0.000 HD
BRANCH   5   7
ATOM      7  CA  UNL     1       5.197   4.098  17.093  0.00  0.00    +0.000 C 
BRANCH   7   8
ATOM      8  C   UNL     1       5.037   3.746  15.596  0.00  0.00    +0.000 C 
BRANCH   8   9
ATOM      9  O   UNL     1       6.249   3.373  14.951  0.00  0.00    +0.000 OA
ATOM     10  H   UNL     1       6.944   3.280  15.636  0.00  0.00    +0.000 HD
ENDBRANCH   8   9
ENDBRANCH   7   8
BRANCH   7  11
ATOM     11  C   UNL     1       3.877   4.249  17.885  0.00  0.00    +0.000 C 
BRANCH  11  12
ATOM     12  C   UNL     1       3.248   2.959  18.476  0.00  0.00    +0.000 C 
ATOM     13  C   UNL     1       3.750   2.782  19.932  0.00  0.00    +0.000 C 
ATOM     14  O   UNL     1       4.926   2.528  20.209  0.00  0.00    +0.000 OA
ATOM     15  C   UNL     1       2.805   2.920  21.072  0.00  0.00    +0.000 C 
ATOM     16  C   UNL     1       1.486   3.001  20.864  0.00  0.00    +0.000 C 
ATOM     17  C   UNL     1       0.847   2.953  19.555  0.00  0.00    +0.000 C 
ATOM     18  O   UNL     1       1.042   1.834  18.678  0.00  0.00    +0.000 OA
ATOM     19  C   UNL     1       1.741   3.050  18.350  0.00  0.00    +0.000 C 
BRANCH  12  20
ATOM     20  O   UNL     1       3.652   1.834  17.704  0.00  0.00    +0.000 OA
ATOM     21  H   UNL     1       3.440   1.038  18.222  0.00  0.00    +0.000 HD
ENDBRANCH  12  20
ENDBRANCH  11  12
ENDBRANCH   7  11
ENDBRANCH   5   7
ENDBRANCH   2   3
BRANCH   1  23
ATOM     22  C   UNL     1       8.725   9.439  18.509  0.00  0.00    +0.000 C 
ATOM     23  C   UNL     1       7.802   9.048  17.615  0.00  0.00    +0.000 C 
BRANCH  22  25
ATOM     24  C   UNL     1      10.285  11.185  19.299  0.00  0.00    +0.000 C 
ATOM     25  C   UNL     1       9.331  10.750  18.458  0.00  0.00    +0.000 C 
BRANCH  24  26
ATOM     26  C   UNL     1      10.975  12.521  19.108  0.00  0.00    +0.000 C 
ATOM     27  C   UNL     1      12.333  12.479  19.813  0.00  0.00    +0.000 C 
BRANCH  26  28
ATOM     28  C   UNL     1      10.093  13.689  19.599  0.00  0.00    +0.000 C 
BRANCH  28  29
ATOM     29  C   UNL     1       9.665  14.712  18.513  0.00  0.00    +0.000 C 
ATOM     30  C   UNL     1      10.775  14.819  17.452  0.00  0.00    +0.000 C 
BRANCH  29  31
ATOM     31  C   UNL     1       9.307  16.099  19.105  0.00  0.00    +0.000 C 
BRANCH  31  33
ATOM     32  C   UNL     1       7.632  16.318  20.947  0.00  0.00    +0.000 C 
ATOM     33  C   UNL     1       7.878  16.197  19.627  0.00  0.00    +0.000 C 
ATOM     34  C   UNL     1       6.797  16.130  18.581  0.00  0.00    +0.000 C 
BRANCH  32  35
ATOM     35  C   UNL     1       6.278  16.550  21.588  0.00  0.00    +0.000 C 
ATOM     36  C   UNL     1       6.030  18.058  21.724  0.00  0.00    +0.000 C 
BRANCH  35  38
ATOM     37  C   UNL     1       4.957  14.908  23.025  0.00  0.00    +0.000 C 
ATOM     38  C   UNL     1       6.174  15.820  22.937  0.00  0.00    +0.000 C 
ENDBRANCH  35  38
ENDBRANCH  32  35
ENDBRANCH  31  33
ENDBRANCH  29  31
ENDBRANCH  28  29
ENDBRANCH  26  28
ENDBRANCH  24  26
ENDBRANCH  22  25
ENDBRANCH   1  23
TORSDOF 16
ENDMDL
MODEL 7
REMARK VINA RESULT:      -7.0      6.806      8.993
REMARK  Name = 
REMARK  21 active torsions:
REMARK  status: ('A' for Active; 'I' for Inactive)
REMARK    1  A    between atoms: C_1  and  C_2
REMARK    2  A    between atoms: C_2  and  C_3
REMARK    3  A    between atoms: C_3  and  C_4
REMARK    4  A    between atoms: C_3  and  C_5
REMARK    5  A    between atoms: C_6  and  C_7
REMARK    6  A    between atoms: C_6  and  C_8
REMARK    7  A    between atoms: C_8  and  C_9
REMARK    8  A    between atoms: C_9  and  C_10
REMARK    9  A    between atoms: C_9  and  C_11
REMARK   10  A    between atoms: C_11  and  C_12
REMARK   11  A    between atoms: C_12  and  C_13
REMARK   12  A    between atoms: C_12  and  C_14
REMARK   13  A    between atoms: C_15  and  C_16
REMARK   14  A    between atoms: C_17  and  C_18
REMARK   15  A    between atoms: C_19  and  C_20
REMARK   16  A    between atoms: N_22  and  CA_23
REMARK   17  A    between atoms: CA_23  and  C_24
REMARK   18  A    between atoms: CA_23  and  C_26
REMARK   19  A    between atoms: C_24  and  O_25
REMARK   20  A    between atoms: C_26  and  C_27
REMARK   21  A    between atoms: C_27  and  O_28
REMARK                            x       y       z     vdW  Elec       q    Type
REMARK                         _______ _______ _______ _____ _____    ______ ____
ROOT
ATOM      1  C   UNL     1       2.399   7.392  18.512  0.00  0.00    +0.000 C 
ATOM      2  C   UNL     1       1.919   6.181  18.833  0.00  0.00    +0.000 C 
ENDROOT
BRANCH   2   3
ATOM      3  C   UNL     1       2.605   4.959  18.339  0.00  0.00    +0.000 C 
ATOM      4  O   UNL     1       2.218   4.343  17.354  0.00  0.00    +0.000 OA
ATOM      5  N   UNL     1       3.722   4.610  19.064  0.00  0.00    +0.000 N 
ATOM      6  H   UNL     1       4.001   5.197  19.837  0.00  0.00    +0.000 HD
BRANCH   5   7
ATOM      7  CA  UNL     1       4.642   3.512  18.696  0.00  0.00    +0.000 C 
BRANCH   7   8
ATOM      8  C   UNL     1       4.277   2.196  19.419  0.00  0.00    +0.000 C 
BRANCH   8   9
ATOM      9  O   UNL     1       5.288   1.710  20.294  0.00  0.00    +0.000 OA
ATOM     10  H   UNL     1       4.853   1.221  21.024  0.00  0.00    +0.000 HD
ENDBRANCH   8   9
ENDBRANCH   7   8
BRANCH   7  11
ATOM     11  C   UNL     1       6.117   3.957  18.830  0.00  0.00    +0.000 C 
BRANCH  11  12
ATOM     12  C   UNL     1       6.762   4.667  17.609  0.00  0.00    +0.000 C 
ATOM     13  C   UNL     1       5.913   4.358  16.348  0.00  0.00    +0.000 C 
ATOM     14  O   UNL     1       5.834   3.230  15.854  0.00  0.00    +0.000 OA
ATOM     15  C   UNL     1       5.145   5.442  15.679  0.00  0.00    +0.000 C 
ATOM     16  C   UNL     1       5.322   6.722  16.024  0.00  0.00    +0.000 C 
ATOM     17  C   UNL     1       6.256   7.187  17.042  0.00  0.00    +0.000 C 
ATOM     18  O   UNL     1       7.657   6.888  16.950  0.00  0.00    +0.000 OA
ATOM     19  C   UNL     1       6.893   6.144  17.918  0.00  0.00    +0.000 C 
BRANCH  12  20
ATOM     20  O   UNL     1       8.082   4.174  17.414  0.00  0.00    +0.000 OA
ATOM     21  H   UNL     1       8.149   3.891  16.485  0.00  0.00    +0.000 HD
ENDBRANCH  12  20
ENDBRANCH  11  12
ENDBRANCH   7  11
ENDBRANCH   5   7
ENDBRANCH   2   3
BRANCH   1  23
ATOM     22  C   UNL     1       0.946   8.716  19.990  0.00  0.00    +0.000 C 
ATOM     23  C   UNL     1       1.785   8.631  18.944  0.00  0.00    +0.000 C 
BRANCH  22  25
ATOM     24  C   UNL     1       0.036  10.244  21.706  0.00  0.00    +0.000 C 
ATOM     25  C   UNL     1       0.414   9.981  20.443  0.00  0.00    +0.000 C 
BRANCH  24  26
ATOM     26  C   UNL     1      -0.386  11.632  22.145  0.00  0.00    +0.000 C 
ATOM     27  C   UNL     1      -1.540  11.503  23.142  0.00  0.00    +0.000 C 
BRANCH  26  28
ATOM     28  C   UNL     1      -0.749  12.521  20.936  0.00  0.00    +0.000 C 
BRANCH  28  29
ATOM     29  C   UNL     1      -2.182  12.335  20.369  0.00  0.00    +0.000 C 
ATOM     30  C   UNL     1      -2.097  12.050  18.860  0.00  0.00    +0.000 C 
BRANCH  29  31
ATOM     31  C   UNL     1      -3.107  13.543  20.669  0.00  0.00    +0.000 C 
BRANCH  31  33
ATOM     32  C   UNL     1      -5.392  12.541  20.510  0.00  0.00    +0.000 C 
ATOM     33  C   UNL     1      -4.456  13.155  21.262  0.00  0.00    +0.000 C 
ATOM     34  C   UNL     1      -4.660  13.520  22.709  0.00  0.00    +0.000 C 
BRANCH  32  35
ATOM     35  C   UNL     1      -6.716  11.991  21.000  0.00  0.00    +0.000 C 
ATOM     36  C   UNL     1      -7.097  10.761  20.167  0.00  0.00    +0.000 C 
BRANCH  35  38
ATOM     37  C   UNL     1      -7.772  13.915  19.700  0.00  0.00    +0.000 C 
ATOM     38  C   UNL     1      -7.808  13.074  20.969  0.00  0.00    +0.000 C 
ENDBRANCH  35  38
ENDBRANCH  32  35
ENDBRANCH  31  33
ENDBRANCH  29  31
ENDBRANCH  28  29
ENDBRANCH  26  28
ENDBRANCH  24  26
ENDBRANCH  22  25
ENDBRANCH   1  23
TORSDOF 16
ENDMDL
MODEL 8
REMARK VINA RESULT:      -6.8      4.871      6.990
REMARK  Name = 
REMARK  21 active torsions:
REMARK  status: ('A' for Active; 'I' for Inactive)
REMARK    1  A    between atoms: C_1  and  C_2
REMARK    2  A    between atoms: C_2  and  C_3
REMARK    3  A    between atoms: C_3  and  C_4
REMARK    4  A    between atoms: C_3  and  C_5
REMARK    5  A    between atoms: C_6  and  C_7
REMARK    6  A    between atoms: C_6  and  C_8
REMARK    7  A    between atoms: C_8  and  C_9
REMARK    8  A    between atoms: C_9  and  C_10
REMARK    9  A    between atoms: C_9  and  C_11
REMARK   10  A    between atoms: C_11  and  C_12
REMARK   11  A    between atoms: C_12  and  C_13
REMARK   12  A    between atoms: C_12  and  C_14
REMARK   13  A    between atoms: C_15  and  C_16
REMARK   14  A    between atoms: C_17  and  C_18
REMARK   15  A    between atoms: C_19  and  C_20
REMARK   16  A    between atoms: N_22  and  CA_23
REMARK   17  A    between atoms: CA_23  and  C_24
REMARK   18  A    between atoms: CA_23  and  C_26
REMARK   19  A    between atoms: C_24  and  O_25
REMARK   20  A    between atoms: C_26  and  C_27
REMARK   21  A    between atoms: C_27  and  O_28
REMARK                            x       y       z     vdW  Elec       q    Type
REMARK                         _______ _______ _______ _____ _____    ______ ____
ROOT
ATOM      1  C   UNL     1       1.434   8.695  19.182  0.00  0.00    +0.000 C 
ATOM      2  C   UNL     1       2.174   7.785  19.833  0.00  0.00    +0.000 C 
ENDROOT
BRANCH   2   3
ATOM      3  C   UNL     1       2.875   6.720  19.070  0.00  0.00    +0.000 C 
ATOM      4  O   UNL     1       2.757   6.596  17.858  0.00  0.00    +0.000 OA
ATOM      5  N   UNL     1       3.687   5.919  19.842  0.00  0.00    +0.000 N 
ATOM      6  H   UNL     1       3.764   6.116  20.830  0.00  0.00    +0.000 HD
BRANCH   5   7
ATOM      7  CA  UNL     1       4.582   4.876  19.299  0.00  0.00    +0.000 C 
BRANCH   7   8
ATOM      8  C   UNL     1       5.943   5.462  18.861  0.00  0.00    +0.000 C 
BRANCH   8   9
ATOM      9  O   UNL     1       6.951   5.414  19.865  0.00  0.00    +0.000 OA
ATOM     10  H   UNL     1       7.426   6.272  19.864  0.00  0.00    +0.000 HD
ENDBRANCH   8   9
ENDBRANCH   7   8
BRANCH   7  11
ATOM     11  C   UNL     1       3.854   4.020  18.236  0.00  0.00    +0.000 C 
BRANCH  11  12
ATOM     12  C   UNL     1       2.998   2.829  18.742  0.00  0.00    +0.000 C 
ATOM     13  C   UNL     1       3.508   2.411  20.146  0.00  0.00    +0.000 C 
ATOM     14  O   UNL     1       4.616   1.901  20.332  0.00  0.00    +0.000 OA
ATOM     15  C   UNL     1       2.654   2.620  21.345  0.00  0.00    +0.000 C 
ATOM     16  C   UNL     1       1.373   2.983  21.221  0.00  0.00    +0.000 C 
ATOM     17  C   UNL     1       0.688   3.194  19.951  0.00  0.00    +0.000 C 
ATOM     18  O   UNL     1       0.618   2.151  18.967  0.00  0.00    +0.000 OA
ATOM     19  C   UNL     1       1.538   3.230  18.711  0.00  0.00    +0.000 C 
BRANCH  12  20
ATOM     20  O   UNL     1       3.136   1.729  17.850  0.00  0.00    +0.000 OA
ATOM     21  H   UNL     1       4.002   1.818  17.415  0.00  0.00    +0.000 HD
ENDBRANCH  12  20
ENDBRANCH  11  12
ENDBRANCH   7  11
ENDBRANCH   5   7
ENDBRANCH   2   3
BRANCH   1  23
ATOM     22  C   UNL     1       0.970  10.153  21.107  0.00  0.00    +0.000 C 
ATOM     23  C   UNL     1       0.711   9.759  19.849  0.00  0.00    +0.000 C 
BRANCH  22  25
ATOM     24  C   UNL     1      -0.924  11.199  22.302  0.00  0.00    +0.000 C 
ATOM     25  C   UNL     1       0.284  11.270  21.716  0.00  0.00    +0.000 C 
BRANCH  24  26
ATOM     26  C   UNL     1      -1.528  12.377  23.040  0.00  0.00    +0.000 C 
ATOM     27  C   UNL     1      -3.008  12.085  23.305  0.00  0.00    +0.000 C 
BRANCH  26  28
ATOM     28  C   UNL     1      -1.317  13.697  22.269  0.00  0.00    +0.000 C 
BRANCH  28  29
ATOM     29  C   UNL     1      -0.443  14.762  22.983  0.00  0.00    +0.000 C 
ATOM     30  C   UNL     1      -1.280  15.455  24.073  0.00  0.00    +0.000 C 
BRANCH  29  31
ATOM     31  C   UNL     1       0.174  15.789  21.999  0.00  0.00    +0.000 C 
BRANCH  31  33
ATOM     32  C   UNL     1       1.266  15.054  19.874  0.00  0.00    +0.000 C 
ATOM     33  C   UNL     1       1.358  15.248  21.205  0.00  0.00    +0.000 C 
ATOM     34  C   UNL     1       2.593  14.940  22.009  0.00  0.00    +0.000 C 
BRANCH  32  35
ATOM     35  C   UNL     1       2.395  14.645  18.950  0.00  0.00    +0.000 C 
ATOM     36  C   UNL     1       2.710  15.798  17.989  0.00  0.00    +0.000 C 
BRANCH  35  38
ATOM     37  C   UNL     1       0.592  12.941  18.355  0.00  0.00    +0.000 C 
ATOM     38  C   UNL     1       2.054  13.344  18.204  0.00  0.00    +0.000 C 
ENDBRANCH  35  38
ENDBRANCH  32  35
ENDBRANCH  31  33
ENDBRANCH  29  31
ENDBRANCH  28  29
ENDBRANCH  26  28
ENDBRANCH  24  26
ENDBRANCH  22  25
ENDBRANCH   1  23
TORSDOF 16
ENDMDL
MODEL 9
REMARK VINA RESULT:      -6.8      4.281      6.383
REMARK  Name = 
REMARK  21 active torsions:
REMARK  status: ('A' for Active; 'I' for Inactive)
REMARK    1  A    between atoms: C_1  and  C_2
REMARK    2  A    between atoms: C_2  and  C_3
REMARK    3  A    between atoms: C_3  and  C_4
REMARK    4  A    between atoms: C_3  and  C_5
REMARK    5  A    between atoms: C_6  and  C_7
REMARK    6  A    between atoms: C_6  and  C_8
REMARK    7  A    between atoms: C_8  and  C_9
REMARK    8  A    between atoms: C_9  and  C_10
REMARK    9  A    between atoms: C_9  and  C_11
REMARK   10  A    between atoms: C_11  and  C_12
REMARK   11  A    between atoms: C_12  and  C_13
REMARK   12  A    between atoms: C_12  and  C_14
REMARK   13  A    between atoms: C_15  and  C_16
REMARK   14  A    between atoms: C_17  and  C_18
REMARK   15  A    between atoms: C_19  and  C_20
REMARK   16  A    between atoms: N_22  and  CA_23
REMARK   17  A    between atoms: CA_23  and  C_24
REMARK   18  A    between atoms: CA_23  and  C_26
REMARK   19  A    between atoms: C_24  and  O_25
REMARK   20  A    between atoms: C_26  and  C_27
REMARK   21  A    between atoms: C_27  and  O_28
REMARK                            x       y       z     vdW  Elec       q    Type
REMARK                         _______ _______ _______ _____ _____    ______ ____
ROOT
ATOM      1  C   UNL     1       2.787   8.517  17.889  0.00  0.00    +0.000 C 
ATOM      2  C   UNL     1       2.460   7.220  17.990  0.00  0.00    +0.000 C 
ENDROOT
BRANCH   2   3
ATOM      3  C   UNL     1       3.520   6.182  17.916  0.00  0.00    +0.000 C 
ATOM      4  O   UNL     1       4.153   5.963  16.890  0.00  0.00    +0.000 OA
ATOM      5  N   UNL     1       3.745   5.523  19.104  0.00  0.00    +0.000 N 
ATOM      6  H   UNL     1       3.211   5.794  19.917  0.00  0.00    +0.000 HD
BRANCH   5   7
ATOM      7  CA  UNL     1       4.829   4.541  19.316  0.00  0.00    +0.000 C 
BRANCH   7   8
ATOM      8  C   UNL     1       6.221   5.164  19.062  0.00  0.00    +0.000 C 
BRANCH   8   9
ATOM      9  O   UNL     1       7.048   4.408  18.184  0.00  0.00    +0.000 OA
ATOM     10  H   UNL     1       6.543   4.235  17.361  0.00  0.00    +0.000 HD
ENDBRANCH   8   9
ENDBRANCH   7   8
BRANCH   7  11
ATOM     11  C   UNL     1       4.542   3.225  18.556  0.00  0.00    +0.000 C 
BRANCH  11  12
ATOM     12  C   UNL     1       3.377   2.341  19.076  0.00  0.00    +0.000 C 
ATOM     13  C   UNL     1       3.400   2.347  20.626  0.00  0.00    +0.000 C 
ATOM     14  O   UNL     1       4.303   1.824  21.284  0.00  0.00    +0.000 OA
ATOM     15  C   UNL     1       2.305   3.005  21.389  0.00  0.00    +0.000 C 
ATOM     16  C   UNL     1       1.196   3.426  20.772  0.00  0.00    +0.000 C 
ATOM     17  C   UNL     1       0.933   3.283  19.345  0.00  0.00    +0.000 C 
ATOM     18  O   UNL     1       0.943   1.993  18.718  0.00  0.00    +0.000 OA
ATOM     19  C   UNL     1       2.079   2.844  18.476  0.00  0.00    +0.000 C 
BRANCH  12  20
ATOM     20  O   UNL     1       3.547   1.007  18.613  0.00  0.00    +0.000 OA
ATOM     21  H   UNL     1       2.658   0.631  18.483  0.00  0.00    +0.000 HD
ENDBRANCH  12  20
ENDBRANCH  11  12
ENDBRANCH   7  11
ENDBRANCH   5   7
ENDBRANCH   2   3
BRANCH   1  23
ATOM     22  C   UNL     1       0.772   9.602  18.790  0.00  0.00    +0.000 C 
ATOM     23  C   UNL     1       1.814   9.590  17.942  0.00  0.00    +0.000 C 
BRANCH  22  25
ATOM     24  C   UNL     1      -0.739  11.141  19.998  0.00  0.00    +0.000 C 
ATOM     25  C   UNL     1      -0.134  10.725  18.872  0.00  0.00    +0.000 C 
BRANCH  24  26
ATOM     26  C   UNL     1      -1.572  12.406  20.042  0.00  0.00    +0.000 C 
ATOM     27  C   UNL     1      -2.924  12.130  19.379  0.00  0.00    +0.000 C 
BRANCH  26  28
ATOM     28  C   UNL     1      -0.830  13.594  19.394  0.00  0.00    +0.000 C 
BRANCH  28  29
ATOM     29  C   UNL     1      -0.036  14.505  20.368  0.00  0.00    +0.000 C 
ATOM     30  C   UNL     1       0.246  15.854  19.684  0.00  0.00    +0.000 C 
BRANCH  29  31
ATOM     31  C   UNL     1       1.268  13.842  20.881  0.00  0.00    +0.000 C 
BRANCH  31  33
ATOM     32  C   UNL     1       3.357  15.053  20.235  0.00  0.00    +0.000 C 
ATOM     33  C   UNL     1       2.473  14.069  19.975  0.00  0.00    +0.000 C 
ATOM     34  C   UNL     1       2.579  13.145  18.791  0.00  0.00    +0.000 C 
BRANCH  32  35
ATOM     35  C   UNL     1       4.656  15.308  19.496  0.00  0.00    +0.000 C 
ATOM     36  C   UNL     1       5.821  15.287  20.492  0.00  0.00    +0.000 C 
BRANCH  35  38
ATOM     37  C   UNL     1       3.424  16.669  17.725  0.00  0.00    +0.000 C 
ATOM     38  C   UNL     1       4.591  16.625  18.704  0.00  0.00    +0.000 C 
ENDBRANCH  35  38
ENDBRANCH  32  35
ENDBRANCH  31  33
ENDBRANCH  29  31
ENDBRANCH  28  29
ENDBRANCH  26  28
ENDBRANCH  24  26
ENDBRANCH  22  25
ENDBRANCH   1  23
TORSDOF 16
ENDMDL
