MODEL 1
REMARK VINA RESULT:      -7.5      0.000      0.000
REMARK  Name = 
REMARK  9 active torsions:
REMARK  status: ('A' for Active; 'I' for Inactive)
REMARK    1  A    between atoms: C_2  and  C_3
REMARK    2  A    between atoms: C_2  and  C_4
REMARK    3  A    between atoms: C_4  and  O_5
REMARK    4  A    between atoms: O_5  and  C_6
REMARK    5  A    between atoms: C_10  and  C_11
REMARK    6  A    between atoms: N_13  and  C_14
REMARK    7  A    between atoms: N_13  and  C_15
REMARK    8  A    between atoms: C_15  and  C_16
REMARK    9  A    between atoms: C_15  and  C_17
REMARK                            x       y       z     vdW  Elec       q    Type
REMARK                         _______ _______ _______ _____ _____    ______ ____
ROOT
ATOM      1  C   UNL     1       4.753   5.182  18.417  0.00  0.00    +0.000 C 
ATOM      2  O   UNL     1       5.059   4.357  19.276  0.00  0.00    +0.000 OA
ATOM      3  N   UNL     1       3.745   6.141  18.624  0.00  0.00    +0.000 N 
ATOM      4  C   UNL     1       3.357   7.209  17.704  0.00  0.00    +0.000 C 
ENDROOT
BRANCH   1   9
ATOM      5  C   UNL     1       5.638   4.555  14.793  0.00  0.00    +0.000 A 
ATOM      6  C   UNL     1       7.008   4.821  14.795  0.00  0.00    +0.000 A 
ATOM      7  C   UNL     1       7.626   5.342  15.934  0.00  0.00    +0.000 A 
ATOM      8  C   UNL     1       6.884   5.547  17.097  0.00  0.00    +0.000 A 
ATOM      9  C   UNL     1       5.549   5.141  17.153  0.00  0.00    +0.000 A 
ATOM     10  C   UNL     1       4.909   4.706  15.976  0.00  0.00    +0.000 A 
BRANCH   5  11
ATOM     11  O   UNL     1       5.135   4.073  13.611  0.00  0.00    +0.000 OA
BRANCH  11  12
ATOM     12  C   UNL     1       6.087   3.454  12.738  0.00  0.00    +0.000 C 
BRANCH  12  14
ATOM     13  C   UNL     1       4.156   3.052  11.187  0.00  0.00    +0.000 C 
ATOM     14  C   UNL     1       5.348   2.667  11.675  0.00  0.00    +0.000 C 
ATOM     15  C   UNL     1       5.993   1.386  11.226  0.00  0.00    +0.000 C 
ENDBRANCH  12  14
ENDBRANCH  11  12
ENDBRANCH   5  11
ENDBRANCH   1   9
BRANCH   3  16
ATOM     16  C   UNL     1       2.940   6.013  19.866  0.00  0.00    +0.000 C 
ATOM     17  C   UNL     1       1.986   7.192  20.131  0.00  0.00    +0.000 C 
BRANCH  16  18
ATOM     18  C   UNL     1       2.176   4.691  19.875  0.00  0.00    +0.000 A 
ATOM     19  C   UNL     1       1.577   4.234  18.710  0.00  0.00    +0.000 A 
ATOM     20  C   UNL     1       0.852   3.071  18.808  0.00  0.00    +0.000 A 
ATOM     21  N   UNL     1       0.712   2.376  19.949  0.00  0.00    +0.000 NA
ATOM     22  C   UNL     1       1.326   2.897  21.021  0.00  0.00    +0.000 A 
ATOM     23  N   UNL     1       2.048   4.028  21.049  0.00  0.00    +0.000 NA
ENDBRANCH  16  18
ENDBRANCH   3  16
TORSDOF 6
ENDMDL
MODEL 2
REMARK VINA RESULT:      -7.4      0.680      1.281
REMARK  Name = 
REMARK  9 active torsions:
REMARK  status: ('A' for Active; 'I' for Inactive)
REMARK    1  A    between atoms: C_2  and  C_3
REMARK    2  A    between atoms: C_2  and  C_4
REMARK    3  A    between atoms: C_4  and  O_5
REMARK    4  A    between atoms: O_5  and  C_6
REMARK    5  A    between atoms: C_10  and  C_11
REMARK    6  A    between atoms: N_13  and  C_14
REMARK    7  A    between atoms: N_13  and  C_15
REMARK    8  A    between atoms: C_15  and  C_16
REMARK    9  A    between atoms: C_15  and  C_17
REMARK                            x       y       z     vdW  Elec       q    Type
REMARK                         _______ _______ _______ _____ _____    ______ ____
ROOT
ATOM      1  C   UNL     1       4.750   5.385  18.570  0.00  0.00    +0.000 C 
ATOM      2  O   UNL     1       5.143   4.672  19.492  0.00  0.00    +0.000 OA
ATOM      3  N   UNL     1       3.647   6.246  18.705  0.00  0.00    +0.000 N 
ATOM      4  C   UNL     1       3.147   7.185  17.702  0.00  0.00    +0.000 C 
ENDROOT
BRANCH   1   9
ATOM      5  C   UNL     1       5.927   4.232  15.164  0.00  0.00    +0.000 A 
ATOM      6  C   UNL     1       7.097   4.977  15.012  0.00  0.00    +0.000 A 
ATOM      7  C   UNL     1       7.437   5.959  15.944  0.00  0.00    +0.000 A 
ATOM      8  C   UNL     1       6.634   6.164  17.066  0.00  0.00    +0.000 A 
ATOM      9  C   UNL     1       5.546   5.321  17.306  0.00  0.00    +0.000 A 
ATOM     10  C   UNL     1       5.154   4.398  16.318  0.00  0.00    +0.000 A 
BRANCH   5  11
ATOM     11  O   UNL     1       5.680   3.316  14.173  0.00  0.00    +0.000 OA
BRANCH  11  12
ATOM     12  C   UNL     1       6.135   3.680  12.865  0.00  0.00    +0.000 C 
BRANCH  12  14
ATOM     13  C   UNL     1       6.040   1.663  11.375  0.00  0.00    +0.000 C 
ATOM     14  C   UNL     1       5.467   2.786  11.840  0.00  0.00    +0.000 C 
ATOM     15  C   UNL     1       4.136   3.252  11.318  0.00  0.00    +0.000 C 
ENDBRANCH  12  14
ENDBRANCH  11  12
ENDBRANCH   5  11
ENDBRANCH   1   9
BRANCH   3  16
ATOM     16  C   UNL     1       2.860   6.138  19.960  0.00  0.00    +0.000 C 
ATOM     17  C   UNL     1       1.883   7.304  20.201  0.00  0.00    +0.000 C 
BRANCH  16  18
ATOM     18  C   UNL     1       2.127   4.801  20.021  0.00  0.00    +0.000 A 
ATOM     19  C   UNL     1       2.056   4.108  21.221  0.00  0.00    +0.000 A 
ATOM     20  C   UNL     1       1.438   2.882  21.187  0.00  0.00    +0.000 A 
ATOM     21  N   UNL     1       0.907   2.348  20.073  0.00  0.00    +0.000 NA
ATOM     22  C   UNL     1       1.026   3.090  18.964  0.00  0.00    +0.000 A 
ATOM     23  N   UNL     1       1.618   4.292  18.874  0.00  0.00    +0.000 NA
ENDBRANCH  16  18
ENDBRANCH   3  16
TORSDOF 6
ENDMDL
MODEL 3
REMARK VINA RESULT:      -7.2      3.229      8.182
REMARK  Name = 
REMARK  9 active torsions:
REMARK  status: ('A' for Active; 'I' for Inactive)
REMARK    1  A    between atoms: C_2  and  C_3
REMARK    2  A    between atoms: C_2  and  C_4
REMARK    3  A    between atoms: C_4  and  O_5
REMARK    4  A    between atoms: O_5  and  C_6
REMARK    5  A    between atoms: C_10  and  C_11
REMARK    6  A    between atoms: N_13  and  C_14
REMARK    7  A    between atoms: N_13  and  C_15
REMARK    8  A    between atoms: C_15  and  C_16
REMARK    9  A    between atoms: C_15  and  C_17
REMARK                            x       y       z     vdW  Elec       q    Type
REMARK                         _______ _______ _______ _____ _____    ______ ____
ROOT
ATOM      1  C   UNL     1       3.446   6.066  18.918  0.00  0.00    +0.000 C 
ATOM      2  O   UNL     1       4.495   6.120  19.556  0.00  0.00    +0.000 OA
ATOM      3  N   UNL     1       2.999   4.880  18.308  0.00  0.00    +0.000 N 
ATOM      4  C   UNL     1       1.737   4.690  17.594  0.00  0.00    +0.000 C 
ENDROOT
BRANCH   1   9
ATOM      5  C   UNL     1       1.129   8.852  20.007  0.00  0.00    +0.000 A 
ATOM      6  C   UNL     1       0.945   9.540  18.806  0.00  0.00    +0.000 A 
ATOM      7  C   UNL     1       1.680   9.191  17.670  0.00  0.00    +0.000 A 
ATOM      8  C   UNL     1       2.564   8.115  17.716  0.00  0.00    +0.000 A 
ATOM      9  C   UNL     1       2.643   7.325  18.866  0.00  0.00    +0.000 A 
ATOM     10  C   UNL     1       1.973   7.738  20.034  0.00  0.00    +0.000 A 
BRANCH   5  11
ATOM     11  O   UNL     1       0.376   9.299  21.062  0.00  0.00    +0.000 OA
BRANCH  11  12
ATOM     12  C   UNL     1      -0.090  10.650  20.963  0.00  0.00    +0.000 C 
BRANCH  12  14
ATOM     13  C   UNL     1      -1.218  12.284  22.497  0.00  0.00    +0.000 C 
ATOM     14  C   UNL     1      -0.744  11.047  22.271  0.00  0.00    +0.000 C 
ATOM     15  C   UNL     1      -0.785   9.992  23.341  0.00  0.00    +0.000 C 
ENDBRANCH  12  14
ENDBRANCH  11  12
ENDBRANCH   5  11
ENDBRANCH   1   9
BRANCH   3  16
ATOM     16  C   UNL     1       3.933   3.725  18.320  0.00  0.00    +0.000 C 
ATOM     17  C   UNL     1       3.305   2.394  17.868  0.00  0.00    +0.000 C 
BRANCH  16  18
ATOM     18  C   UNL     1       5.182   4.037  17.500  0.00  0.00    +0.000 A 
ATOM     19  C   UNL     1       5.114   4.029  16.113  0.00  0.00    +0.000 A 
ATOM     20  C   UNL     1       6.291   4.254  15.440  0.00  0.00    +0.000 A 
ATOM     21  N   UNL     1       7.466   4.483  16.052  0.00  0.00    +0.000 NA
ATOM     22  C   UNL     1       7.431   4.469  17.392  0.00  0.00    +0.000 A 
ATOM     23  N   UNL     1       6.348   4.249  18.154  0.00  0.00    +0.000 NA
ENDBRANCH  16  18
ENDBRANCH   3  16
TORSDOF 6
ENDMDL
MODEL 4
REMARK VINA RESULT:      -7.1      2.980      7.802
REMARK  Name = 
REMARK  9 active torsions:
REMARK  status: ('A' for Active; 'I' for Inactive)
REMARK    1  A    between atoms: C_2  and  C_3
REMARK    2  A    between atoms: C_2  and  C_4
REMARK    3  A    between atoms: C_4  and  O_5
REMARK    4  A    between atoms: O_5  and  C_6
REMARK    5  A    between atoms: C_10  and  C_11
REMARK    6  A    between atoms: N_13  and  C_14
REMARK    7  A    between atoms: N_13  and  C_15
REMARK    8  A    between atoms: C_15  and  C_16
REMARK    9  A    between atoms: C_15  and  C_17
REMARK                            x       y       z     vdW  Elec       q    Type
REMARK                         _______ _______ _______ _____ _____    ______ ____
ROOT
ATOM      1  C   UNL     1       4.761   4.081  18.763  0.00  0.00    +0.000 C 
ATOM      2  O   UNL     1       5.571   3.492  19.477  0.00  0.00    +0.000 OA
ATOM      3  N   UNL     1       5.110   4.608  17.508  0.00  0.00    +0.000 N 
ATOM      4  C   UNL     1       4.211   5.256  16.554  0.00  0.00    +0.000 C 
ENDROOT
BRANCH   1   9
ATOM      5  C   UNL     1       1.670   5.472  20.445  0.00  0.00    +0.000 A 
ATOM      6  C   UNL     1       0.849   4.343  20.486  0.00  0.00    +0.000 A 
ATOM      7  C   UNL     1       1.235   3.164  19.845  0.00  0.00    +0.000 A 
ATOM      8  C   UNL     1       2.470   3.091  19.204  0.00  0.00    +0.000 A 
ATOM      9  C   UNL     1       3.363   4.163  19.287  0.00  0.00    +0.000 A 
ATOM     10  C   UNL     1       2.932   5.379  19.851  0.00  0.00    +0.000 A 
BRANCH   5  11
ATOM     11  O   UNL     1       1.177   6.581  21.084  0.00  0.00    +0.000 OA
BRANCH  11  12
ATOM     12  C   UNL     1       1.644   7.841  20.591  0.00  0.00    +0.000 C 
BRANCH  12  14
ATOM     13  C   UNL     1       0.783   9.215  22.506  0.00  0.00    +0.000 C 
ATOM     14  C   UNL     1       0.804   8.951  21.188  0.00  0.00    +0.000 C 
ATOM     15  C   UNL     1      -0.064   9.718  20.229  0.00  0.00    +0.000 C 
ENDBRANCH  12  14
ENDBRANCH  11  12
ENDBRANCH   5  11
ENDBRANCH   1   9
BRANCH   3  16
ATOM     16  C   UNL     1       6.550   4.577  17.143  0.00  0.00    +0.000 C 
ATOM     17  C   UNL     1       6.823   4.310  15.652  0.00  0.00    +0.000 C 
BRANCH  16  18
ATOM     18  C   UNL     1       7.246   5.858  17.596  0.00  0.00    +0.000 A 
ATOM     19  C   UNL     1       7.900   5.890  18.821  0.00  0.00    +0.000 A 
ATOM     20  C   UNL     1       8.447   7.094  19.192  0.00  0.00    +0.000 A 
ATOM     21  N   UNL     1       8.385   8.204  18.437  0.00  0.00    +0.000 NA
ATOM     22  C   UNL     1       7.734   8.074  17.274  0.00  0.00    +0.000 A 
ATOM     23  N   UNL     1       7.150   6.957  16.812  0.00  0.00    +0.000 NA
ENDBRANCH  16  18
ENDBRANCH   3  16
TORSDOF 6
ENDMDL
MODEL 5
REMARK VINA RESULT:      -7.0      3.156      8.245
REMARK  Name = 
REMARK  9 active torsions:
REMARK  status: ('A' for Active; 'I' for Inactive)
REMARK    1  A    between atoms: C_2  and  C_3
REMARK    2  A    between atoms: C_2  and  C_4
REMARK    3  A    between atoms: C_4  and  O_5
REMARK    4  A    between atoms: O_5  and  C_6
REMARK    5  A    between atoms: C_10  and  C_11
REMARK    6  A    between atoms: N_13  and  C_14
REMARK    7  A    between atoms: N_13  and  C_15
REMARK    8  A    between atoms: C_15  and  C_16
REMARK    9  A    between atoms: C_15  and  C_17
REMARK                            x       y       z     vdW  Elec       q    Type
REMARK                         _______ _______ _______ _____ _____    ______ ____
ROOT
ATOM      1  C   UNL     1       3.597   6.007  18.867  0.00  0.00    +0.000 C 
ATOM      2  O   UNL     1       4.676   6.088  19.451  0.00  0.00    +0.000 OA
ATOM      3  N   UNL     1       3.157   4.813  18.268  0.00  0.00    +0.000 N 
ATOM      4  C   UNL     1       1.866   4.590  17.617  0.00  0.00    +0.000 C 
ENDROOT
BRANCH   1   9
ATOM      5  C   UNL     1       1.074   8.582  20.012  0.00  0.00    +0.000 A 
ATOM      6  C   UNL     1       0.982   9.397  18.882  0.00  0.00    +0.000 A 
ATOM      7  C   UNL     1       1.840   9.202  17.797  0.00  0.00    +0.000 A 
ATOM      8  C   UNL     1       2.758   8.153  17.815  0.00  0.00    +0.000 A 
ATOM      9  C   UNL     1       2.753   7.240  18.873  0.00  0.00    +0.000 A 
ATOM     10  C   UNL     1       1.954   7.497  20.003  0.00  0.00    +0.000 A 
BRANCH   5  11
ATOM     11  O   UNL     1       0.201   8.885  21.027  0.00  0.00    +0.000 OA
BRANCH  11  12
ATOM     12  C   UNL     1      -0.126  10.271  21.171  0.00  0.00    +0.000 C 
BRANCH  12  14
ATOM     13  C   UNL     1      -0.241   9.671  23.605  0.00  0.00    +0.000 C 
ATOM     14  C   UNL     1      -0.486  10.549  22.617  0.00  0.00    +0.000 C 
ATOM     15  C   UNL     1      -1.193  11.847  22.889  0.00  0.00    +0.000 C 
ENDBRANCH  12  14
ENDBRANCH  11  12
ENDBRANCH   5  11
ENDBRANCH   1   9
BRANCH   3  16
ATOM     16  C   UNL     1       4.126   3.689  18.217  0.00  0.00    +0.000 C 
ATOM     17  C   UNL     1       3.500   2.323  17.879  0.00  0.00    +0.000 C 
BRANCH  16  18
ATOM     18  C   UNL     1       5.270   4.009  17.258  0.00  0.00    +0.000 A 
ATOM     19  C   UNL     1       6.532   4.293  17.761  0.00  0.00    +0.000 A 
ATOM     20  C   UNL     1       7.495   4.635  16.844  0.00  0.00    +0.000 A 
ATOM     21  N   UNL     1       7.274   4.695  15.520  0.00  0.00    +0.000 NA
ATOM     22  C   UNL     1       6.025   4.405  15.130  0.00  0.00    +0.000 A 
ATOM     23  N   UNL     1       5.001   4.071  15.932  0.00  0.00    +0.000 NA
ENDBRANCH  16  18
ENDBRANCH   3  16
TORSDOF 6
ENDMDL
MODEL 6
REMARK VINA RESULT:      -6.9      0.849      1.091
REMARK  Name = 
REMARK  9 active torsions:
REMARK  status: ('A' for Active; 'I' for Inactive)
REMARK    1  A    between atoms: C_2  and  C_3
REMARK    2  A    between atoms: C_2  and  C_4
REMARK    3  A    between atoms: C_4  and  O_5
REMARK    4  A    between atoms: O_5  and  C_6
REMARK    5  A    between atoms: C_10  and  C_11
REMARK    6  A    between atoms: N_13  and  C_14
REMARK    7  A    between atoms: N_13  and  C_15
REMARK    8  A    between atoms: C_15  and  C_16
REMARK    9  A    between atoms: C_15  and  C_17
REMARK                            x       y       z     vdW  Elec       q    Type
REMARK                         _______ _______ _______ _____ _____    ______ ____
ROOT
ATOM      1  C   UNL     1       4.675   5.598  18.951  0.00  0.00    +0.000 C 
ATOM      2  O   UNL     1       5.125   4.984  19.917  0.00  0.00    +0.000 OA
ATOM      3  N   UNL     1       3.468   6.315  19.014  0.00  0.00    +0.000 N 
ATOM      4  C   UNL     1       2.886   7.135  17.952  0.00  0.00    +0.000 C 
ENDROOT
BRANCH   1   9
ATOM      5  C   UNL     1       6.098   4.456  15.637  0.00  0.00    +0.000 A 
ATOM      6  C   UNL     1       7.171   5.335  15.482  0.00  0.00    +0.000 A 
ATOM      7  C   UNL     1       7.356   6.391  16.376  0.00  0.00    +0.000 A 
ATOM      8  C   UNL     1       6.497   6.541  17.464  0.00  0.00    +0.000 A 
ATOM      9  C   UNL     1       5.514   5.580  17.714  0.00  0.00    +0.000 A 
ATOM     10  C   UNL     1       5.273   4.574  16.759  0.00  0.00    +0.000 A 
BRANCH   5  11
ATOM     11  O   UNL     1       6.000   3.474  14.683  0.00  0.00    +0.000 OA
BRANCH  11  12
ATOM     12  C   UNL     1       5.339   3.852  13.470  0.00  0.00    +0.000 C 
BRANCH  12  14
ATOM     13  C   UNL     1       7.232   4.158  11.851  0.00  0.00    +0.000 C 
ATOM     14  C   UNL     1       6.190   3.431  12.289  0.00  0.00    +0.000 C 
ATOM     15  C   UNL     1       5.774   2.169  11.585  0.00  0.00    +0.000 C 
ENDBRANCH  12  14
ENDBRANCH  11  12
ENDBRANCH   5  11
ENDBRANCH   1   9
BRANCH   3  16
ATOM     16  C   UNL     1       2.659   6.163  20.251  0.00  0.00    +0.000 C 
ATOM     17  C   UNL     1       1.536   7.205  20.409  0.00  0.00    +0.000 C 
BRANCH  16  18
ATOM     18  C   UNL     1       2.098   4.747  20.355  0.00  0.00    +0.000 A 
ATOM     19  C   UNL     1       1.407   4.201  19.283  0.00  0.00    +0.000 A 
ATOM     20  C   UNL     1       0.874   2.948  19.471  0.00  0.00    +0.000 A 
ATOM     21  N   UNL     1       0.999   2.250  20.612  0.00  0.00    +0.000 NA
ATOM     22  C   UNL     1       1.681   2.862  21.590  0.00  0.00    +0.000 A 
ATOM     23  N   UNL     1       2.234   4.083  21.527  0.00  0.00    +0.000 NA
ENDBRANCH  16  18
ENDBRANCH   3  16
TORSDOF 6
ENDMDL
MODEL 7
REMARK VINA RESULT:      -6.8      3.198      7.558
REMARK  Name = 
REMARK  9 active torsions:
REMARK  status: ('A' for Active; 'I' for Inactive)
REMARK    1  A    between atoms: C_2  and  C_3
REMARK    2  A    between atoms: C_2  and  C_4
REMARK    3  A    between atoms: C_4  and  O_5
REMARK    4  A    between atoms: O_5  and  C_6
REMARK    5  A    between atoms: C_10  and  C_11
REMARK    6  A    between atoms: N_13  and  C_14
REMARK    7  A    between atoms: N_13  and  C_15
REMARK    8  A    between atoms: C_15  and  C_16
REMARK    9  A    between atoms: C_15  and  C_17
REMARK                            x       y       z     vdW  Elec       q    Type
REMARK                         _______ _______ _______ _____ _____    ______ ____
ROOT
ATOM      1  C   UNL     1       3.431   5.586  19.299  0.00  0.00    +0.000 C 
ATOM      2  O   UNL     1       4.513   5.593  19.883  0.00  0.00    +0.000 OA
ATOM      3  N   UNL     1       3.048   4.539  18.442  0.00  0.00    +0.000 N 
ATOM      4  C   UNL     1       1.761   4.397  17.761  0.00  0.00    +0.000 C 
ENDROOT
BRANCH   1   9
ATOM      5  C   UNL     1       1.677   8.917  18.924  0.00  0.00    +0.000 A 
ATOM      6  C   UNL     1       1.017   9.018  20.151  0.00  0.00    +0.000 A 
ATOM      7  C   UNL     1       1.021   7.947  21.047  0.00  0.00    +0.000 A 
ATOM      8  C   UNL     1       1.732   6.787  20.744  0.00  0.00    +0.000 A 
ATOM      9  C   UNL     1       2.520   6.734  19.591  0.00  0.00    +0.000 A 
ATOM     10  C   UNL     1       2.436   7.776  18.648  0.00  0.00    +0.000 A 
BRANCH   5  11
ATOM     11  O   UNL     1       1.581  10.019  18.113  0.00  0.00    +0.000 OA
BRANCH  11  12
ATOM     12  C   UNL     1       0.649  11.020  18.534  0.00  0.00    +0.000 C 
BRANCH  12  14
ATOM     13  C   UNL     1       2.602  12.545  18.136  0.00  0.00    +0.000 C 
ATOM     14  C   UNL     1       1.356  12.359  18.604  0.00  0.00    +0.000 C 
ATOM     15  C   UNL     1       0.608  13.471  19.285  0.00  0.00    +0.000 C 
ENDBRANCH  12  14
ENDBRANCH  11  12
ENDBRANCH   5  11
ENDBRANCH   1   9
BRANCH   3  16
ATOM     16  C   UNL     1       4.077   3.514  18.130  0.00  0.00    +0.000 C 
ATOM     17  C   UNL     1       3.517   2.211  17.532  0.00  0.00    +0.000 C 
BRANCH  16  18
ATOM     18  C   UNL     1       5.160   4.099  17.226  0.00  0.00    +0.000 A 
ATOM     19  C   UNL     1       4.868   4.383  15.899  0.00  0.00    +0.000 A 
ATOM     20  C   UNL     1       5.908   4.845  15.129  0.00  0.00    +0.000 A 
ATOM     21  N   UNL     1       7.153   5.035  15.597  0.00  0.00    +0.000 NA
ATOM     22  C   UNL     1       7.337   4.732  16.889  0.00  0.00    +0.000 A 
ATOM     23  N   UNL     1       6.404   4.263  17.733  0.00  0.00    +0.000 NA
ENDBRANCH  16  18
ENDBRANCH   3  16
TORSDOF 6
ENDMDL
MODEL 8
REMARK VINA RESULT:      -6.8      3.097      7.433
REMARK  Name = 
REMARK  9 active torsions:
REMARK  status: ('A' for Active; 'I' for Inactive)
REMARK    1  A    between atoms: C_2  and  C_3
REMARK    2  A    between atoms: C_2  and  C_4
REMARK    3  A    between atoms: C_4  and  O_5
REMARK    4  A    between atoms: O_5  and  C_6
REMARK    5  A    between atoms: C_10  and  C_11
REMARK    6  A    between atoms: N_13  and  C_14
REMARK    7  A    between atoms: N_13  and  C_15
REMARK    8  A    between atoms: C_15  and  C_16
REMARK    9  A    between atoms: C_15  and  C_17
REMARK                            x       y       z     vdW  Elec       q    Type
REMARK                         _______ _______ _______ _____ _____    ______ ____
ROOT
ATOM      1  C   UNL     1       3.447   5.605  19.387  0.00  0.00    +0.000 C 
ATOM      2  O   UNL     1       4.562   5.682  19.899  0.00  0.00    +0.000 OA
ATOM      3  N   UNL     1       3.052   4.501  18.612  0.00  0.00    +0.000 N 
ATOM      4  C   UNL     1       1.733   4.276  18.023  0.00  0.00    +0.000 C 
ENDROOT
BRANCH   1   9
ATOM      5  C   UNL     1       1.533   8.838  18.943  0.00  0.00    +0.000 A 
ATOM      6  C   UNL     1       0.958   8.992  20.206  0.00  0.00    +0.000 A 
ATOM      7  C   UNL     1       1.070   7.980  21.163  0.00  0.00    +0.000 A 
ATOM      8  C   UNL     1       1.806   6.831  20.878  0.00  0.00    +0.000 A 
ATOM      9  C   UNL     1       2.512   6.735  19.676  0.00  0.00    +0.000 A 
ATOM     10  C   UNL     1       2.318   7.712  18.681  0.00  0.00    +0.000 A 
BRANCH   5  11
ATOM     11  O   UNL     1       1.334   9.883  18.076  0.00  0.00    +0.000 OA
BRANCH  11  12
ATOM     12  C   UNL     1       0.630  11.009  18.613  0.00  0.00    +0.000 C 
BRANCH  12  14
ATOM     13  C   UNL     1      -1.324  10.037  17.374  0.00  0.00    +0.000 C 
ATOM     14  C   UNL     1      -0.851  10.844  18.339  0.00  0.00    +0.000 C 
ATOM     15  C   UNL     1      -1.779  11.683  19.173  0.00  0.00    +0.000 C 
ENDBRANCH  12  14
ENDBRANCH  11  12
ENDBRANCH   5  11
ENDBRANCH   1   9
BRANCH   3  16
ATOM     16  C   UNL     1       4.100   3.497  18.289  0.00  0.00    +0.000 C 
ATOM     17  C   UNL     1       3.564   2.196  17.665  0.00  0.00    +0.000 C 
BRANCH  16  18
ATOM     18  C   UNL     1       5.179   4.114  17.404  0.00  0.00    +0.000 A 
ATOM     19  C   UNL     1       4.858   4.539  16.122  0.00  0.00    +0.000 A 
ATOM     20  C   UNL     1       5.893   5.023  15.359  0.00  0.00    +0.000 A 
ATOM     21  N   UNL     1       7.162   5.108  15.794  0.00  0.00    +0.000 NA
ATOM     22  C   UNL     1       7.373   4.673  17.044  0.00  0.00    +0.000 A 
ATOM     23  N   UNL     1       6.447   4.170  17.875  0.00  0.00    +0.000 NA
ENDBRANCH  16  18
ENDBRANCH   3  16
TORSDOF 6
ENDMDL
MODEL 9
REMARK VINA RESULT:      -6.7      3.428      5.965
REMARK  Name = 
REMARK  9 active torsions:
REMARK  status: ('A' for Active; 'I' for Inactive)
REMARK    1  A    between atoms: C_2  and  C_3
REMARK    2  A    between atoms: C_2  and  C_4
REMARK    3  A    between atoms: C_4  and  O_5
REMARK    4  A    between atoms: O_5  and  C_6
REMARK    5  A    between atoms: C_10  and  C_11
REMARK    6  A    between atoms: N_13  and  C_14
REMARK    7  A    between atoms: N_13  and  C_15
REMARK    8  A    between atoms: C_15  and  C_16
REMARK    9  A    between atoms: C_15  and  C_17
REMARK                            x       y       z     vdW  Elec       q    Type
REMARK                         _______ _______ _______ _____ _____    ______ ____
ROOT
ATOM      1  C   UNL     1       1.868   6.501  20.021  0.00  0.00    +0.000 C 
ATOM      2  O   UNL     1       1.461   6.049  21.089  0.00  0.00    +0.000 OA
ATOM      3  N   UNL     1       1.758   7.864  19.693  0.00  0.00    +0.000 N 
ATOM      4  C   UNL     1       2.273   8.514  18.488  0.00  0.00    +0.000 C 
ENDROOT
BRANCH   1   9
ATOM      5  C   UNL     1       4.606   4.543  18.294  0.00  0.00    +0.000 A 
ATOM      6  C   UNL     1       3.886   3.891  17.291  0.00  0.00    +0.000 A 
ATOM      7  C   UNL     1       2.492   3.969  17.256  0.00  0.00    +0.000 A 
ATOM      8  C   UNL     1       1.814   4.747  18.193  0.00  0.00    +0.000 A 
ATOM      9  C   UNL     1       2.532   5.525  19.105  0.00  0.00    +0.000 A 
ATOM     10  C   UNL     1       3.929   5.368  19.197  0.00  0.00    +0.000 A 
BRANCH   5  11
ATOM     11  O   UNL     1       5.966   4.372  18.246  0.00  0.00    +0.000 OA
BRANCH  11  12
ATOM     12  C   UNL     1       6.661   5.192  17.300  0.00  0.00    +0.000 C 
BRANCH  12  14
ATOM     13  C   UNL     1       7.586   7.513  17.527  0.00  0.00    +0.000 C 
ATOM     14  C   UNL     1       7.404   6.285  18.041  0.00  0.00    +0.000 C 
ATOM     15  C   UNL     1       7.986   5.908  19.375  0.00  0.00    +0.000 C 
ENDBRANCH  12  14
ENDBRANCH  11  12
ENDBRANCH   5  11
ENDBRANCH   1   9
BRANCH   3  16
ATOM     16  C   UNL     1       0.973   8.718  20.621  0.00  0.00    +0.000 C 
ATOM     17  C   UNL     1       1.705   9.078  21.927  0.00  0.00    +0.000 C 
BRANCH  16  18
ATOM     18  C   UNL     1       0.490   9.979  19.911  0.00  0.00    +0.000 A 
ATOM     19  C   UNL     1      -0.610   9.915  19.066  0.00  0.00    +0.000 A 
ATOM     20  C   UNL     1      -0.948  11.074  18.410  0.00  0.00    +0.000 A 
ATOM     21  N   UNL     1      -0.284  12.233  18.557  0.00  0.00    +0.000 NA
ATOM     22  C   UNL     1       0.763  12.196  19.393  0.00  0.00    +0.000 A 
ATOM     23  N   UNL     1       1.194  11.124  20.076  0.00  0.00    +0.000 NA
ENDBRANCH  16  18
ENDBRANCH   3  16
TORSDOF 6
ENDMDL
