MODEL 1
REMARK VINA RESULT:      -6.8      0.000      0.000
REMARK  Name = 
REMARK  11 active torsions:
REMARK  status: ('A' for Active; 'I' for Inactive)
REMARK    1  A    between atoms: C_1  and  O_2
REMARK    2  A    between atoms: O_2  and  C_3
REMARK    3  A    between atoms: C_3  and  C_4
REMARK    4  A    between atoms: C_4  and  N_5
REMARK    5  A    between atoms: N_5  and  C_6
REMARK    6  A    between atoms: N_5  and  C_7
REMARK    7  A    between atoms: C_7  and  C_8
REMARK    8  A    between atoms: C_11  and  N_12
REMARK    9  A    between atoms: C_17  and  C_18
REMARK   10  A    between atoms: C_21  and  N_22
REMARK   11  A    between atoms: C_28  and  C_29
REMARK                            x       y       z     vdW  Elec       q    Type
REMARK                         _______ _______ _______ _____ _____    ______ ____
ROOT
ATOM      1  N   UNL     1       0.481  11.536  21.413  0.00  0.00    +0.000 N 
ATOM      2  C   UNL     1       0.329  10.820  20.218  0.00  0.00    +0.000 A 
ATOM      3  N   UNL     1      -0.670  11.148  19.390  0.00  0.00    +0.000 NA
ATOM      4  C   UNL     1      -0.762  10.479  18.234  0.00  0.00    +0.000 A 
ATOM      5  C   UNL     1       0.107   9.483  17.872  0.00  0.00    +0.000 A 
ATOM      6  C   UNL     1       1.101   9.177  18.778  0.00  0.00    +0.000 A 
ATOM      7  N   UNL     1       1.218   9.848  19.955  0.00  0.00    +0.000 NA
ATOM      8  H   UNL     1       1.118  11.012  22.001  0.00  0.00    +0.000 HD
ENDROOT
BRANCH   1  12
ATOM      9  C   UNL     1      -2.788  13.234  23.387  0.00  0.00    +0.000 A 
ATOM     10  C   UNL     1      -2.545  11.870  23.531  0.00  0.00    +0.000 A 
ATOM     11  C   UNL     1      -1.444  11.305  22.881  0.00  0.00    +0.000 A 
ATOM     12  C   UNL     1      -0.583  12.110  22.135  0.00  0.00    +0.000 A 
ATOM     13  C   UNL     1      -0.909  13.464  22.058  0.00  0.00    +0.000 A 
ATOM     14  N   UNL     1      -1.982  14.038  22.651  0.00  0.00    +0.000 NA
BRANCH   9  15
ATOM     15  C   UNL     1      -4.032  13.881  23.965  0.00  0.00    +0.000 C 
BRANCH  15  16
ATOM     16  N   UNL     1      -4.974  14.488  22.995  0.00  0.00    +0.000 NA
ATOM     17  C   UNL     1      -5.771  15.491  23.714  0.00  0.00    +0.000 C 
BRANCH  16  18
ATOM     18  C   UNL     1      -5.839  13.449  22.387  0.00  0.00    +0.000 C 
BRANCH  18  19
ATOM     19  C   UNL     1      -6.470  13.886  21.054  0.00  0.00    +0.000 C 
BRANCH  19  21
ATOM     20  C   UNL     1      -7.702  11.967  21.604  0.00  0.00    +0.000 C 
ATOM     21  O   UNL     1      -7.660  13.136  20.794  0.00  0.00    +0.000 OA
ENDBRANCH  19  21
ENDBRANCH  18  19
ENDBRANCH  16  18
ENDBRANCH  15  16
ENDBRANCH   9  15
ENDBRANCH   1  12
BRANCH   6  22
ATOM     22  C   UNL     1       2.131   8.150  18.523  0.00  0.00    +0.000 A 
ATOM     23  C   UNL     1       3.181   8.302  17.618  0.00  0.00    +0.000 A 
ATOM     24  N   UNL     1       4.175   7.391  17.392  0.00  0.00    +0.000 NA
ATOM     25  C   UNL     1       4.144   6.219  18.068  0.00  0.00    +0.000 A 
ATOM     26  C   UNL     1       3.121   5.975  18.991  0.00  0.00    +0.000 A 
ATOM     27  C   UNL     1       2.126   6.937  19.212  0.00  0.00    +0.000 A 
BRANCH  25  28
ATOM     28  N   UNL     1       5.150   5.282  17.851  0.00  0.00    +0.000 N 
ATOM     29  C   UNL     1       6.534   5.625  18.184  0.00  0.00    +0.000 C 
ATOM     30  C   UNL     1       7.339   4.536  17.474  0.00  0.00    +0.000 C 
ATOM     31  C   UNL     1       6.598   4.402  16.160  0.00  0.00    +0.000 C 
ATOM     32  F   UNL     1       6.984   5.416  15.336  0.00  0.00    +0.000 F 
ATOM     33  C   UNL     1       5.127   4.588  16.544  0.00  0.00    +0.000 C 
ENDBRANCH  25  28
BRANCH  26  34
ATOM     34  C   UNL     1       3.095   4.784  19.772  0.00  0.00    +0.000 C 
ATOM     35  N   UNL     1       3.109   3.814  20.415  0.00  0.00    +0.000 NA
ENDBRANCH  26  34
ENDBRANCH   6  22
TORSDOF 9
ENDMDL
MODEL 2
REMARK VINA RESULT:      -6.8      2.142      2.728
REMARK  Name = 
REMARK  11 active torsions:
REMARK  status: ('A' for Active; 'I' for Inactive)
REMARK    1  A    between atoms: C_1  and  O_2
REMARK    2  A    between atoms: O_2  and  C_3
REMARK    3  A    between atoms: C_3  and  C_4
REMARK    4  A    between atoms: C_4  and  N_5
REMARK    5  A    between atoms: N_5  and  C_6
REMARK    6  A    between atoms: N_5  and  C_7
REMARK    7  A    between atoms: C_7  and  C_8
REMARK    8  A    between atoms: C_11  and  N_12
REMARK    9  A    between atoms: C_17  and  C_18
REMARK   10  A    between atoms: C_21  and  N_22
REMARK   11  A    between atoms: C_28  and  C_29
REMARK                            x       y       z     vdW  Elec       q    Type
REMARK                         _______ _______ _______ _____ _____    ______ ____
ROOT
ATOM      1  N   UNL     1       0.075  11.202  19.408  0.00  0.00    +0.000 N 
ATOM      2  C   UNL     1       0.439   9.978  19.985  0.00  0.00    +0.000 A 
ATOM      3  N   UNL     1      -0.149   9.602  21.128  0.00  0.00    +0.000 NA
ATOM      4  C   UNL     1       0.182   8.407  21.631  0.00  0.00    +0.000 A 
ATOM      5  C   UNL     1       1.089   7.567  21.038  0.00  0.00    +0.000 A 
ATOM      6  C   UNL     1       1.675   8.022  19.875  0.00  0.00    +0.000 A 
ATOM      7  N   UNL     1       1.350   9.230  19.342  0.00  0.00    +0.000 NA
ATOM      8  H   UNL     1       0.769  11.422  18.703  0.00  0.00    +0.000 HD
ENDROOT
BRANCH   1  12
ATOM      9  C   UNL     1      -1.045  14.670  21.454  0.00  0.00    +0.000 A 
ATOM     10  C   UNL     1      -1.920  14.125  20.516  0.00  0.00    +0.000 A 
ATOM     11  C   UNL     1      -1.550  12.958  19.841  0.00  0.00    +0.000 A 
ATOM     12  C   UNL     1      -0.340  12.332  20.139  0.00  0.00    +0.000 A 
ATOM     13  C   UNL     1       0.461  12.952  21.097  0.00  0.00    +0.000 A 
ATOM     14  N   UNL     1       0.147  14.096  21.748  0.00  0.00    +0.000 NA
BRANCH   9  15
ATOM     15  C   UNL     1      -1.335  15.997  22.127  0.00  0.00    +0.000 C 
BRANCH  15  16
ATOM     16  N   UNL     1      -2.460  16.018  23.092  0.00  0.00    +0.000 NA
ATOM     17  C   UNL     1      -2.637  17.405  23.542  0.00  0.00    +0.000 C 
BRANCH  16  18
ATOM     18  C   UNL     1      -2.184  15.114  24.234  0.00  0.00    +0.000 C 
BRANCH  18  19
ATOM     19  C   UNL     1      -3.368  14.195  24.583  0.00  0.00    +0.000 C 
BRANCH  19  21
ATOM     20  C   UNL     1      -2.952  12.185  23.447  0.00  0.00    +0.000 C 
ATOM     21  O   UNL     1      -3.718  13.384  23.458  0.00  0.00    +0.000 OA
ENDBRANCH  19  21
ENDBRANCH  18  19
ENDBRANCH  16  18
ENDBRANCH  15  16
ENDBRANCH   9  15
ENDBRANCH   1  12
BRANCH   6  22
ATOM     22  C   UNL     1       2.649   7.224  19.103  0.00  0.00    +0.000 A 
ATOM     23  C   UNL     1       3.234   7.644  17.908  0.00  0.00    +0.000 A 
ATOM     24  N   UNL     1       4.172   6.951  17.195  0.00  0.00    +0.000 NA
ATOM     25  C   UNL     1       4.560   5.736  17.646  0.00  0.00    +0.000 A 
ATOM     26  C   UNL     1       4.018   5.229  18.833  0.00  0.00    +0.000 A 
ATOM     27  C   UNL     1       3.072   5.972  19.550  0.00  0.00    +0.000 A 
BRANCH  25  28
ATOM     28  N   UNL     1       5.515   5.018  16.932  0.00  0.00    +0.000 N 
ATOM     29  C   UNL     1       6.550   5.742  16.192  0.00  0.00    +0.000 C 
ATOM     30  C   UNL     1       7.135   4.666  15.277  0.00  0.00    +0.000 C 
ATOM     31  C   UNL     1       5.894   3.913  14.843  0.00  0.00    +0.000 C 
ATOM     32  F   UNL     1       5.281   4.618  13.851  0.00  0.00    +0.000 F 
ATOM     33  C   UNL     1       5.008   3.911  16.092  0.00  0.00    +0.000 C 
ENDBRANCH  25  28
BRANCH  26  34
ATOM     34  C   UNL     1       4.454   3.985  19.375  0.00  0.00    +0.000 C 
ATOM     35  N   UNL     1       4.833   2.987  19.839  0.00  0.00    +0.000 NA
ENDBRANCH  26  34
ENDBRANCH   6  22
TORSDOF 9
ENDMDL
MODEL 3
REMARK VINA RESULT:      -6.7      1.854      2.392
REMARK  Name = 
REMARK  11 active torsions:
REMARK  status: ('A' for Active; 'I' for Inactive)
REMARK    1  A    between atoms: C_1  and  O_2
REMARK    2  A    between atoms: O_2  and  C_3
REMARK    3  A    between atoms: C_3  and  C_4
REMARK    4  A    between atoms: C_4  and  N_5
REMARK    5  A    between atoms: N_5  and  C_6
REMARK    6  A    between atoms: N_5  and  C_7
REMARK    7  A    between atoms: C_7  and  C_8
REMARK    8  A    between atoms: C_11  and  N_12
REMARK    9  A    between atoms: C_17  and  C_18
REMARK   10  A    between atoms: C_21  and  N_22
REMARK   11  A    between atoms: C_28  and  C_29
REMARK                            x       y       z     vdW  Elec       q    Type
REMARK                         _______ _______ _______ _____ _____    ______ ____
ROOT
ATOM      1  N   UNL     1      -0.598  10.883  18.947  0.00  0.00    +0.000 N 
ATOM      2  C   UNL     1       0.054   9.902  19.706  0.00  0.00    +0.000 A 
ATOM      3  N   UNL     1      -0.290   9.742  20.990  0.00  0.00    +0.000 NA
ATOM      4  C   UNL     1       0.314   8.765  21.677  0.00  0.00    +0.000 A 
ATOM      5  C   UNL     1       1.263   7.940  21.132  0.00  0.00    +0.000 A 
ATOM      6  C   UNL     1       1.590   8.171  19.812  0.00  0.00    +0.000 A 
ATOM      7  N   UNL     1       0.984   9.152  19.093  0.00  0.00    +0.000 NA
ATOM      8  H   UNL     1      -0.060  11.016  18.099  0.00  0.00    +0.000 HD
ENDROOT
BRANCH   1  12
ATOM      9  C   UNL     1      -2.080  14.380  20.690  0.00  0.00    +0.000 A 
ATOM     10  C   UNL     1      -0.725  14.303  20.377  0.00  0.00    +0.000 A 
ATOM     11  C   UNL     1      -0.232  13.137  19.783  0.00  0.00    +0.000 A 
ATOM     12  C   UNL     1      -1.099  12.089  19.473  0.00  0.00    +0.000 A 
ATOM     13  C   UNL     1      -2.438  12.268  19.818  0.00  0.00    +0.000 A 
ATOM     14  N   UNL     1      -2.943  13.370  20.420  0.00  0.00    +0.000 NA
BRANCH   9  15
ATOM     15  C   UNL     1      -2.651  15.565  21.445  0.00  0.00    +0.000 C 
BRANCH  15  16
ATOM     16  N   UNL     1      -4.068  15.460  21.868  0.00  0.00    +0.000 NA
ATOM     17  C   UNL     1      -4.710  16.755  21.603  0.00  0.00    +0.000 C 
BRANCH  16  18
ATOM     18  C   UNL     1      -4.158  15.099  23.303  0.00  0.00    +0.000 C 
BRANCH  18  19
ATOM     19  C   UNL     1      -4.925  13.790  23.554  0.00  0.00    +0.000 C 
BRANCH  19  21
ATOM     20  C   UNL     1      -7.182  14.302  23.940  0.00  0.00    +0.000 C 
ATOM     21  O   UNL     1      -6.233  13.859  22.977  0.00  0.00    +0.000 OA
ENDBRANCH  19  21
ENDBRANCH  18  19
ENDBRANCH  16  18
ENDBRANCH  15  16
ENDBRANCH   9  15
ENDBRANCH   1  12
BRANCH   6  22
ATOM     22  C   UNL     1       2.572   7.350  19.073  0.00  0.00    +0.000 A 
ATOM     23  C   UNL     1       3.192   7.747  17.889  0.00  0.00    +0.000 A 
ATOM     24  N   UNL     1       4.137   7.032  17.208  0.00  0.00    +0.000 NA
ATOM     25  C   UNL     1       4.497   5.818  17.683  0.00  0.00    +0.000 A 
ATOM     26  C   UNL     1       3.919   5.333  18.862  0.00  0.00    +0.000 A 
ATOM     27  C   UNL     1       2.966   6.097  19.547  0.00  0.00    +0.000 A 
BRANCH  25  28
ATOM     28  N   UNL     1       5.459   5.078  17.001  0.00  0.00    +0.000 N 
ATOM     29  C   UNL     1       6.534   5.778  16.296  0.00  0.00    +0.000 C 
ATOM     30  C   UNL     1       7.125   4.688  15.401  0.00  0.00    +0.000 C 
ATOM     31  C   UNL     1       5.883   3.962  14.927  0.00  0.00    +0.000 C 
ATOM     32  F   UNL     1       5.319   4.678  13.915  0.00  0.00    +0.000 F 
ATOM     33  C   UNL     1       4.956   3.980  16.146  0.00  0.00    +0.000 C 
ENDBRANCH  25  28
BRANCH  26  34
ATOM     34  C   UNL     1       4.324   4.090  19.430  0.00  0.00    +0.000 C 
ATOM     35  N   UNL     1       4.662   3.064  19.862  0.00  0.00    +0.000 NA
ENDBRANCH  26  34
ENDBRANCH   6  22
TORSDOF 9
ENDMDL
MODEL 4
REMARK VINA RESULT:      -6.7      2.107      2.806
REMARK  Name = 
REMARK  11 active torsions:
REMARK  status: ('A' for Active; 'I' for Inactive)
REMARK    1  A    between atoms: C_1  and  O_2
REMARK    2  A    between atoms: O_2  and  C_3
REMARK    3  A    between atoms: C_3  and  C_4
REMARK    4  A    between atoms: C_4  and  N_5
REMARK    5  A    between atoms: N_5  and  C_6
REMARK    6  A    between atoms: N_5  and  C_7
REMARK    7  A    between atoms: C_7  and  C_8
REMARK    8  A    between atoms: C_11  and  N_12
REMARK    9  A    between atoms: C_17  and  C_18
REMARK   10  A    between atoms: C_21  and  N_22
REMARK   11  A    between atoms: C_28  and  C_29
REMARK                            x       y       z     vdW  Elec       q    Type
REMARK                         _______ _______ _______ _____ _____    ______ ____
ROOT
ATOM      1  N   UNL     1      -0.326  11.022  21.541  0.00  0.00    +0.000 N 
ATOM      2  C   UNL     1       0.416  10.848  20.365  0.00  0.00    +0.000 A 
ATOM      3  N   UNL     1       0.595  11.897  19.552  0.00  0.00    +0.000 NA
ATOM      4  C   UNL     1       1.347  11.714  18.461  0.00  0.00    +0.000 A 
ATOM      5  C   UNL     1       1.927  10.514  18.140  0.00  0.00    +0.000 A 
ATOM      6  C   UNL     1       1.686   9.467  19.006  0.00  0.00    +0.000 A 
ATOM      7  N   UNL     1       0.931   9.631  20.124  0.00  0.00    +0.000 NA
ATOM      8  H   UNL     1      -0.550  10.100  21.896  0.00  0.00    +0.000 HD
ENDROOT
BRANCH   1  12
ATOM      9  C   UNL     1      -3.601  13.579  21.982  0.00  0.00    +0.000 A 
ATOM     10  C   UNL     1      -2.776  13.342  23.079  0.00  0.00    +0.000 A 
ATOM     11  C   UNL     1      -1.673  12.496  22.928  0.00  0.00    +0.000 A 
ATOM     12  C   UNL     1      -1.387  11.936  21.683  0.00  0.00    +0.000 A 
ATOM     13  C   UNL     1      -2.269  12.241  20.647  0.00  0.00    +0.000 A 
ATOM     14  N   UNL     1      -3.361  13.032  20.765  0.00  0.00    +0.000 NA
BRANCH   9  15
ATOM     15  C   UNL     1      -4.878  14.386  22.113  0.00  0.00    +0.000 C 
BRANCH  15  16
ATOM     16  N   UNL     1      -6.023  13.954  21.276  0.00  0.00    +0.000 NA
ATOM     17  C   UNL     1      -6.901  15.116  21.086  0.00  0.00    +0.000 C 
BRANCH  16  18
ATOM     18  C   UNL     1      -6.748  12.834  21.924  0.00  0.00    +0.000 C 
BRANCH  18  19
ATOM     19  C   UNL     1      -7.150  11.721  20.940  0.00  0.00    +0.000 C 
BRANCH  19  21
ATOM     20  C   UNL     1      -6.655  10.797  18.841  0.00  0.00    +0.000 C 
ATOM     21  O   UNL     1      -6.580  11.965  19.650  0.00  0.00    +0.000 OA
ENDBRANCH  19  21
ENDBRANCH  18  19
ENDBRANCH  16  18
ENDBRANCH  15  16
ENDBRANCH   9  15
ENDBRANCH   1  12
BRANCH   6  22
ATOM     22  C   UNL     1       2.263   8.120  18.816  0.00  0.00    +0.000 A 
ATOM     23  C   UNL     1       1.919   7.006  19.581  0.00  0.00    +0.000 A 
ATOM     24  N   UNL     1       2.399   5.739  19.400  0.00  0.00    +0.000 NA
ATOM     25  C   UNL     1       3.311   5.525  18.425  0.00  0.00    +0.000 A 
ATOM     26  C   UNL     1       3.723   6.588  17.612  0.00  0.00    +0.000 A 
ATOM     27  C   UNL     1       3.199   7.872  17.812  0.00  0.00    +0.000 A 
BRANCH  25  28
ATOM     28  N   UNL     1       3.808   4.240  18.227  0.00  0.00    +0.000 N 
ATOM     29  C   UNL     1       2.921   3.202  17.699  0.00  0.00    +0.000 C 
ATOM     30  C   UNL     1       3.694   1.913  17.980  0.00  0.00    +0.000 C 
ATOM     31  C   UNL     1       4.260   2.180  19.360  0.00  0.00    +0.000 C 
ATOM     32  F   UNL     1       3.282   1.959  20.283  0.00  0.00    +0.000 F 
ATOM     33  C   UNL     1       4.610   3.671  19.333  0.00  0.00    +0.000 C 
ENDBRANCH  25  28
BRANCH  26  34
ATOM     34  C   UNL     1       4.628   6.387  16.530  0.00  0.00    +0.000 C 
ATOM     35  N   UNL     1       5.388   6.248  15.660  0.00  0.00    +0.000 NA
ENDBRANCH  26  34
ENDBRANCH   6  22
TORSDOF 9
ENDMDL
MODEL 5
REMARK VINA RESULT:      -6.6      0.935      1.223
REMARK  Name = 
REMARK  11 active torsions:
REMARK  status: ('A' for Active; 'I' for Inactive)
REMARK    1  A    between atoms: C_1  and  O_2
REMARK    2  A    between atoms: O_2  and  C_3
REMARK    3  A    between atoms: C_3  and  C_4
REMARK    4  A    between atoms: C_4  and  N_5
REMARK    5  A    between atoms: N_5  and  C_6
REMARK    6  A    between atoms: N_5  and  C_7
REMARK    7  A    between atoms: C_7  and  C_8
REMARK    8  A    between atoms: C_11  and  N_12
REMARK    9  A    between atoms: C_17  and  C_18
REMARK   10  A    between atoms: C_21  and  N_22
REMARK   11  A    between atoms: C_28  and  C_29
REMARK                            x       y       z     vdW  Elec       q    Type
REMARK                         _______ _______ _______ _____ _____    ______ ____
ROOT
ATOM      1  N   UNL     1       0.429  11.552  21.434  0.00  0.00    +0.000 N 
ATOM      2  C   UNL     1       0.320  10.872  20.213  0.00  0.00    +0.000 A 
ATOM      3  N   UNL     1      -0.628  11.249  19.345  0.00  0.00    +0.000 NA
ATOM      4  C   UNL     1      -0.678  10.614  18.168  0.00  0.00    +0.000 A 
ATOM      5  C   UNL     1       0.182   9.605  17.822  0.00  0.00    +0.000 A 
ATOM      6  C   UNL     1       1.122   9.249  18.768  0.00  0.00    +0.000 A 
ATOM      7  N   UNL     1       1.196   9.885  19.967  0.00  0.00    +0.000 NA
ATOM      8  H   UNL     1       1.023  10.996  22.038  0.00  0.00    +0.000 HD
ENDROOT
BRANCH   1  12
ATOM      9  C   UNL     1      -2.695  13.243  23.636  0.00  0.00    +0.000 A 
ATOM     10  C   UNL     1      -1.747  14.081  23.053  0.00  0.00    +0.000 A 
ATOM     11  C   UNL     1      -0.709  13.516  22.306  0.00  0.00    +0.000 A 
ATOM     12  C   UNL     1      -0.656  12.135  22.117  0.00  0.00    +0.000 A 
ATOM     13  C   UNL     1      -1.655  11.384  22.734  0.00  0.00    +0.000 A 
ATOM     14  N   UNL     1      -2.657  11.896  23.487  0.00  0.00    +0.000 NA
BRANCH   9  15
ATOM     15  C   UNL     1      -3.771  13.785  24.556  0.00  0.00    +0.000 C 
BRANCH  15  16
ATOM     16  N   UNL     1      -5.133  13.905  23.984  0.00  0.00    +0.000 NA
ATOM     17  C   UNL     1      -5.858  12.665  24.293  0.00  0.00    +0.000 C 
BRANCH  16  18
ATOM     18  C   UNL     1      -5.065  14.137  22.521  0.00  0.00    +0.000 C 
BRANCH  18  19
ATOM     19  C   UNL     1      -5.783  13.051  21.700  0.00  0.00    +0.000 C 
BRANCH  19  21
ATOM     20  C   UNL     1      -5.765  11.942  19.633  0.00  0.00    +0.000 C 
ATOM     21  O   UNL     1      -4.984  12.663  20.578  0.00  0.00    +0.000 OA
ENDBRANCH  19  21
ENDBRANCH  18  19
ENDBRANCH  16  18
ENDBRANCH  15  16
ENDBRANCH   9  15
ENDBRANCH   1  12
BRANCH   6  22
ATOM     22  C   UNL     1       2.137   8.202  18.535  0.00  0.00    +0.000 A 
ATOM     23  C   UNL     1       3.156   8.295  17.587  0.00  0.00    +0.000 A 
ATOM     24  N   UNL     1       4.137   7.367  17.379  0.00  0.00    +0.000 NA
ATOM     25  C   UNL     1       4.124   6.235  18.120  0.00  0.00    +0.000 A 
ATOM     26  C   UNL     1       3.133   6.050  19.091  0.00  0.00    +0.000 A 
ATOM     27  C   UNL     1       2.151   7.029  19.292  0.00  0.00    +0.000 A 
BRANCH  25  28
ATOM     28  N   UNL     1       5.117   5.280  17.922  0.00  0.00    +0.000 N 
ATOM     29  C   UNL     1       6.490   5.578  18.331  0.00  0.00    +0.000 C 
ATOM     30  C   UNL     1       7.303   4.492  17.627  0.00  0.00    +0.000 C 
ATOM     31  C   UNL     1       6.624   4.417  16.275  0.00  0.00    +0.000 C 
ATOM     32  F   UNL     1       7.074   5.446  15.503  0.00  0.00    +0.000 F 
ATOM     33  C   UNL     1       5.141   4.627  16.594  0.00  0.00    +0.000 C 
ENDBRANCH  25  28
BRANCH  26  34
ATOM     34  C   UNL     1       3.128   4.905  19.938  0.00  0.00    +0.000 C 
ATOM     35  N   UNL     1       3.150   3.984  20.650  0.00  0.00    +0.000 NA
ENDBRANCH  26  34
ENDBRANCH   6  22
TORSDOF 9
ENDMDL
MODEL 6
REMARK VINA RESULT:      -6.5      2.935      3.640
REMARK  Name = 
REMARK  11 active torsions:
REMARK  status: ('A' for Active; 'I' for Inactive)
REMARK    1  A    between atoms: C_1  and  O_2
REMARK    2  A    between atoms: O_2  and  C_3
REMARK    3  A    between atoms: C_3  and  C_4
REMARK    4  A    between atoms: C_4  and  N_5
REMARK    5  A    between atoms: N_5  and  C_6
REMARK    6  A    between atoms: N_5  and  C_7
REMARK    7  A    between atoms: C_7  and  C_8
REMARK    8  A    between atoms: C_11  and  N_12
REMARK    9  A    between atoms: C_17  and  C_18
REMARK   10  A    between atoms: C_21  and  N_22
REMARK   11  A    between atoms: C_28  and  C_29
REMARK                            x       y       z     vdW  Elec       q    Type
REMARK                         _______ _______ _______ _____ _____    ______ ____
ROOT
ATOM      1  N   UNL     1       0.384  11.327  19.709  0.00  0.00    +0.000 N 
ATOM      2  C   UNL     1       0.615  10.027  20.179  0.00  0.00    +0.000 A 
ATOM      3  N   UNL     1      -0.070   9.593  21.244  0.00  0.00    +0.000 NA
ATOM      4  C   UNL     1       0.136   8.332  21.641  0.00  0.00    +0.000 A 
ATOM      5  C   UNL     1       1.012   7.481  21.018  0.00  0.00    +0.000 A 
ATOM      6  C   UNL     1       1.704   7.997  19.941  0.00  0.00    +0.000 A 
ATOM      7  N   UNL     1       1.506   9.272  19.516  0.00  0.00    +0.000 NA
ATOM      8  H   UNL     1       1.136  11.556  19.069  0.00  0.00    +0.000 HD
ENDROOT
BRANCH   1  12
ATOM      9  C   UNL     1      -0.639  14.670  21.999  0.00  0.00    +0.000 A 
ATOM     10  C   UNL     1      -1.603  14.094  21.176  0.00  0.00    +0.000 A 
ATOM     11  C   UNL     1      -1.264  12.968  20.418  0.00  0.00    +0.000 A 
ATOM     12  C   UNL     1       0.010  12.412  20.526  0.00  0.00    +0.000 A 
ATOM     13  C   UNL     1       0.900  13.057  21.383  0.00  0.00    +0.000 A 
ATOM     14  N   UNL     1       0.615  14.164  22.108  0.00  0.00    +0.000 NA
BRANCH   9  15
ATOM     15  C   UNL     1      -0.907  15.960  22.748  0.00  0.00    +0.000 C 
BRANCH  15  16
ATOM     16  N   UNL     1      -2.151  16.011  23.554  0.00  0.00    +0.000 NA
ATOM     17  C   UNL     1      -2.428  17.421  23.859  0.00  0.00    +0.000 C 
BRANCH  16  18
ATOM     18  C   UNL     1      -2.002  15.213  24.794  0.00  0.00    +0.000 C 
BRANCH  18  19
ATOM     19  C   UNL     1      -1.510  16.040  25.994  0.00  0.00    +0.000 C 
BRANCH  19  21
ATOM     20  C   UNL     1       0.289  16.427  27.450  0.00  0.00    +0.000 C 
ATOM     21  O   UNL     1      -0.141  15.738  26.281  0.00  0.00    +0.000 OA
ENDBRANCH  19  21
ENDBRANCH  18  19
ENDBRANCH  16  18
ENDBRANCH  15  16
ENDBRANCH   9  15
ENDBRANCH   1  12
BRANCH   6  22
ATOM     22  C   UNL     1       2.662   7.199  19.148  0.00  0.00    +0.000 A 
ATOM     23  C   UNL     1       3.226   7.623  17.945  0.00  0.00    +0.000 A 
ATOM     24  N   UNL     1       4.149   6.930  17.212  0.00  0.00    +0.000 NA
ATOM     25  C   UNL     1       4.541   5.712  17.650  0.00  0.00    +0.000 A 
ATOM     26  C   UNL     1       4.020   5.201  18.844  0.00  0.00    +0.000 A 
ATOM     27  C   UNL     1       3.088   5.943  19.582  0.00  0.00    +0.000 A 
BRANCH  25  28
ATOM     28  N   UNL     1       5.481   4.995  16.915  0.00  0.00    +0.000 N 
ATOM     29  C   UNL     1       6.530   5.717  16.194  0.00  0.00    +0.000 C 
ATOM     30  C   UNL     1       7.092   4.655  15.249  0.00  0.00    +0.000 C 
ATOM     31  C   UNL     1       5.836   3.939  14.797  0.00  0.00    +0.000 C 
ATOM     32  F   UNL     1       5.236   4.682  13.825  0.00  0.00    +0.000 F 
ATOM     33  C   UNL     1       4.951   3.921  16.046  0.00  0.00    +0.000 C 
ENDBRANCH  25  28
BRANCH  26  34
ATOM     34  C   UNL     1       4.462   3.954  19.373  0.00  0.00    +0.000 C 
ATOM     35  N   UNL     1       4.790   2.922  19.798  0.00  0.00    +0.000 NA
ENDBRANCH  26  34
ENDBRANCH   6  22
TORSDOF 9
ENDMDL
MODEL 7
REMARK VINA RESULT:      -6.5      1.040      1.340
REMARK  Name = 
REMARK  11 active torsions:
REMARK  status: ('A' for Active; 'I' for Inactive)
REMARK    1  A    between atoms: C_1  and  O_2
REMARK    2  A    between atoms: O_2  and  C_3
REMARK    3  A    between atoms: C_3  and  C_4
REMARK    4  A    between atoms: C_4  and  N_5
REMARK    5  A    between atoms: N_5  and  C_6
REMARK    6  A    between atoms: N_5  and  C_7
REMARK    7  A    between atoms: C_7  and  C_8
REMARK    8  A    between atoms: C_11  and  N_12
REMARK    9  A    between atoms: C_17  and  C_18
REMARK   10  A    between atoms: C_21  and  N_22
REMARK   11  A    between atoms: C_28  and  C_29
REMARK                            x       y       z     vdW  Elec       q    Type
REMARK                         _______ _______ _______ _____ _____    ______ ____
ROOT
ATOM      1  N   UNL     1       0.637  11.803  20.774  0.00  0.00    +0.000 N 
ATOM      2  C   UNL     1       0.446  10.930  19.694  0.00  0.00    +0.000 A 
ATOM      3  N   UNL     1      -0.611  11.115  18.892  0.00  0.00    +0.000 NA
ATOM      4  C   UNL     1      -0.742  10.297  17.841  0.00  0.00    +0.000 A 
ATOM      5  C   UNL     1       0.141   9.288  17.560  0.00  0.00    +0.000 A 
ATOM      6  C   UNL     1       1.196   9.135  18.436  0.00  0.00    +0.000 A 
ATOM      7  N   UNL     1       1.354   9.959  19.506  0.00  0.00    +0.000 NA
ATOM      8  H   UNL     1       1.326  11.381  21.385  0.00  0.00    +0.000 HD
ENDROOT
BRANCH   1  12
ATOM      9  C   UNL     1      -2.327  13.718  23.012  0.00  0.00    +0.000 A 
ATOM     10  C   UNL     1      -1.695  14.419  21.987  0.00  0.00    +0.000 A 
ATOM     11  C   UNL     1      -0.711  13.774  21.230  0.00  0.00    +0.000 A 
ATOM     12  C   UNL     1      -0.405  12.435  21.478  0.00  0.00    +0.000 A 
ATOM     13  C   UNL     1      -1.099  11.821  22.519  0.00  0.00    +0.000 A 
ATOM     14  N   UNL     1      -2.035  12.424  23.289  0.00  0.00    +0.000 NA
BRANCH   9  15
ATOM     15  C   UNL     1      -3.310  14.398  23.944  0.00  0.00    +0.000 C 
BRANCH  15  16
ATOM     16  N   UNL     1      -4.550  14.928  23.326  0.00  0.00    +0.000 NA
ATOM     17  C   UNL     1      -5.142  15.889  24.266  0.00  0.00    +0.000 C 
BRANCH  16  18
ATOM     18  C   UNL     1      -5.492  13.825  23.022  0.00  0.00    +0.000 C 
BRANCH  18  19
ATOM     19  C   UNL     1      -5.772  12.914  24.230  0.00  0.00    +0.000 C 
BRANCH  19  21
ATOM     20  C   UNL     1      -7.916  13.401  23.411  0.00  0.00    +0.000 C 
ATOM     21  O   UNL     1      -7.161  12.574  24.288  0.00  0.00    +0.000 OA
ENDBRANCH  19  21
ENDBRANCH  18  19
ENDBRANCH  16  18
ENDBRANCH  15  16
ENDBRANCH   9  15
ENDBRANCH   1  12
BRANCH   6  22
ATOM     22  C   UNL     1       2.248   8.114  18.255  0.00  0.00    +0.000 A 
ATOM     23  C   UNL     1       3.314   8.238  17.364  0.00  0.00    +0.000 A 
ATOM     24  N   UNL     1       4.327   7.334  17.206  0.00  0.00    +0.000 NA
ATOM     25  C   UNL     1       4.302   6.198  17.940  0.00  0.00    +0.000 A 
ATOM     26  C   UNL     1       3.264   5.984  18.855  0.00  0.00    +0.000 A 
ATOM     27  C   UNL     1       2.249   6.938  19.006  0.00  0.00    +0.000 A 
BRANCH  25  28
ATOM     28  N   UNL     1       5.327   5.268  17.792  0.00  0.00    +0.000 N 
ATOM     29  C   UNL     1       6.710   5.682  18.036  0.00  0.00    +0.000 C 
ATOM     30  C   UNL     1       7.523   4.542  17.423  0.00  0.00    +0.000 C 
ATOM     31  C   UNL     1       6.744   4.244  16.158  0.00  0.00    +0.000 C 
ATOM     32  F   UNL     1       7.074   5.170  15.214  0.00  0.00    +0.000 F 
ATOM     33  C   UNL     1       5.282   4.433  16.572  0.00  0.00    +0.000 C 
ENDBRANCH  25  28
BRANCH  26  34
ATOM     34  C   UNL     1       3.241   4.833  19.695  0.00  0.00    +0.000 C 
ATOM     35  N   UNL     1       3.229   3.874  20.353  0.00  0.00    +0.000 NA
ENDBRANCH  26  34
ENDBRANCH   6  22
TORSDOF 9
ENDMDL
MODEL 8
REMARK VINA RESULT:      -6.5      1.461      2.202
REMARK  Name = 
REMARK  11 active torsions:
REMARK  status: ('A' for Active; 'I' for Inactive)
REMARK    1  A    between atoms: C_1  and  O_2
REMARK    2  A    between atoms: O_2  and  C_3
REMARK    3  A    between atoms: C_3  and  C_4
REMARK    4  A    between atoms: C_4  and  N_5
REMARK    5  A    between atoms: N_5  and  C_6
REMARK    6  A    between atoms: N_5  and  C_7
REMARK    7  A    between atoms: C_7  and  C_8
REMARK    8  A    between atoms: C_11  and  N_12
REMARK    9  A    between atoms: C_17  and  C_18
REMARK   10  A    between atoms: C_21  and  N_22
REMARK   11  A    between atoms: C_28  and  C_29
REMARK                            x       y       z     vdW  Elec       q    Type
REMARK                         _______ _______ _______ _____ _____    ______ ____
ROOT
ATOM      1  N   UNL     1       0.487  11.612  21.327  0.00  0.00    +0.000 N 
ATOM      2  C   UNL     1       0.331  10.875  20.145  0.00  0.00    +0.000 A 
ATOM      3  N   UNL     1      -0.673  11.188  19.316  0.00  0.00    +0.000 NA
ATOM      4  C   UNL     1      -0.769  10.501  18.172  0.00  0.00    +0.000 A 
ATOM      5  C   UNL     1       0.099   9.499  17.822  0.00  0.00    +0.000 A 
ATOM      6  C   UNL     1       1.098   9.210  18.729  0.00  0.00    +0.000 A 
ATOM      7  N   UNL     1       1.219   9.900  19.894  0.00  0.00    +0.000 NA
ATOM      8  H   UNL     1       1.128  11.098  21.921  0.00  0.00    +0.000 HD
ENDROOT
BRANCH   1  12
ATOM      9  C   UNL     1      -2.564  13.307  23.626  0.00  0.00    +0.000 A 
ATOM     10  C   UNL     1      -1.631  14.144  23.018  0.00  0.00    +0.000 A 
ATOM     11  C   UNL     1      -0.617  13.577  22.239  0.00  0.00    +0.000 A 
ATOM     12  C   UNL     1      -0.575  12.196  22.044  0.00  0.00    +0.000 A 
ATOM     13  C   UNL     1      -1.559  11.447  22.688  0.00  0.00    +0.000 A 
ATOM     14  N   UNL     1      -2.535  11.960  23.472  0.00  0.00    +0.000 NA
BRANCH   9  15
ATOM     15  C   UNL     1      -3.610  13.851  24.579  0.00  0.00    +0.000 C 
BRANCH  15  16
ATOM     16  N   UNL     1      -4.846  14.393  23.966  0.00  0.00    +0.000 NA
ATOM     17  C   UNL     1      -5.193  13.535  22.825  0.00  0.00    +0.000 C 
BRANCH  16  18
ATOM     18  C   UNL     1      -4.643  15.798  23.538  0.00  0.00    +0.000 C 
BRANCH  18  19
ATOM     19  C   UNL     1      -5.587  16.790  24.240  0.00  0.00    +0.000 C 
BRANCH  19  21
ATOM     20  C   UNL     1      -3.581  17.652  25.099  0.00  0.00    +0.000 C 
ATOM     21  O   UNL     1      -4.946  17.367  25.381  0.00  0.00    +0.000 OA
ENDBRANCH  19  21
ENDBRANCH  18  19
ENDBRANCH  16  18
ENDBRANCH  15  16
ENDBRANCH   9  15
ENDBRANCH   1  12
BRANCH   6  22
ATOM     22  C   UNL     1       2.128   8.180  18.486  0.00  0.00    +0.000 A 
ATOM     23  C   UNL     1       3.173   8.317  17.572  0.00  0.00    +0.000 A 
ATOM     24  N   UNL     1       4.166   7.404  17.357  0.00  0.00    +0.000 NA
ATOM     25  C   UNL     1       4.141   6.244  18.053  0.00  0.00    +0.000 A 
ATOM     26  C   UNL     1       3.124   6.015  18.986  0.00  0.00    +0.000 A 
ATOM     27  C   UNL     1       2.129   6.979  19.196  0.00  0.00    +0.000 A 
BRANCH  25  28
ATOM     28  N   UNL     1       5.147   5.304  17.847  0.00  0.00    +0.000 N 
ATOM     29  C   UNL     1       6.532   5.657  18.162  0.00  0.00    +0.000 C 
ATOM     30  C   UNL     1       7.334   4.555  17.468  0.00  0.00    +0.000 C 
ATOM     31  C   UNL     1       6.583   4.394  16.162  0.00  0.00    +0.000 C 
ATOM     32  F   UNL     1       6.961   5.392  15.315  0.00  0.00    +0.000 F 
ATOM     33  C   UNL     1       5.115   4.585  16.554  0.00  0.00    +0.000 C 
ENDBRANCH  25  28
BRANCH  26  34
ATOM     34  C   UNL     1       3.104   4.837  19.788  0.00  0.00    +0.000 C 
ATOM     35  N   UNL     1       3.098   3.857  20.415  0.00  0.00    +0.000 NA
ENDBRANCH  26  34
ENDBRANCH   6  22
TORSDOF 9
ENDMDL
MODEL 9
REMARK VINA RESULT:      -6.4      4.581     11.707
REMARK  Name = 
REMARK  11 active torsions:
REMARK  status: ('A' for Active; 'I' for Inactive)
REMARK    1  A    between atoms: C_1  and  O_2
REMARK    2  A    between atoms: O_2  and  C_3
REMARK    3  A    between atoms: C_3  and  C_4
REMARK    4  A    between atoms: C_4  and  N_5
REMARK    5  A    between atoms: N_5  and  C_6
REMARK    6  A    between atoms: N_5  and  C_7
REMARK    7  A    between atoms: C_7  and  C_8
REMARK    8  A    between atoms: C_11  and  N_12
REMARK    9  A    between atoms: C_17  and  C_18
REMARK   10  A    between atoms: C_21  and  N_22
REMARK   11  A    between atoms: C_28  and  C_29
REMARK                            x       y       z     vdW  Elec       q    Type
REMARK                         _______ _______ _______ _____ _____    ______ ____
ROOT
ATOM      1  N   UNL     1       0.934   8.060  20.233  0.00  0.00    +0.000 N 
ATOM      2  C   UNL     1       0.968   9.433  19.955  0.00  0.00    +0.000 A 
ATOM      3  N   UNL     1       1.499   9.845  18.797  0.00  0.00    +0.000 NA
ATOM      4  C   UNL     1       1.475  11.158  18.536  0.00  0.00    +0.000 A 
ATOM      5  C   UNL     1       0.945  12.085  19.396  0.00  0.00    +0.000 A 
ATOM      6  C   UNL     1       0.434  11.598  20.582  0.00  0.00    +0.000 A 
ATOM      7  N   UNL     1       0.442  10.269  20.865  0.00  0.00    +0.000 NA
ATOM      8  H   UNL     1       0.724   7.956  21.218  0.00  0.00    +0.000 HD
ENDROOT
BRANCH   1  12
ATOM      9  C   UNL     1       3.917   5.417  18.974  0.00  0.00    +0.000 A 
ATOM     10  C   UNL     1       3.128   5.074  20.070  0.00  0.00    +0.000 A 
ATOM     11  C   UNL     1       2.122   5.953  20.483  0.00  0.00    +0.000 A 
ATOM     12  C   UNL     1       1.891   7.134  19.776  0.00  0.00    +0.000 A 
ATOM     13  C   UNL     1       2.729   7.381  18.690  0.00  0.00    +0.000 A 
ATOM     14  N   UNL     1       3.730   6.567  18.281  0.00  0.00    +0.000 NA
BRANCH   9  15
ATOM     15  C   UNL     1       5.099   4.566  18.555  0.00  0.00    +0.000 C 
BRANCH  15  16
ATOM     16  N   UNL     1       5.762   4.936  17.281  0.00  0.00    +0.000 NA
ATOM     17  C   UNL     1       5.436   3.900  16.291  0.00  0.00    +0.000 C 
BRANCH  16  18
ATOM     18  C   UNL     1       7.227   5.054  17.471  0.00  0.00    +0.000 C 
BRANCH  18  19
ATOM     19  C   UNL     1       7.652   6.389  18.108  0.00  0.00    +0.000 C 
BRANCH  19  21
ATOM     20  C   UNL     1       7.936   8.689  17.743  0.00  0.00    +0.000 C 
ATOM     21  O   UNL     1       7.514   7.458  17.167  0.00  0.00    +0.000 OA
ENDBRANCH  19  21
ENDBRANCH  18  19
ENDBRANCH  16  18
ENDBRANCH  15  16
ENDBRANCH   9  15
ENDBRANCH   1  12
BRANCH   6  22
ATOM     22  C   UNL     1      -0.196  12.465  21.599  0.00  0.00    +0.000 A 
ATOM     23  C   UNL     1       0.281  13.725  21.959  0.00  0.00    +0.000 A 
ATOM     24  N   UNL     1      -0.305  14.569  22.860  0.00  0.00    +0.000 NA
ATOM     25  C   UNL     1      -1.426  14.160  23.496  0.00  0.00    +0.000 A 
ATOM     26  C   UNL     1      -1.972  12.904  23.206  0.00  0.00    +0.000 A 
ATOM     27  C   UNL     1      -1.358  12.069  22.264  0.00  0.00    +0.000 A 
BRANCH  25  28
ATOM     28  N   UNL     1      -2.036  15.009  24.416  0.00  0.00    +0.000 N 
ATOM     29  C   UNL     1      -2.745  16.195  23.935  0.00  0.00    +0.000 C 
ATOM     30  C   UNL     1      -2.928  17.026  25.205  0.00  0.00    +0.000 C 
ATOM     31  C   UNL     1      -1.596  16.834  25.901  0.00  0.00    +0.000 C 
ATOM     32  F   UNL     1      -0.680  17.662  25.327  0.00  0.00    +0.000 F 
ATOM     33  C   UNL     1      -1.229  15.378  25.600  0.00  0.00    +0.000 C 
ENDBRANCH  25  28
BRANCH  26  34
ATOM     34  C   UNL     1      -3.190  12.468  23.803  0.00  0.00    +0.000 C 
ATOM     35  N   UNL     1      -4.177  12.131  24.321  0.00  0.00    +0.000 NA
ENDBRANCH  26  34
ENDBRANCH   6  22
TORSDOF 9
ENDMDL
