MODEL 1
REMARK VINA RESULT:      -7.8      0.000      0.000
REMARK  Name = 
REMARK  9 active torsions:
REMARK  status: ('A' for Active; 'I' for Inactive)
REMARK    1  A    between atoms: C_1  and  O_2
REMARK    2  A    between atoms: O_2  and  C_3
REMARK    3  A    between atoms: C_7  and  C_8
REMARK    4  A    between atoms: C_14  and  C_15
REMARK    5  A    between atoms: C_15  and  C_16
REMARK    6  A    between atoms: C_15  and  C_20
REMARK    7  A    between atoms: C_16  and  N_17
REMARK    8  A    between atoms: N_17  and  C_18
REMARK    9  A    between atoms: N_17  and  C_19
REMARK                            x       y       z     vdW  Elec       q    Type
REMARK                         _______ _______ _______ _____ _____    ______ ____
ROOT
ATOM      1  C   UNL     1       0.950  10.121  18.407  0.00  0.00    +0.000 C 
ATOM      2  N   UNL     1       1.748  11.143  18.406  0.00  0.00    +0.000 NA
ATOM      3  C   UNL     1       1.397  12.439  18.931  0.00  0.00    +0.000 C 
ATOM      4  C   UNL     1       0.674  12.236  20.216  0.00  0.00    +0.000 A 
ATOM      5  N   UNL     1       1.075  12.240  21.464  0.00  0.00    +0.000 NA
ATOM      6  N   UNL     1      -0.059  12.121  22.241  0.00  0.00    +0.000 NA
ATOM      7  C   UNL     1      -1.122  12.101  21.446  0.00  0.00    +0.000 A 
ATOM      8  N   UNL     1      -0.637  11.887  20.168  0.00  0.00    +0.000 N 
ATOM      9  C   UNL     1      -1.236  11.395  19.008  0.00  0.00    +0.000 A 
ATOM     10  C   UNL     1      -2.408  12.021  18.577  0.00  0.00    +0.000 A 
ATOM     11  C   UNL     1      -3.085  11.499  17.496  0.00  0.00    +0.000 A 
ATOM     12  C   UNL     1      -2.595  10.339  16.891  0.00  0.00    +0.000 A 
ATOM     13 CL   UNL     1      -3.548   9.639  15.640  0.00  0.00    +0.000 Cl
ATOM     14  C   UNL     1      -1.343   9.771  17.254  0.00  0.00    +0.000 A 
ATOM     15  C   UNL     1      -0.585  10.334  18.295  0.00  0.00    +0.000 A 
ENDROOT
BRANCH   1  20
ATOM     16  C   UNL     1       3.014   6.785  18.204  0.00  0.00    +0.000 A 
ATOM     17  C   UNL     1       2.730   6.269  19.472  0.00  0.00    +0.000 A 
ATOM     18  C   UNL     1       2.014   7.014  20.368  0.00  0.00    +0.000 A 
ATOM     19  C   UNL     1       1.552   8.274  19.966  0.00  0.00    +0.000 A 
ATOM     20  C   UNL     1       1.766   8.829  18.663  0.00  0.00    +0.000 A 
ATOM     21  C   UNL     1       2.548   8.071  17.794  0.00  0.00    +0.000 A 
BRANCH  16  23
ATOM     22  C   UNL     1       3.740   4.546  17.901  0.00  0.00    +0.000 C 
ATOM     23  O   UNL     1       3.743   5.887  17.469  0.00  0.00    +0.000 OA
ENDBRANCH  16  23
ENDBRANCH   1  20
BRANCH   7  24
ATOM     24  C   UNL     1      -2.553  12.375  21.861  0.00  0.00    +0.000 C 
BRANCH  24  25
ATOM     25  C   UNL     1      -2.954  13.800  21.422  0.00  0.00    +0.000 A 
ATOM     26  C   UNL     1      -2.034  14.859  21.455  0.00  0.00    +0.000 A 
ATOM     27  C   UNL     1      -2.418  16.142  21.048  0.00  0.00    +0.000 A 
ATOM     28  C   UNL     1      -3.720  16.385  20.612  0.00  0.00    +0.000 A 
ATOM     29  C   UNL     1      -4.642  15.346  20.570  0.00  0.00    +0.000 A 
ATOM     30  C   UNL     1      -4.258  14.064  20.959  0.00  0.00    +0.000 A 
ENDBRANCH  24  25
BRANCH  24  31
ATOM     31  C   UNL     1      -2.865  12.233  23.382  0.00  0.00    +0.000 C 
BRANCH  31  32
ATOM     32  N   UNL     1      -3.937  13.077  23.975  0.00  0.00    +0.000 NA
ATOM     33  C   UNL     1      -4.881  12.288  24.765  0.00  0.00    +0.000 C 
ATOM     34  C   UNL     1      -3.320  14.091  24.847  0.00  0.00    +0.000 C 
ENDBRANCH  31  32
ENDBRANCH  24  31
ENDBRANCH   7  24
TORSDOF 6
ENDMDL
MODEL 2
REMARK VINA RESULT:      -7.7      0.900      1.247
REMARK  Name = 
REMARK  9 active torsions:
REMARK  status: ('A' for Active; 'I' for Inactive)
REMARK    1  A    between atoms: C_1  and  O_2
REMARK    2  A    between atoms: O_2  and  C_3
REMARK    3  A    between atoms: C_7  and  C_8
REMARK    4  A    between atoms: C_14  and  C_15
REMARK    5  A    between atoms: C_15  and  C_16
REMARK    6  A    between atoms: C_15  and  C_20
REMARK    7  A    between atoms: C_16  and  N_17
REMARK    8  A    between atoms: N_17  and  C_18
REMARK    9  A    between atoms: N_17  and  C_19
REMARK                            x       y       z     vdW  Elec       q    Type
REMARK                         _______ _______ _______ _____ _____    ______ ____
ROOT
ATOM      1  C   UNL     1       1.180   9.923  18.337  0.00  0.00    +0.000 C 
ATOM      2  N   UNL     1       2.084  10.840  18.194  0.00  0.00    +0.000 NA
ATOM      3  C   UNL     1       1.902  12.218  18.576  0.00  0.00    +0.000 C 
ATOM      4  C   UNL     1       1.217  12.244  19.897  0.00  0.00    +0.000 A 
ATOM      5  N   UNL     1       1.669  12.340  21.124  0.00  0.00    +0.000 NA
ATOM      6  N   UNL     1       0.565  12.439  21.944  0.00  0.00    +0.000 NA
ATOM      7  C   UNL     1      -0.528  12.452  21.190  0.00  0.00    +0.000 A 
ATOM      8  N   UNL     1      -0.125  12.043  19.930  0.00  0.00    +0.000 N 
ATOM      9  C   UNL     1      -0.825  11.497  18.853  0.00  0.00    +0.000 A 
ATOM     10  C   UNL     1      -1.938  12.202  18.389  0.00  0.00    +0.000 A 
ATOM     11  C   UNL     1      -2.715  11.643  17.397  0.00  0.00    +0.000 A 
ATOM     12  C   UNL     1      -2.382  10.375  16.916  0.00  0.00    +0.000 A 
ATOM     13 CL   UNL     1      -3.460   9.654  15.783  0.00  0.00    +0.000 Cl
ATOM     14  C   UNL     1      -1.186   9.711  17.303  0.00  0.00    +0.000 A 
ATOM     15  C   UNL     1      -0.326  10.297  18.248  0.00  0.00    +0.000 A 
ENDROOT
BRANCH   1  20
ATOM     16  C   UNL     1       2.906   6.396  18.451  0.00  0.00    +0.000 A 
ATOM     17  C   UNL     1       2.548   6.014  19.748  0.00  0.00    +0.000 A 
ATOM     18  C   UNL     1       1.894   6.896  20.563  0.00  0.00    +0.000 A 
ATOM     19  C   UNL     1       1.566   8.158  20.052  0.00  0.00    +0.000 A 
ATOM     20  C   UNL     1       1.858   8.583  18.715  0.00  0.00    +0.000 A 
ATOM     21  C   UNL     1       2.578   7.684  17.929  0.00  0.00    +0.000 A 
BRANCH  16  23
ATOM     22  C   UNL     1       2.916   4.120  17.778  0.00  0.00    +0.000 C 
ATOM     23  O   UNL     1       3.556   5.375  17.809  0.00  0.00    +0.000 OA
ENDBRANCH  16  23
ENDBRANCH   1  20
BRANCH   7  24
ATOM     24  C   UNL     1      -1.901  12.933  21.614  0.00  0.00    +0.000 C 
BRANCH  24  25
ATOM     25  C   UNL     1      -1.884  14.469  21.774  0.00  0.00    +0.000 A 
ATOM     26  C   UNL     1      -1.684  15.069  23.026  0.00  0.00    +0.000 A 
ATOM     27  C   UNL     1      -1.668  16.463  23.147  0.00  0.00    +0.000 A 
ATOM     28  C   UNL     1      -1.857  17.273  22.027  0.00  0.00    +0.000 A 
ATOM     29  C   UNL     1      -2.052  16.693  20.779  0.00  0.00    +0.000 A 
ATOM     30  C   UNL     1      -2.053  15.305  20.653  0.00  0.00    +0.000 A 
ENDBRANCH  24  25
BRANCH  24  31
ATOM     31  C   UNL     1      -2.466  12.316  22.930  0.00  0.00    +0.000 C 
BRANCH  31  32
ATOM     32  N   UNL     1      -3.940  12.181  23.081  0.00  0.00    +0.000 NA
ATOM     33  C   UNL     1      -4.443  12.927  24.233  0.00  0.00    +0.000 C 
ATOM     34  C   UNL     1      -4.594  12.691  21.863  0.00  0.00    +0.000 C 
ENDBRANCH  31  32
ENDBRANCH  24  31
ENDBRANCH   7  24
TORSDOF 6
ENDMDL
MODEL 3
REMARK VINA RESULT:      -7.3      0.828      1.494
REMARK  Name = 
REMARK  9 active torsions:
REMARK  status: ('A' for Active; 'I' for Inactive)
REMARK    1  A    between atoms: C_1  and  O_2
REMARK    2  A    between atoms: O_2  and  C_3
REMARK    3  A    between atoms: C_7  and  C_8
REMARK    4  A    between atoms: C_14  and  C_15
REMARK    5  A    between atoms: C_15  and  C_16
REMARK    6  A    between atoms: C_15  and  C_20
REMARK    7  A    between atoms: C_16  and  N_17
REMARK    8  A    between atoms: N_17  and  C_18
REMARK    9  A    between atoms: N_17  and  C_19
REMARK                            x       y       z     vdW  Elec       q    Type
REMARK                         _______ _______ _______ _____ _____    ______ ____
ROOT
ATOM      1  C   UNL     1       0.978   9.850  18.319  0.00  0.00    +0.000 C 
ATOM      2  N   UNL     1       1.858  10.801  18.348  0.00  0.00    +0.000 NA
ATOM      3  C   UNL     1       1.614  12.109  18.902  0.00  0.00    +0.000 C 
ATOM      4  C   UNL     1       0.868  11.938  20.178  0.00  0.00    +0.000 A 
ATOM      5  N   UNL     1       1.258  11.877  21.428  0.00  0.00    +0.000 NA
ATOM      6  N   UNL     1       0.113  11.836  22.196  0.00  0.00    +0.000 NA
ATOM      7  C   UNL     1      -0.942  11.925  21.395  0.00  0.00    +0.000 A 
ATOM      8  N   UNL     1      -0.468  11.701  20.115  0.00  0.00    +0.000 N 
ATOM      9  C   UNL     1      -1.098  11.289  18.940  0.00  0.00    +0.000 A 
ATOM     10  C   UNL     1      -2.210  12.021  18.518  0.00  0.00    +0.000 A 
ATOM     11  C   UNL     1      -2.921  11.584  17.421  0.00  0.00    +0.000 A 
ATOM     12  C   UNL     1      -2.525  10.401  16.791  0.00  0.00    +0.000 A 
ATOM     13 CL   UNL     1      -3.525   9.814  15.518  0.00  0.00    +0.000 Cl
ATOM     14  C   UNL     1      -1.328   9.722  17.147  0.00  0.00    +0.000 A 
ATOM     15  C   UNL     1      -0.533  10.194  18.205  0.00  0.00    +0.000 A 
ENDROOT
BRANCH   1  20
ATOM     16  C   UNL     1       2.470   6.489  19.699  0.00  0.00    +0.000 A 
ATOM     17  C   UNL     1       3.512   6.314  18.782  0.00  0.00    +0.000 A 
ATOM     18  C   UNL     1       3.639   7.168  17.722  0.00  0.00    +0.000 A 
ATOM     19  C   UNL     1       2.731   8.228  17.609  0.00  0.00    +0.000 A 
ATOM     20  C   UNL     1       1.680   8.488  18.548  0.00  0.00    +0.000 A 
ATOM     21  C   UNL     1       1.540   7.565  19.583  0.00  0.00    +0.000 A 
BRANCH  16  23
ATOM     22  C   UNL     1       1.460   4.598  20.719  0.00  0.00    +0.000 C 
ATOM     23  O   UNL     1       2.519   5.527  20.674  0.00  0.00    +0.000 OA
ENDBRANCH  16  23
ENDBRANCH   1  20
BRANCH   7  24
ATOM     24  C   UNL     1      -2.349  12.309  21.809  0.00  0.00    +0.000 C 
BRANCH  24  25
ATOM     25  C   UNL     1      -2.628  13.770  21.395  0.00  0.00    +0.000 A 
ATOM     26  C   UNL     1      -3.908  14.182  20.995  0.00  0.00    +0.000 A 
ATOM     27  C   UNL     1      -4.139  15.512  20.628  0.00  0.00    +0.000 A 
ATOM     28  C   UNL     1      -3.100  16.443  20.648  0.00  0.00    +0.000 A 
ATOM     29  C   UNL     1      -1.828  16.050  21.045  0.00  0.00    +0.000 A 
ATOM     30  C   UNL     1      -1.598  14.730  21.426  0.00  0.00    +0.000 A 
ENDBRANCH  24  25
BRANCH  24  31
ATOM     31  C   UNL     1      -2.679  12.164  23.326  0.00  0.00    +0.000 C 
BRANCH  31  32
ATOM     32  N   UNL     1      -3.739  13.030  23.913  0.00  0.00    +0.000 NA
ATOM     33  C   UNL     1      -4.665  12.270  24.750  0.00  0.00    +0.000 C 
ATOM     34  C   UNL     1      -3.102  14.073  24.736  0.00  0.00    +0.000 C 
ENDBRANCH  31  32
ENDBRANCH  24  31
ENDBRANCH   7  24
TORSDOF 6
ENDMDL
MODEL 4
REMARK VINA RESULT:      -7.3      1.169      1.732
REMARK  Name = 
REMARK  9 active torsions:
REMARK  status: ('A' for Active; 'I' for Inactive)
REMARK    1  A    between atoms: C_1  and  O_2
REMARK    2  A    between atoms: O_2  and  C_3
REMARK    3  A    between atoms: C_7  and  C_8
REMARK    4  A    between atoms: C_14  and  C_15
REMARK    5  A    between atoms: C_15  and  C_16
REMARK    6  A    between atoms: C_15  and  C_20
REMARK    7  A    between atoms: C_16  and  N_17
REMARK    8  A    between atoms: N_17  and  C_18
REMARK    9  A    between atoms: N_17  and  C_19
REMARK                            x       y       z     vdW  Elec       q    Type
REMARK                         _______ _______ _______ _____ _____    ______ ____
ROOT
ATOM      1  C   UNL     1       1.098   9.756  18.274  0.00  0.00    +0.000 C 
ATOM      2  N   UNL     1       2.044  10.636  18.170  0.00  0.00    +0.000 NA
ATOM      3  C   UNL     1       1.916  12.010  18.588  0.00  0.00    +0.000 C 
ATOM      4  C   UNL     1       1.212  12.030  19.899  0.00  0.00    +0.000 A 
ATOM      5  N   UNL     1       1.647  12.073  21.134  0.00  0.00    +0.000 NA
ATOM      6  N   UNL     1       0.535  12.198  21.940  0.00  0.00    +0.000 NA
ATOM      7  C   UNL     1      -0.544  12.280  21.170  0.00  0.00    +0.000 A 
ATOM      8  N   UNL     1      -0.139  11.888  19.906  0.00  0.00    +0.000 N 
ATOM      9  C   UNL     1      -0.844  11.403  18.803  0.00  0.00    +0.000 A 
ATOM     10  C   UNL     1      -1.918  12.168  18.342  0.00  0.00    +0.000 A 
ATOM     11  C   UNL     1      -2.702  11.672  17.323  0.00  0.00    +0.000 A 
ATOM     12  C   UNL     1      -2.417  10.403  16.812  0.00  0.00    +0.000 A 
ATOM     13 CL   UNL     1      -3.507   9.761  15.643  0.00  0.00    +0.000 Cl
ATOM     14  C   UNL     1      -1.257   9.677  17.198  0.00  0.00    +0.000 A 
ATOM     15  C   UNL     1      -0.388  10.198  18.173  0.00  0.00    +0.000 A 
ENDROOT
BRANCH   1  20
ATOM     16  C   UNL     1       2.385   6.447  19.954  0.00  0.00    +0.000 A 
ATOM     17  C   UNL     1       3.397   6.115  19.048  0.00  0.00    +0.000 A 
ATOM     18  C   UNL     1       3.564   6.855  17.910  0.00  0.00    +0.000 A 
ATOM     19  C   UNL     1       2.727   7.959  17.705  0.00  0.00    +0.000 A 
ATOM     20  C   UNL     1       1.711   8.378  18.625  0.00  0.00    +0.000 A 
ATOM     21  C   UNL     1       1.526   7.569  19.745  0.00  0.00    +0.000 A 
BRANCH  16  23
ATOM     22  C   UNL     1       1.849   4.295  20.801  0.00  0.00    +0.000 C 
ATOM     23  O   UNL     1       2.384   5.580  21.015  0.00  0.00    +0.000 OA
ENDBRANCH  16  23
ENDBRANCH   1  20
BRANCH   7  24
ATOM     24  C   UNL     1      -1.901  12.809  21.586  0.00  0.00    +0.000 C 
BRANCH  24  25
ATOM     25  C   UNL     1      -1.835  14.345  21.728  0.00  0.00    +0.000 A 
ATOM     26  C   UNL     1      -1.568  14.953  22.964  0.00  0.00    +0.000 A 
ATOM     27  C   UNL     1      -1.509  16.347  23.069  0.00  0.00    +0.000 A 
ATOM     28  C   UNL     1      -1.722  17.150  21.948  0.00  0.00    +0.000 A 
ATOM     29  C   UNL     1      -1.984  16.564  20.717  0.00  0.00    +0.000 A 
ATOM     30  C   UNL     1      -2.028  15.175  20.606  0.00  0.00    +0.000 A 
ENDBRANCH  24  25
BRANCH  24  31
ATOM     31  C   UNL     1      -2.487  12.227  22.908  0.00  0.00    +0.000 C 
BRANCH  31  32
ATOM     32  N   UNL     1      -3.965  12.186  23.079  0.00  0.00    +0.000 NA
ATOM     33  C   UNL     1      -4.409  13.008  24.203  0.00  0.00    +0.000 C 
ATOM     34  C   UNL     1      -4.602  12.683  21.847  0.00  0.00    +0.000 C 
ENDBRANCH  31  32
ENDBRANCH  24  31
ENDBRANCH   7  24
TORSDOF 6
ENDMDL
MODEL 5
REMARK VINA RESULT:      -7.2      1.396      2.109
REMARK  Name = 
REMARK  9 active torsions:
REMARK  status: ('A' for Active; 'I' for Inactive)
REMARK    1  A    between atoms: C_1  and  O_2
REMARK    2  A    between atoms: O_2  and  C_3
REMARK    3  A    between atoms: C_7  and  C_8
REMARK    4  A    between atoms: C_14  and  C_15
REMARK    5  A    between atoms: C_15  and  C_16
REMARK    6  A    between atoms: C_15  and  C_20
REMARK    7  A    between atoms: C_16  and  N_17
REMARK    8  A    between atoms: N_17  and  C_18
REMARK    9  A    between atoms: N_17  and  C_19
REMARK                            x       y       z     vdW  Elec       q    Type
REMARK                         _______ _______ _______ _____ _____    ______ ____
ROOT
ATOM      1  C   UNL     1       1.258   9.823  18.370  0.00  0.00    +0.000 C 
ATOM      2  N   UNL     1       2.243  10.622  18.104  0.00  0.00    +0.000 NA
ATOM      3  C   UNL     1       2.193  12.051  18.288  0.00  0.00    +0.000 C 
ATOM      4  C   UNL     1       1.526  12.326  19.589  0.00  0.00    +0.000 A 
ATOM      5  N   UNL     1       1.996  12.550  20.793  0.00  0.00    +0.000 NA
ATOM      6  N   UNL     1       0.912  12.866  21.586  0.00  0.00    +0.000 NA
ATOM      7  C   UNL     1      -0.181  12.876  20.832  0.00  0.00    +0.000 A 
ATOM      8  N   UNL     1       0.171  12.259  19.644  0.00  0.00    +0.000 N 
ATOM      9  C   UNL     1      -0.586  11.634  18.652  0.00  0.00    +0.000 A 
ATOM     10  C   UNL     1      -1.633  12.368  18.088  0.00  0.00    +0.000 A 
ATOM     11  C   UNL     1      -2.467  11.751  17.180  0.00  0.00    +0.000 A 
ATOM     12  C   UNL     1      -2.258  10.402  16.884  0.00  0.00    +0.000 A 
ATOM     13 CL   UNL     1      -3.409   9.633  15.859  0.00  0.00    +0.000 Cl
ATOM     14  C   UNL     1      -1.125   9.691  17.365  0.00  0.00    +0.000 A 
ATOM     15  C   UNL     1      -0.206  10.320  18.223  0.00  0.00    +0.000 A 
ENDROOT
BRANCH   1  20
ATOM     16  C   UNL     1       2.727   6.231  18.981  0.00  0.00    +0.000 A 
ATOM     17  C   UNL     1       2.242   6.008  20.273  0.00  0.00    +0.000 A 
ATOM     18  C   UNL     1       1.586   7.007  20.938  0.00  0.00    +0.000 A 
ATOM     19  C   UNL     1       1.387   8.226  20.278  0.00  0.00    +0.000 A 
ATOM     20  C   UNL     1       1.812   8.491  18.936  0.00  0.00    +0.000 A 
ATOM     21  C   UNL     1       2.530   7.475  18.308  0.00  0.00    +0.000 A 
BRANCH  16  23
ATOM     22  C   UNL     1       4.177   4.398  19.395  0.00  0.00    +0.000 C 
ATOM     23  O   UNL     1       3.355   5.112  18.501  0.00  0.00    +0.000 OA
ENDBRANCH  16  23
ENDBRANCH   1  20
BRANCH   7  24
ATOM     24  C   UNL     1      -1.499  13.538  21.178  0.00  0.00    +0.000 C 
BRANCH  24  25
ATOM     25  C   UNL     1      -1.291  14.521  22.350  0.00  0.00    +0.000 A 
ATOM     26  C   UNL     1      -1.508  14.127  23.680  0.00  0.00    +0.000 A 
ATOM     27  C   UNL     1      -1.309  15.034  24.727  0.00  0.00    +0.000 A 
ATOM     28  C   UNL     1      -0.900  16.341  24.463  0.00  0.00    +0.000 A 
ATOM     29  C   UNL     1      -0.678  16.745  23.152  0.00  0.00    +0.000 A 
ATOM     30  C   UNL     1      -0.860  15.840  22.108  0.00  0.00    +0.000 A 
ENDBRANCH  24  25
BRANCH  24  31
ATOM     31  C   UNL     1      -2.669  12.578  21.554  0.00  0.00    +0.000 C 
BRANCH  31  32
ATOM     32  N   UNL     1      -4.068  13.056  21.388  0.00  0.00    +0.000 NA
ATOM     33  C   UNL     1      -4.733  12.420  20.252  0.00  0.00    +0.000 C 
ATOM     34  C   UNL     1      -4.827  12.752  22.613  0.00  0.00    +0.000 C 
ENDBRANCH  31  32
ENDBRANCH  24  31
ENDBRANCH   7  24
TORSDOF 6
ENDMDL
MODEL 6
REMARK VINA RESULT:      -7.2      1.088      1.332
REMARK  Name = 
REMARK  9 active torsions:
REMARK  status: ('A' for Active; 'I' for Inactive)
REMARK    1  A    between atoms: C_1  and  O_2
REMARK    2  A    between atoms: O_2  and  C_3
REMARK    3  A    between atoms: C_7  and  C_8
REMARK    4  A    between atoms: C_14  and  C_15
REMARK    5  A    between atoms: C_15  and  C_16
REMARK    6  A    between atoms: C_15  and  C_20
REMARK    7  A    between atoms: C_16  and  N_17
REMARK    8  A    between atoms: N_17  and  C_18
REMARK    9  A    between atoms: N_17  and  C_19
REMARK                            x       y       z     vdW  Elec       q    Type
REMARK                         _______ _______ _______ _____ _____    ______ ____
ROOT
ATOM      1  C   UNL     1       1.292   9.851  18.334  0.00  0.00    +0.000 C 
ATOM      2  N   UNL     1       2.251  10.675  18.048  0.00  0.00    +0.000 NA
ATOM      3  C   UNL     1       2.177  12.100  18.254  0.00  0.00    +0.000 C 
ATOM      4  C   UNL     1       1.546  12.342  19.580  0.00  0.00    +0.000 A 
ATOM      5  N   UNL     1       2.050  12.560  20.770  0.00  0.00    +0.000 NA
ATOM      6  N   UNL     1       0.986  12.842  21.602  0.00  0.00    +0.000 NA
ATOM      7  C   UNL     1      -0.131  12.838  20.884  0.00  0.00    +0.000 A 
ATOM      8  N   UNL     1       0.195  12.245  19.677  0.00  0.00    +0.000 N 
ATOM      9  C   UNL     1      -0.580  11.618  18.700  0.00  0.00    +0.000 A 
ATOM     10  C   UNL     1      -1.659  12.336  18.181  0.00  0.00    +0.000 A 
ATOM     11  C   UNL     1      -2.509  11.714  17.291  0.00  0.00    +0.000 A 
ATOM     12  C   UNL     1      -2.282  10.374  16.969  0.00  0.00    +0.000 A 
ATOM     13 CL   UNL     1      -3.448   9.595  15.970  0.00  0.00    +0.000 Cl
ATOM     14  C   UNL     1      -1.119   9.681  17.404  0.00  0.00    +0.000 A 
ATOM     15  C   UNL     1      -0.187  10.318  18.241  0.00  0.00    +0.000 A 
ENDROOT
BRANCH   1  20
ATOM     16  C   UNL     1       2.880   6.294  18.845  0.00  0.00    +0.000 A 
ATOM     17  C   UNL     1       2.409   6.022  20.133  0.00  0.00    +0.000 A 
ATOM     18  C   UNL     1       1.724   6.981  20.826  0.00  0.00    +0.000 A 
ATOM     19  C   UNL     1       1.482   8.210  20.199  0.00  0.00    +0.000 A 
ATOM     20  C   UNL     1       1.892   8.524  18.862  0.00  0.00    +0.000 A 
ATOM     21  C   UNL     1       2.639   7.548  18.205  0.00  0.00    +0.000 A 
BRANCH  16  23
ATOM     22  C   UNL     1       4.137   4.322  19.252  0.00  0.00    +0.000 C 
ATOM     23  O   UNL     1       3.542   5.209  18.333  0.00  0.00    +0.000 OA
ENDBRANCH  16  23
ENDBRANCH   1  20
BRANCH   7  24
ATOM     24  C   UNL     1      -1.451  13.466  21.282  0.00  0.00    +0.000 C 
BRANCH  24  25
ATOM     25  C   UNL     1      -1.575  14.862  20.632  0.00  0.00    +0.000 A 
ATOM     26  C   UNL     1      -0.560  15.376  19.811  0.00  0.00    +0.000 A 
ATOM     27  C   UNL     1      -0.695  16.642  19.230  0.00  0.00    +0.000 A 
ATOM     28  C   UNL     1      -1.836  17.410  19.464  0.00  0.00    +0.000 A 
ATOM     29  C   UNL     1      -2.850  16.913  20.272  0.00  0.00    +0.000 A 
ATOM     30  C   UNL     1      -2.726  15.646  20.840  0.00  0.00    +0.000 A 
ENDBRANCH  24  25
BRANCH  24  31
ATOM     31  C   UNL     1      -1.702  13.621  22.812  0.00  0.00    +0.000 C 
BRANCH  31  32
ATOM     32  N   UNL     1      -3.098  13.528  23.322  0.00  0.00    +0.000 NA
ATOM     33  C   UNL     1      -3.418  12.183  23.798  0.00  0.00    +0.000 C 
ATOM     34  C   UNL     1      -3.265  14.478  24.435  0.00  0.00    +0.000 C 
ENDBRANCH  31  32
ENDBRANCH  24  31
ENDBRANCH   7  24
TORSDOF 6
ENDMDL
MODEL 7
REMARK VINA RESULT:      -7.0      1.435      2.054
REMARK  Name = 
REMARK  9 active torsions:
REMARK  status: ('A' for Active; 'I' for Inactive)
REMARK    1  A    between atoms: C_1  and  O_2
REMARK    2  A    between atoms: O_2  and  C_3
REMARK    3  A    between atoms: C_7  and  C_8
REMARK    4  A    between atoms: C_14  and  C_15
REMARK    5  A    between atoms: C_15  and  C_16
REMARK    6  A    between atoms: C_15  and  C_20
REMARK    7  A    between atoms: C_16  and  N_17
REMARK    8  A    between atoms: N_17  and  C_18
REMARK    9  A    between atoms: N_17  and  C_19
REMARK                            x       y       z     vdW  Elec       q    Type
REMARK                         _______ _______ _______ _____ _____    ______ ____
ROOT
ATOM      1  C   UNL     1       0.385  10.826  18.830  0.00  0.00    +0.000 C 
ATOM      2  N   UNL     1       1.166  11.821  18.546  0.00  0.00    +0.000 NA
ATOM      3  C   UNL     1       0.945  13.173  18.996  0.00  0.00    +0.000 C 
ATOM      4  C   UNL     1       0.526  13.122  20.422  0.00  0.00    +0.000 A 
ATOM      5  N   UNL     1       1.195  13.242  21.544  0.00  0.00    +0.000 NA
ATOM      6  N   UNL     1       0.263  13.233  22.561  0.00  0.00    +0.000 NA
ATOM      7  C   UNL     1      -0.951  13.160  22.028  0.00  0.00    +0.000 A 
ATOM      8  N   UNL     1      -0.764  12.804  20.704  0.00  0.00    +0.000 N 
ATOM      9  C   UNL     1      -1.608  12.211  19.763  0.00  0.00    +0.000 A 
ATOM     10  C   UNL     1      -2.845  12.821  19.539  0.00  0.00    +0.000 A 
ATOM     11  C   UNL     1      -3.748  12.209  18.696  0.00  0.00    +0.000 A 
ATOM     12  C   UNL     1      -3.408  10.981  18.124  0.00  0.00    +0.000 A 
ATOM     13 CL   UNL     1      -4.618  10.182  17.196  0.00  0.00    +0.000 Cl
ATOM     14  C   UNL     1      -2.108  10.421  18.258  0.00  0.00    +0.000 A 
ATOM     15  C   UNL     1      -1.135  11.067  19.039  0.00  0.00    +0.000 A 
ENDROOT
BRANCH   1  20
ATOM     16  C   UNL     1       2.496   7.530  18.495  0.00  0.00    +0.000 A 
ATOM     17  C   UNL     1       2.277   6.994  19.768  0.00  0.00    +0.000 A 
ATOM     18  C   UNL     1       1.589   7.716  20.704  0.00  0.00    +0.000 A 
ATOM     19  C   UNL     1       1.088   8.972  20.339  0.00  0.00    +0.000 A 
ATOM     20  C   UNL     1       1.234   9.546  19.034  0.00  0.00    +0.000 A 
ATOM     21  C   UNL     1       1.990   8.812  18.122  0.00  0.00    +0.000 A 
BRANCH  16  23
ATOM     22  C   UNL     1       3.111   5.284  18.034  0.00  0.00    +0.000 C 
ATOM     23  O   UNL     1       3.207   6.654  17.718  0.00  0.00    +0.000 OA
ENDBRANCH  16  23
ENDBRANCH   1  20
BRANCH   7  24
ATOM     24  C   UNL     1      -2.252  13.512  22.718  0.00  0.00    +0.000 C 
BRANCH  24  25
ATOM     25  C   UNL     1      -2.062  14.797  23.553  0.00  0.00    +0.000 A 
ATOM     26  C   UNL     1      -1.981  16.058  22.942  0.00  0.00    +0.000 A 
ATOM     27  C   UNL     1      -1.812  17.210  23.719  0.00  0.00    +0.000 A 
ATOM     28  C   UNL     1      -1.716  17.119  25.108  0.00  0.00    +0.000 A 
ATOM     29  C   UNL     1      -1.798  15.878  25.727  0.00  0.00    +0.000 A 
ATOM     30  C   UNL     1      -1.982  14.731  24.958  0.00  0.00    +0.000 A 
ENDBRANCH  24  25
BRANCH  24  31
ATOM     31  C   UNL     1      -2.853  12.415  23.649  0.00  0.00    +0.000 C 
BRANCH  31  32
ATOM     32  N   UNL     1      -4.316  12.147  23.587  0.00  0.00    +0.000 NA
ATOM     33  C   UNL     1      -4.979  12.429  24.859  0.00  0.00    +0.000 C 
ATOM     34  C   UNL     1      -4.913  12.996  22.542  0.00  0.00    +0.000 C 
ENDBRANCH  31  32
ENDBRANCH  24  31
ENDBRANCH   7  24
TORSDOF 6
ENDMDL
MODEL 8
REMARK VINA RESULT:      -7.0      1.080      1.630
REMARK  Name = 
REMARK  9 active torsions:
REMARK  status: ('A' for Active; 'I' for Inactive)
REMARK    1  A    between atoms: C_1  and  O_2
REMARK    2  A    between atoms: O_2  and  C_3
REMARK    3  A    between atoms: C_7  and  C_8
REMARK    4  A    between atoms: C_14  and  C_15
REMARK    5  A    between atoms: C_15  and  C_16
REMARK    6  A    between atoms: C_15  and  C_20
REMARK    7  A    between atoms: C_16  and  N_17
REMARK    8  A    between atoms: N_17  and  C_18
REMARK    9  A    between atoms: N_17  and  C_19
REMARK                            x       y       z     vdW  Elec       q    Type
REMARK                         _______ _______ _______ _____ _____    ______ ____
ROOT
ATOM      1  C   UNL     1       1.268   9.959  18.328  0.00  0.00    +0.000 C 
ATOM      2  N   UNL     1       2.191  10.803  17.988  0.00  0.00    +0.000 NA
ATOM      3  C   UNL     1       2.112  12.223  18.224  0.00  0.00    +0.000 C 
ATOM      4  C   UNL     1       1.578  12.433  19.597  0.00  0.00    +0.000 A 
ATOM      5  N   UNL     1       2.165  12.638  20.751  0.00  0.00    +0.000 NA
ATOM      6  N   UNL     1       1.161  12.890  21.664  0.00  0.00    +0.000 NA
ATOM      7  C   UNL     1      -0.005  12.881  21.030  0.00  0.00    +0.000 A 
ATOM      8  N   UNL     1       0.239  12.313  19.792  0.00  0.00    +0.000 N 
ATOM      9  C   UNL     1      -0.597  11.691  18.863  0.00  0.00    +0.000 A 
ATOM     10  C   UNL     1      -1.722  12.401  18.438  0.00  0.00    +0.000 A 
ATOM     11  C   UNL     1      -2.626  11.782  17.602  0.00  0.00    +0.000 A 
ATOM     12  C   UNL     1      -2.404  10.451  17.240  0.00  0.00    +0.000 A 
ATOM     13 CL   UNL     1      -3.630   9.671  16.316  0.00  0.00    +0.000 Cl
ATOM     14  C   UNL     1      -1.203   9.768  17.576  0.00  0.00    +0.000 A 
ATOM     15  C   UNL     1      -0.220  10.405  18.353  0.00  0.00    +0.000 A 
ENDROOT
BRANCH   1  20
ATOM     16  C   UNL     1       3.019   6.458  18.654  0.00  0.00    +0.000 A 
ATOM     17  C   UNL     1       2.543   6.087  19.916  0.00  0.00    +0.000 A 
ATOM     18  C   UNL     1       1.803   6.969  20.653  0.00  0.00    +0.000 A 
ATOM     19  C   UNL     1       1.511   8.221  20.096  0.00  0.00    +0.000 A 
ATOM     20  C   UNL     1       1.924   8.633  18.788  0.00  0.00    +0.000 A 
ATOM     21  C   UNL     1       2.726   7.735  18.086  0.00  0.00    +0.000 A 
BRANCH  16  23
ATOM     22  C   UNL     1       4.532   5.749  16.968  0.00  0.00    +0.000 C 
ATOM     23  O   UNL     1       3.740   5.438  18.091  0.00  0.00    +0.000 OA
ENDBRANCH  16  23
ENDBRANCH   1  20
BRANCH   7  24
ATOM     24  C   UNL     1      -1.301  13.482  21.535  0.00  0.00    +0.000 C 
BRANCH  24  25
ATOM     25  C   UNL     1      -1.442  14.925  21.004  0.00  0.00    +0.000 A 
ATOM     26  C   UNL     1      -2.702  15.500  20.782  0.00  0.00    +0.000 A 
ATOM     27  C   UNL     1      -2.806  16.812  20.305  0.00  0.00    +0.000 A 
ATOM     28  C   UNL     1      -1.660  17.560  20.037  0.00  0.00    +0.000 A 
ATOM     29  C   UNL     1      -0.405  17.006  20.256  0.00  0.00    +0.000 A 
ATOM     30  C   UNL     1      -0.299  15.706  20.746  0.00  0.00    +0.000 A 
ENDBRANCH  24  25
BRANCH  24  31
ATOM     31  C   UNL     1      -1.483  13.516  23.083  0.00  0.00    +0.000 C 
BRANCH  31  32
ATOM     32  N   UNL     1      -2.801  13.133  23.657  0.00  0.00    +0.000 NA
ATOM     33  C   UNL     1      -3.515  14.284  24.205  0.00  0.00    +0.000 C 
ATOM     34  C   UNL     1      -3.625  12.524  22.598  0.00  0.00    +0.000 C 
ENDBRANCH  31  32
ENDBRANCH  24  31
ENDBRANCH   7  24
TORSDOF 6
ENDMDL
MODEL 9
REMARK VINA RESULT:      -7.0      1.390      2.093
REMARK  Name = 
REMARK  9 active torsions:
REMARK  status: ('A' for Active; 'I' for Inactive)
REMARK    1  A    between atoms: C_1  and  O_2
REMARK    2  A    between atoms: O_2  and  C_3
REMARK    3  A    between atoms: C_7  and  C_8
REMARK    4  A    between atoms: C_14  and  C_15
REMARK    5  A    between atoms: C_15  and  C_16
REMARK    6  A    between atoms: C_15  and  C_20
REMARK    7  A    between atoms: C_16  and  N_17
REMARK    8  A    between atoms: N_17  and  C_18
REMARK    9  A    between atoms: N_17  and  C_19
REMARK                            x       y       z     vdW  Elec       q    Type
REMARK                         _______ _______ _______ _____ _____    ______ ____
ROOT
ATOM      1  C   UNL     1       1.101   9.813  18.285  0.00  0.00    +0.000 C 
ATOM      2  N   UNL     1       2.062  10.663  18.103  0.00  0.00    +0.000 NA
ATOM      3  C   UNL     1       1.985  12.056  18.466  0.00  0.00    +0.000 C 
ATOM      4  C   UNL     1       1.341  12.149  19.803  0.00  0.00    +0.000 A 
ATOM      5  N   UNL     1       1.833  12.233  21.016  0.00  0.00    +0.000 NA
ATOM      6  N   UNL     1       0.761  12.421  21.863  0.00  0.00    +0.000 NA
ATOM      7  C   UNL     1      -0.349  12.498  21.138  0.00  0.00    +0.000 A 
ATOM      8  N   UNL     1      -0.011  12.043  19.876  0.00  0.00    +0.000 N 
ATOM      9  C   UNL     1      -0.775  11.530  18.827  0.00  0.00    +0.000 A 
ATOM     10  C   UNL     1      -1.850  12.302  18.381  0.00  0.00    +0.000 A 
ATOM     11  C   UNL     1      -2.691  11.784  17.419  0.00  0.00    +0.000 A 
ATOM     12  C   UNL     1      -2.459  10.488  16.951  0.00  0.00    +0.000 A 
ATOM     13 CL   UNL     1      -3.615   9.825  15.861  0.00  0.00    +0.000 Cl
ATOM     14  C   UNL     1      -1.301   9.749  17.318  0.00  0.00    +0.000 A 
ATOM     15  C   UNL     1      -0.377  10.288  18.230  0.00  0.00    +0.000 A 
ENDROOT
BRANCH   1  20
ATOM     16  C   UNL     1       2.345   6.527  20.042  0.00  0.00    +0.000 A 
ATOM     17  C   UNL     1       3.352   6.161  19.144  0.00  0.00    +0.000 A 
ATOM     18  C   UNL     1       3.528   6.871  17.989  0.00  0.00    +0.000 A 
ATOM     19  C   UNL     1       2.705   7.981  17.758  0.00  0.00    +0.000 A 
ATOM     20  C   UNL     1       1.696   8.435  18.669  0.00  0.00    +0.000 A 
ATOM     21  C   UNL     1       1.502   7.655  19.807  0.00  0.00    +0.000 A 
BRANCH  16  23
ATOM     22  C   UNL     1       2.268   4.303  20.867  0.00  0.00    +0.000 C 
ATOM     23  O   UNL     1       2.334   5.686  21.124  0.00  0.00    +0.000 OA
ENDBRANCH  16  23
ENDBRANCH   1  20
BRANCH   7  24
ATOM     24  C   UNL     1      -1.673  13.079  21.590  0.00  0.00    +0.000 C 
BRANCH  24  25
ATOM     25  C   UNL     1      -1.429  14.424  22.308  0.00  0.00    +0.000 A 
ATOM     26  C   UNL     1      -1.340  15.627  21.591  0.00  0.00    +0.000 A 
ATOM     27  C   UNL     1      -1.122  16.836  22.262  0.00  0.00    +0.000 A 
ATOM     28  C   UNL     1      -0.983  16.859  23.650  0.00  0.00    +0.000 A 
ATOM     29  C   UNL     1      -1.072  15.677  24.374  0.00  0.00    +0.000 A 
ATOM     30  C   UNL     1      -1.305  14.474  23.710  0.00  0.00    +0.000 A 
ENDBRANCH  24  25
BRANCH  24  31
ATOM     31  C   UNL     1      -2.531  12.179  22.530  0.00  0.00    +0.000 C 
BRANCH  31  32
ATOM     32  N   UNL     1      -4.014  12.232  22.415  0.00  0.00    +0.000 NA
ATOM     33  C   UNL     1      -4.624  12.947  23.535  0.00  0.00    +0.000 C 
ATOM     34  C   UNL     1      -4.371  12.920  21.162  0.00  0.00    +0.000 C 
ENDBRANCH  31  32
ENDBRANCH  24  31
ENDBRANCH   7  24
TORSDOF 6
ENDMDL
