MODEL 1
REMARK VINA RESULT:      -7.9      0.000      0.000
REMARK  Name = 
REMARK  4 active torsions:
REMARK  status: ('A' for Active; 'I' for Inactive)
REMARK    1  A    between atoms: C_1  and  C_2
REMARK    2  A    between atoms: C_10  and  N_11
REMARK    3  A    between atoms: C_20  and  C_21
REMARK    4  A    between atoms: C_21  and  N_22
REMARK                            x       y       z     vdW  Elec       q    Type
REMARK                         _______ _______ _______ _____ _____    ______ ____
ROOT
ATOM      1  C   UNL     1       2.578   8.852  17.639  0.00  0.00    +0.000 C 
ATOM      2  C   UNL     1       2.119   8.102  18.853  0.00  0.00    +0.000 A 
ATOM      3  C   UNL     1       1.181   8.632  19.736  0.00  0.00    +0.000 A 
ATOM      4  C   UNL     1       0.704   7.916  20.821  0.00  0.00    +0.000 A 
ATOM      5  C   UNL     1       1.156   6.644  21.098  0.00  0.00    +0.000 A 
ATOM      6  C   UNL     1       2.133   6.111  20.258  0.00  0.00    +0.000 A 
ATOM      7  C   UNL     1       2.685   4.791  20.556  0.00  0.00    +0.000 A 
ATOM      8  O   UNL     1       2.324   4.131  21.523  0.00  0.00    +0.000 OA
ATOM      9  C   UNL     1       3.702   4.288  19.638  0.00  0.00    +0.000 A 
ATOM     10  C   UNL     1       4.112   5.019  18.591  0.00  0.00    +0.000 A 
ATOM     11  O   UNL     1       3.598   6.296  18.335  0.00  0.00    +0.000 OA
ATOM     12  C   UNL     1       2.618   6.818  19.148  0.00  0.00    +0.000 A 
ATOM     13  C   UNL     1      -0.254   8.721  21.601  0.00  0.00    +0.000 C 
ATOM     14  C   UNL     1      -0.310  10.000  20.748  0.00  0.00    +0.000 C 
ATOM     15  O   UNL     1       0.664   9.899  19.671  0.00  0.00    +0.000 OA
ENDROOT
BRANCH  10  16
ATOM     16  N   UNL     1       5.056   4.566  17.681  0.00  0.00    +0.000 N 
ATOM     17  C   UNL     1       6.507   4.603  17.941  0.00  0.00    +0.000 C 
ATOM     18  C   UNL     1       7.255   5.119  16.704  0.00  0.00    +0.000 C 
ATOM     19  O   UNL     1       6.932   4.359  15.526  0.00  0.00    +0.000 OA
ATOM     20  C   UNL     1       5.519   4.412  15.274  0.00  0.00    +0.000 C 
ATOM     21  C   UNL     1       4.726   3.824  16.448  0.00  0.00    +0.000 C 
ENDBRANCH  10  16
BRANCH  14  22
ATOM     22  C   UNL     1      -0.053  11.237  21.651  0.00  0.00    +0.000 C 
BRANCH  22  23
ATOM     23  N   UNL     1      -1.157  12.173  21.951  0.00  0.00    +0.000 NA
ATOM     24  C   UNL     1      -1.971  11.728  23.094  0.00  0.00    +0.000 C 
ATOM     25  C   UNL     1      -3.028  12.744  23.550  0.00  0.00    +0.000 C 
ATOM     26  S   UNL     1      -4.230  13.119  22.238  0.00  0.00    +0.000 S 
ATOM     27  C   UNL     1      -3.021  13.554  20.951  0.00  0.00    +0.000 C 
ATOM     28  C   UNL     1      -1.971  12.455  20.755  0.00  0.00    +0.000 C 
ENDBRANCH  22  23
ENDBRANCH  14  22
TORSDOF 3
ENDMDL
MODEL 2
REMARK VINA RESULT:      -7.9      0.800      1.068
REMARK  Name = 
REMARK  4 active torsions:
REMARK  status: ('A' for Active; 'I' for Inactive)
REMARK    1  A    between atoms: C_1  and  C_2
REMARK    2  A    between atoms: C_10  and  N_11
REMARK    3  A    between atoms: C_20  and  C_21
REMARK    4  A    between atoms: C_21  and  N_22
REMARK                            x       y       z     vdW  Elec       q    Type
REMARK                         _______ _______ _______ _____ _____    ______ ____
ROOT
ATOM      1  C   UNL     1       2.549   8.909  17.664  0.00  0.00    +0.000 C 
ATOM      2  C   UNL     1       2.099   8.161  18.883  0.00  0.00    +0.000 A 
ATOM      3  C   UNL     1       1.178   8.698  19.780  0.00  0.00    +0.000 A 
ATOM      4  C   UNL     1       0.708   7.986  20.869  0.00  0.00    +0.000 A 
ATOM      5  C   UNL     1       1.151   6.708  21.137  0.00  0.00    +0.000 A 
ATOM      6  C   UNL     1       2.111   6.167  20.283  0.00  0.00    +0.000 A 
ATOM      7  C   UNL     1       2.653   4.841  20.572  0.00  0.00    +0.000 A 
ATOM      8  O   UNL     1       2.298   4.182  21.542  0.00  0.00    +0.000 OA
ATOM      9  C   UNL     1       3.653   4.329  19.639  0.00  0.00    +0.000 A 
ATOM     10  C   UNL     1       4.056   5.058  18.588  0.00  0.00    +0.000 A 
ATOM     11  O   UNL     1       3.552   6.341  18.341  0.00  0.00    +0.000 OA
ATOM     12  C   UNL     1       2.588   6.871  19.168  0.00  0.00    +0.000 A 
ATOM     13  C   UNL     1      -0.231   8.799  21.664  0.00  0.00    +0.000 C 
ATOM     14  C   UNL     1      -0.285  10.079  20.814  0.00  0.00    +0.000 C 
ATOM     15  O   UNL     1       0.673   9.971  19.724  0.00  0.00    +0.000 OA
ENDROOT
BRANCH  10  16
ATOM     16  N   UNL     1       4.983   4.597  17.664  0.00  0.00    +0.000 N 
ATOM     17  C   UNL     1       6.425   4.490  17.957  0.00  0.00    +0.000 C 
ATOM     18  C   UNL     1       7.247   5.034  16.779  0.00  0.00    +0.000 C 
ATOM     19  O   UNL     1       6.893   4.397  15.539  0.00  0.00    +0.000 OA
ATOM     20  C   UNL     1       5.497   4.590  15.263  0.00  0.00    +0.000 C 
ATOM     21  C   UNL     1       4.625   3.984  16.370  0.00  0.00    +0.000 C 
ENDBRANCH  10  16
BRANCH  14  22
ATOM     22  C   UNL     1      -0.004  11.312  21.716  0.00  0.00    +0.000 C 
BRANCH  22  23
ATOM     23  N   UNL     1      -1.106  12.227  22.081  0.00  0.00    +0.000 NA
ATOM     24  C   UNL     1      -0.626  13.580  22.401  0.00  0.00    +0.000 C 
ATOM     25  C   UNL     1      -1.743  14.610  22.626  0.00  0.00    +0.000 C 
ATOM     26  S   UNL     1      -2.823  14.157  24.016  0.00  0.00    +0.000 S 
ATOM     27  C   UNL     1      -3.215  12.474  23.449  0.00  0.00    +0.000 C 
ATOM     28  C   UNL     1      -1.951  11.661  23.148  0.00  0.00    +0.000 C 
ENDBRANCH  22  23
ENDBRANCH  14  22
TORSDOF 3
ENDMDL
MODEL 3
REMARK VINA RESULT:      -7.8      1.197      1.599
REMARK  Name = 
REMARK  4 active torsions:
REMARK  status: ('A' for Active; 'I' for Inactive)
REMARK    1  A    between atoms: C_1  and  C_2
REMARK    2  A    between atoms: C_10  and  N_11
REMARK    3  A    between atoms: C_20  and  C_21
REMARK    4  A    between atoms: C_21  and  N_22
REMARK                            x       y       z     vdW  Elec       q    Type
REMARK                         _______ _______ _______ _____ _____    ______ ____
ROOT
ATOM      1  C   UNL     1       1.971   9.785  17.810  0.00  0.00    +0.000 C 
ATOM      2  C   UNL     1       1.684   8.903  18.988  0.00  0.00    +0.000 A 
ATOM      3  C   UNL     1       0.804   9.285  19.999  0.00  0.00    +0.000 A 
ATOM      4  C   UNL     1       0.484   8.446  21.053  0.00  0.00    +0.000 A 
ATOM      5  C   UNL     1       1.045   7.193  21.170  0.00  0.00    +0.000 A 
ATOM      6  C   UNL     1       1.968   6.807  20.199  0.00  0.00    +0.000 A 
ATOM      7  C   UNL     1       2.633   5.512  20.324  0.00  0.00    +0.000 A 
ATOM      8  O   UNL     1       2.413   4.747  21.255  0.00  0.00    +0.000 OA
ATOM      9  C   UNL     1       3.586   5.166  19.273  0.00  0.00    +0.000 A 
ATOM     10  C   UNL     1       3.842   6.011  18.264  0.00  0.00    +0.000 A 
ATOM     11  O   UNL     1       3.222   7.263  18.174  0.00  0.00    +0.000 OA
ATOM     12  C   UNL     1       2.293   7.639  19.118  0.00  0.00    +0.000 A 
ATOM     13  C   UNL     1      -0.444   9.109  21.988  0.00  0.00    +0.000 C 
ATOM     14  C   UNL     1      -0.668  10.447  21.263  0.00  0.00    +0.000 C 
ATOM     15  O   UNL     1       0.200  10.510  20.097  0.00  0.00    +0.000 OA
ENDROOT
BRANCH  10  16
ATOM     16  N   UNL     1       4.720   5.708  17.234  0.00  0.00    +0.000 N 
ATOM     17  C   UNL     1       4.580   4.511  16.383  0.00  0.00    +0.000 C 
ATOM     18  C   UNL     1       5.943   3.830  16.195  0.00  0.00    +0.000 C 
ATOM     19  O   UNL     1       6.933   4.744  15.692  0.00  0.00    +0.000 OA
ATOM     20  C   UNL     1       7.085   5.855  16.589  0.00  0.00    +0.000 C 
ATOM     21  C   UNL     1       5.768   6.625  16.744  0.00  0.00    +0.000 C 
ENDBRANCH  10  16
BRANCH  14  22
ATOM     22  C   UNL     1      -0.407  11.620  22.248  0.00  0.00    +0.000 C 
BRANCH  22  23
ATOM     23  N   UNL     1      -1.488  12.580  22.554  0.00  0.00    +0.000 NA
ATOM     24  C   UNL     1      -0.982  13.799  23.205  0.00  0.00    +0.000 C 
ATOM     25  C   UNL     1      -2.038  14.898  23.395  0.00  0.00    +0.000 C 
ATOM     26  S   UNL     1      -3.419  14.348  24.441  0.00  0.00    +0.000 S 
ATOM     27  C   UNL     1      -3.812  12.837  23.510  0.00  0.00    +0.000 C 
ATOM     28  C   UNL     1      -2.579  11.946  23.315  0.00  0.00    +0.000 C 
ENDBRANCH  22  23
ENDBRANCH  14  22
TORSDOF 3
ENDMDL
MODEL 4
REMARK VINA RESULT:      -7.7      1.175      1.554
REMARK  Name = 
REMARK  4 active torsions:
REMARK  status: ('A' for Active; 'I' for Inactive)
REMARK    1  A    between atoms: C_1  and  C_2
REMARK    2  A    between atoms: C_10  and  N_11
REMARK    3  A    between atoms: C_20  and  C_21
REMARK    4  A    between atoms: C_21  and  N_22
REMARK                            x       y       z     vdW  Elec       q    Type
REMARK                         _______ _______ _______ _____ _____    ______ ____
ROOT
ATOM      1  C   UNL     1       1.947   9.826  17.811  0.00  0.00    +0.000 C 
ATOM      2  C   UNL     1       1.663   8.964  19.005  0.00  0.00    +0.000 A 
ATOM      3  C   UNL     1       0.824   9.385  20.035  0.00  0.00    +0.000 A 
ATOM      4  C   UNL     1       0.504   8.568  21.105  0.00  0.00    +0.000 A 
ATOM      5  C   UNL     1       1.025   7.298  21.220  0.00  0.00    +0.000 A 
ATOM      6  C   UNL     1       1.908   6.872  20.229  0.00  0.00    +0.000 A 
ATOM      7  C   UNL     1       2.532   5.556  20.349  0.00  0.00    +0.000 A 
ATOM      8  O   UNL     1       2.312   4.808  21.294  0.00  0.00    +0.000 OA
ATOM      9  C   UNL     1       3.445   5.167  19.278  0.00  0.00    +0.000 A 
ATOM     10  C   UNL     1       3.701   5.994  18.254  0.00  0.00    +0.000 A 
ATOM     11  O   UNL     1       3.122   7.265  18.167  0.00  0.00    +0.000 OA
ATOM     12  C   UNL     1       2.232   7.682  19.131  0.00  0.00    +0.000 A 
ATOM     13  C   UNL     1      -0.375   9.271  22.058  0.00  0.00    +0.000 C 
ATOM     14  C   UNL     1      -0.574  10.609  21.326  0.00  0.00    +0.000 C 
ATOM     15  O   UNL     1       0.264  10.632  20.136  0.00  0.00    +0.000 OA
ENDROOT
BRANCH  10  16
ATOM     16  N   UNL     1       4.541   5.652  17.204  0.00  0.00    +0.000 N 
ATOM     17  C   UNL     1       4.430   4.377  16.468  0.00  0.00    +0.000 C 
ATOM     18  C   UNL     1       5.822   3.763  16.259  0.00  0.00    +0.000 C 
ATOM     19  O   UNL     1       6.724   4.684  15.622  0.00  0.00    +0.000 OA
ATOM     20  C   UNL     1       6.854   5.877  16.411  0.00  0.00    +0.000 C 
ATOM     21  C   UNL     1       5.501   6.581  16.576  0.00  0.00    +0.000 C 
ENDBRANCH  10  16
BRANCH  14  22
ATOM     22  C   UNL     1      -0.247  11.781  22.292  0.00  0.00    +0.000 C 
BRANCH  22  23
ATOM     23  N   UNL     1      -1.333  12.436  23.051  0.00  0.00    +0.000 NA
ATOM     24  C   UNL     1      -2.656  12.195  22.452  0.00  0.00    +0.000 C 
ATOM     25  C   UNL     1      -3.832  12.715  23.292  0.00  0.00    +0.000 C 
ATOM     26  S   UNL     1      -3.753  14.513  23.543  0.00  0.00    +0.000 S 
ATOM     27  C   UNL     1      -2.056  14.570  24.193  0.00  0.00    +0.000 C 
ATOM     28  C   UNL     1      -1.061  13.869  23.260  0.00  0.00    +0.000 C 
ENDBRANCH  22  23
ENDBRANCH  14  22
TORSDOF 3
ENDMDL
MODEL 5
REMARK VINA RESULT:      -7.7      3.645      9.556
REMARK  Name = 
REMARK  4 active torsions:
REMARK  status: ('A' for Active; 'I' for Inactive)
REMARK    1  A    between atoms: C_1  and  C_2
REMARK    2  A    between atoms: C_10  and  N_11
REMARK    3  A    between atoms: C_20  and  C_21
REMARK    4  A    between atoms: C_21  and  N_22
REMARK                            x       y       z     vdW  Elec       q    Type
REMARK                         _______ _______ _______ _____ _____    ______ ____
ROOT
ATOM      1  C   UNL     1      -0.199  10.835  18.134  0.00  0.00    +0.000 C 
ATOM      2  C   UNL     1       0.229  10.060  19.345  0.00  0.00    +0.000 A 
ATOM      3  C   UNL     1       1.115   8.989  19.259  0.00  0.00    +0.000 A 
ATOM      4  C   UNL     1       1.566   8.314  20.381  0.00  0.00    +0.000 A 
ATOM      5  C   UNL     1       1.136   8.654  21.645  0.00  0.00    +0.000 A 
ATOM      6  C   UNL     1       0.210   9.690  21.753  0.00  0.00    +0.000 A 
ATOM      7  C   UNL     1      -0.320  10.037  23.070  0.00  0.00    +0.000 A 
ATOM      8  O   UNL     1       0.018   9.449  24.090  0.00  0.00    +0.000 OA
ATOM      9  C   UNL     1      -1.284  11.132  23.117  0.00  0.00    +0.000 A 
ATOM     10  C   UNL     1      -1.669  11.763  21.998  0.00  0.00    +0.000 A 
ATOM     11  O   UNL     1      -1.180  11.399  20.738  0.00  0.00    +0.000 OA
ATOM     12  C   UNL     1      -0.248  10.392  20.628  0.00  0.00    +0.000 A 
ATOM     13  C   UNL     1       2.469   7.211  20.002  0.00  0.00    +0.000 C 
ATOM     14  C   UNL     1       2.527   7.403  18.478  0.00  0.00    +0.000 C 
ATOM     15  O   UNL     1       1.601   8.459  18.093  0.00  0.00    +0.000 OA
ENDROOT
BRANCH  10  16
ATOM     16  N   UNL     1      -2.563  12.824  22.004  0.00  0.00    +0.000 N 
ATOM     17  C   UNL     1      -2.669  13.781  23.122  0.00  0.00    +0.000 C 
ATOM     18  C   UNL     1      -4.144  14.043  23.458  0.00  0.00    +0.000 C 
ATOM     19  O   UNL     1      -4.889  14.468  22.304  0.00  0.00    +0.000 OA
ATOM     20  C   UNL     1      -4.815  13.473  21.271  0.00  0.00    +0.000 C 
ATOM     21  C   UNL     1      -3.364  13.237  20.834  0.00  0.00    +0.000 C 
ENDBRANCH  10  16
BRANCH  14  22
ATOM     22  C   UNL     1       2.201   6.058  17.773  0.00  0.00    +0.000 C 
BRANCH  22  23
ATOM     23  N   UNL     1       2.539   4.779  18.434  0.00  0.00    +0.000 NA
ATOM     24  C   UNL     1       3.946   4.401  18.230  0.00  0.00    +0.000 C 
ATOM     25  C   UNL     1       4.390   3.167  19.031  0.00  0.00    +0.000 C 
ATOM     26  S   UNL     1       3.439   1.684  18.586  0.00  0.00    +0.000 S 
ATOM     27  C   UNL     1       1.786   2.401  18.832  0.00  0.00    +0.000 C 
ATOM     28  C   UNL     1       1.605   3.706  18.048  0.00  0.00    +0.000 C 
ENDBRANCH  22  23
ENDBRANCH  14  22
TORSDOF 3
ENDMDL
MODEL 6
REMARK VINA RESULT:      -7.6      2.440      4.170
REMARK  Name = 
REMARK  4 active torsions:
REMARK  status: ('A' for Active; 'I' for Inactive)
REMARK    1  A    between atoms: C_1  and  C_2
REMARK    2  A    between atoms: C_10  and  N_11
REMARK    3  A    between atoms: C_20  and  C_21
REMARK    4  A    between atoms: C_21  and  N_22
REMARK                            x       y       z     vdW  Elec       q    Type
REMARK                         _______ _______ _______ _____ _____    ______ ____
ROOT
ATOM      1  C   UNL     1      -0.177   8.870  22.604  0.00  0.00    +0.000 C 
ATOM      2  C   UNL     1       0.133   9.517  21.288  0.00  0.00    +0.000 A 
ATOM      3  C   UNL     1      -0.365  10.772  20.948  0.00  0.00    +0.000 A 
ATOM      4  C   UNL     1      -0.027  11.404  19.763  0.00  0.00    +0.000 A 
ATOM      5  C   UNL     1       0.805  10.804  18.842  0.00  0.00    +0.000 A 
ATOM      6  C   UNL     1       1.276   9.526  19.136  0.00  0.00    +0.000 A 
ATOM      7  C   UNL     1       2.107   8.831  18.155  0.00  0.00    +0.000 A 
ATOM      8  O   UNL     1       2.407   9.328  17.077  0.00  0.00    +0.000 OA
ATOM      9  C   UNL     1       2.571   7.496  18.523  0.00  0.00    +0.000 A 
ATOM     10  C   UNL     1       2.227   6.943  19.696  0.00  0.00    +0.000 A 
ATOM     11  O   UNL     1       1.403   7.606  20.612  0.00  0.00    +0.000 OA
ATOM     12  C   UNL     1       0.953   8.878  20.337  0.00  0.00    +0.000 A 
ATOM     13  C   UNL     1      -0.714  12.703  19.645  0.00  0.00    +0.000 C 
ATOM     14  C   UNL     1      -1.451  12.756  20.994  0.00  0.00    +0.000 C 
ATOM     15  O   UNL     1      -1.255  11.497  21.696  0.00  0.00    +0.000 OA
ENDROOT
BRANCH  10  16
ATOM     16  N   UNL     1       2.669   5.690  20.093  0.00  0.00    +0.000 N 
ATOM     17  C   UNL     1       3.974   5.132  19.691  0.00  0.00    +0.000 C 
ATOM     18  C   UNL     1       3.816   3.666  19.264  0.00  0.00    +0.000 C 
ATOM     19  O   UNL     1       3.175   2.876  20.281  0.00  0.00    +0.000 OA
ATOM     20  C   UNL     1       1.880   3.417  20.586  0.00  0.00    +0.000 C 
ATOM     21  C   UNL     1       1.989   4.856  21.105  0.00  0.00    +0.000 C 
ENDBRANCH  10  16
BRANCH  14  22
ATOM     22  C   UNL     1      -2.955  13.060  20.750  0.00  0.00    +0.000 C 
BRANCH  22  23
ATOM     23  N   UNL     1      -3.959  12.679  21.766  0.00  0.00    +0.000 NA
ATOM     24  C   UNL     1      -5.337  12.892  21.296  0.00  0.00    +0.000 C 
ATOM     25  C   UNL     1      -6.418  12.360  22.249  0.00  0.00    +0.000 C 
ATOM     26  S   UNL     1      -6.351  13.162  23.878  0.00  0.00    +0.000 S 
ATOM     27  C   UNL     1      -4.590  12.846  24.206  0.00  0.00    +0.000 C 
ATOM     28  C   UNL     1      -3.697  13.334  23.060  0.00  0.00    +0.000 C 
ENDBRANCH  22  23
ENDBRANCH  14  22
TORSDOF 3
ENDMDL
MODEL 7
REMARK VINA RESULT:      -7.6      0.793      1.205
REMARK  Name = 
REMARK  4 active torsions:
REMARK  status: ('A' for Active; 'I' for Inactive)
REMARK    1  A    between atoms: C_1  and  C_2
REMARK    2  A    between atoms: C_10  and  N_11
REMARK    3  A    between atoms: C_20  and  C_21
REMARK    4  A    between atoms: C_21  and  N_22
REMARK                            x       y       z     vdW  Elec       q    Type
REMARK                         _______ _______ _______ _____ _____    ______ ____
ROOT
ATOM      1  C   UNL     1       2.371   9.713  17.719  0.00  0.00    +0.000 C 
ATOM      2  C   UNL     1       2.054   8.734  18.810  0.00  0.00    +0.000 A 
ATOM      3  C   UNL     1       1.080   8.993  19.772  0.00  0.00    +0.000 A 
ATOM      4  C   UNL     1       0.735   8.065  20.740  0.00  0.00    +0.000 A 
ATOM      5  C   UNL     1       1.363   6.841  20.817  0.00  0.00    +0.000 A 
ATOM      6  C   UNL     1       2.377   6.578  19.897  0.00  0.00    +0.000 A 
ATOM      7  C   UNL     1       3.110   5.317  19.987  0.00  0.00    +0.000 A 
ATOM      8  O   UNL     1       2.870   4.477  20.846  0.00  0.00    +0.000 OA
ATOM      9  C   UNL     1       4.158   5.100  18.994  0.00  0.00    +0.000 A 
ATOM     10  C   UNL     1       4.434   6.028  18.066  0.00  0.00    +0.000 A 
ATOM     11  O   UNL     1       3.746   7.246  18.011  0.00  0.00    +0.000 OA
ATOM     12  C   UNL     1       2.729   7.501  18.903  0.00  0.00    +0.000 A 
ATOM     13  C   UNL     1      -0.298   8.606  21.642  0.00  0.00    +0.000 C 
ATOM     14  C   UNL     1      -0.552   9.977  20.992  0.00  0.00    +0.000 C 
ATOM     15  O   UNL     1       0.395  10.172  19.903  0.00  0.00    +0.000 OA
ENDROOT
BRANCH  10  16
ATOM     16  N   UNL     1       5.403   5.849  17.090  0.00  0.00    +0.000 N 
ATOM     17  C   UNL     1       5.122   5.966  15.646  0.00  0.00    +0.000 C 
ATOM     18  C   UNL     1       5.787   4.813  14.881  0.00  0.00    +0.000 C 
ATOM     19  O   UNL     1       7.196   4.727  15.157  0.00  0.00    +0.000 OA
ATOM     20  C   UNL     1       7.415   4.542  16.564  0.00  0.00    +0.000 C 
ATOM     21  C   UNL     1       6.846   5.715  17.372  0.00  0.00    +0.000 C 
ENDBRANCH  10  16
BRANCH  14  22
ATOM     22  C   UNL     1      -0.437  11.090  22.070  0.00  0.00    +0.000 C 
BRANCH  22  23
ATOM     23  N   UNL     1      -1.481  12.131  22.168  0.00  0.00    +0.000 NA
ATOM     24  C   UNL     1      -2.438  11.861  23.253  0.00  0.00    +0.000 C 
ATOM     25  C   UNL     1      -3.444  12.994  23.504  0.00  0.00    +0.000 C 
ATOM     26  S   UNL     1      -4.475  13.331  22.045  0.00  0.00    +0.000 S 
ATOM     27  C   UNL     1      -3.113  13.547  20.859  0.00  0.00    +0.000 C 
ATOM     28  C   UNL     1      -2.147  12.357  20.872  0.00  0.00    +0.000 C 
ENDBRANCH  22  23
ENDBRANCH  14  22
TORSDOF 3
ENDMDL
MODEL 8
REMARK VINA RESULT:      -7.5      2.643      4.570
REMARK  Name = 
REMARK  4 active torsions:
REMARK  status: ('A' for Active; 'I' for Inactive)
REMARK    1  A    between atoms: C_1  and  C_2
REMARK    2  A    between atoms: C_10  and  N_11
REMARK    3  A    between atoms: C_20  and  C_21
REMARK    4  A    between atoms: C_21  and  N_22
REMARK                            x       y       z     vdW  Elec       q    Type
REMARK                         _______ _______ _______ _____ _____    ______ ____
ROOT
ATOM      1  C   UNL     1      -0.534   9.084  22.496  0.00  0.00    +0.000 C 
ATOM      2  C   UNL     1      -0.153   9.790  21.230  0.00  0.00    +0.000 A 
ATOM      3  C   UNL     1      -0.633  11.061  20.921  0.00  0.00    +0.000 A 
ATOM      4  C   UNL     1      -0.231  11.745  19.787  0.00  0.00    +0.000 A 
ATOM      5  C   UNL     1       0.651  11.188  18.886  0.00  0.00    +0.000 A 
ATOM      6  C   UNL     1       1.106   9.896  19.146  0.00  0.00    +0.000 A 
ATOM      7  C   UNL     1       1.991   9.245  18.182  0.00  0.00    +0.000 A 
ATOM      8  O   UNL     1       2.349   9.792  17.146  0.00  0.00    +0.000 OA
ATOM      9  C   UNL     1       2.435   7.895  18.514  0.00  0.00    +0.000 A 
ATOM     10  C   UNL     1       2.028   7.289  19.639  0.00  0.00    +0.000 A 
ATOM     11  O   UNL     1       1.154   7.911  20.538  0.00  0.00    +0.000 OA
ATOM     12  C   UNL     1       0.719   9.194  20.297  0.00  0.00    +0.000 A 
ATOM     13  C   UNL     1      -0.911  13.050  19.691  0.00  0.00    +0.000 C 
ATOM     14  C   UNL     1      -1.722  13.043  20.998  0.00  0.00    +0.000 C 
ATOM     15  O   UNL     1      -1.563  11.752  21.651  0.00  0.00    +0.000 OA
ENDROOT
BRANCH  10  16
ATOM     16  N   UNL     1       2.448   6.018  20.002  0.00  0.00    +0.000 N 
ATOM     17  C   UNL     1       3.774   5.477  19.648  0.00  0.00    +0.000 C 
ATOM     18  C   UNL     1       3.641   4.032  19.145  0.00  0.00    +0.000 C 
ATOM     19  O   UNL     1       2.946   3.198  20.088  0.00  0.00    +0.000 OA
ATOM     20  C   UNL     1       1.636   3.726  20.346  0.00  0.00    +0.000 C 
ATOM     21  C   UNL     1       1.715   5.140  20.935  0.00  0.00    +0.000 C 
ENDBRANCH  10  16
BRANCH  14  22
ATOM     22  C   UNL     1      -3.210  13.359  20.686  0.00  0.00    +0.000 C 
BRANCH  22  23
ATOM     23  N   UNL     1      -4.107  12.288  20.202  0.00  0.00    +0.000 NA
ATOM     24  C   UNL     1      -3.956  12.045  18.758  0.00  0.00    +0.000 C 
ATOM     25  C   UNL     1      -4.743  10.833  18.237  0.00  0.00    +0.000 C 
ATOM     26  S   UNL     1      -6.533  11.016  18.496  0.00  0.00    +0.000 S 
ATOM     27  C   UNL     1      -6.462  11.377  20.277  0.00  0.00    +0.000 C 
ATOM     28  C   UNL     1      -5.507  12.535  20.589  0.00  0.00    +0.000 C 
ENDBRANCH  22  23
ENDBRANCH  14  22
TORSDOF 3
ENDMDL
MODEL 9
REMARK VINA RESULT:      -7.5      2.707      4.288
REMARK  Name = 
REMARK  4 active torsions:
REMARK  status: ('A' for Active; 'I' for Inactive)
REMARK    1  A    between atoms: C_1  and  C_2
REMARK    2  A    between atoms: C_10  and  N_11
REMARK    3  A    between atoms: C_20  and  C_21
REMARK    4  A    between atoms: C_21  and  N_22
REMARK                            x       y       z     vdW  Elec       q    Type
REMARK                         _______ _______ _______ _____ _____    ______ ____
ROOT
ATOM      1  C   UNL     1       0.059   8.704  22.062  0.00  0.00    +0.000 C 
ATOM      2  C   UNL     1       0.579   9.210  20.749  0.00  0.00    +0.000 A 
ATOM      3  C   UNL     1       0.317  10.502  20.301  0.00  0.00    +0.000 A 
ATOM      4  C   UNL     1       0.850  10.996  19.123  0.00  0.00    +0.000 A 
ATOM      5  C   UNL     1       1.653  10.218  18.316  0.00  0.00    +0.000 A 
ATOM      6  C   UNL     1       1.889   8.904  18.718  0.00  0.00    +0.000 A 
ATOM      7  C   UNL     1       2.680   8.028  17.856  0.00  0.00    +0.000 A 
ATOM      8  O   UNL     1       3.146   8.403  16.787  0.00  0.00    +0.000 OA
ATOM      9  C   UNL     1       2.894   6.665  18.334  0.00  0.00    +0.000 A 
ATOM     10  C   UNL     1       2.368   6.249  19.495  0.00  0.00    +0.000 A 
ATOM     11  O   UNL     1       1.584   7.088  20.295  0.00  0.00    +0.000 OA
ATOM     12  C   UNL     1       1.366   8.393  19.914  0.00  0.00    +0.000 A 
ATOM     13  C   UNL     1       0.390  12.375  18.875  0.00  0.00    +0.000 C 
ATOM     14  C   UNL     1      -0.442  12.627  20.143  0.00  0.00    +0.000 C 
ATOM     15  O   UNL     1      -0.508  11.401  20.924  0.00  0.00    +0.000 OA
ENDROOT
BRANCH  10  16
ATOM     16  N   UNL     1       2.570   4.970  19.996  0.00  0.00    +0.000 N 
ATOM     17  C   UNL     1       3.470   3.990  19.359  0.00  0.00    +0.000 C 
ATOM     18  C   UNL     1       2.797   2.611  19.302  0.00  0.00    +0.000 C 
ATOM     19  O   UNL     1       2.350   2.179  20.599  0.00  0.00    +0.000 OA
ATOM     20  C   UNL     1       1.422   3.129  21.146  0.00  0.00    +0.000 C 
ATOM     21  C   UNL     1       2.074   4.508  21.307  0.00  0.00    +0.000 C 
ENDBRANCH  10  16
BRANCH  14  22
ATOM     22  C   UNL     1      -1.853  13.141  19.743  0.00  0.00    +0.000 C 
BRANCH  22  23
ATOM     23  N   UNL     1      -2.947  12.177  19.500  0.00  0.00    +0.000 NA
ATOM     24  C   UNL     1      -2.938  11.658  18.123  0.00  0.00    +0.000 C 
ATOM     25  C   UNL     1      -3.951  10.533  17.866  0.00  0.00    +0.000 C 
ATOM     26  S   UNL     1      -5.663  11.073  18.151  0.00  0.00    +0.000 S 
ATOM     27  C   UNL     1      -5.411  11.727  19.829  0.00  0.00    +0.000 C 
ATOM     28  C   UNL     1      -4.256  12.734  19.885  0.00  0.00    +0.000 C 
ENDBRANCH  22  23
ENDBRANCH  14  22
TORSDOF 3
ENDMDL
