MODEL 1
REMARK VINA RESULT:      -7.6      0.000      0.000
REMARK  Name = 
REMARK  6 active torsions:
REMARK  status: ('A' for Active; 'I' for Inactive)
REMARK    1  A    between atoms: C_2  and  C_3
REMARK    2  A    between atoms: C_3  and  O_4
REMARK    3  A    between atoms: O_4  and  C_5
REMARK    4  A    between atoms: C_5  and  C_7
REMARK    5  A    between atoms: C_7  and  C_8
REMARK    6  A    between atoms: N_14  and  C_15
REMARK                            x       y       z     vdW  Elec       q    Type
REMARK                         _______ _______ _______ _____ _____    ______ ____
ROOT
ATOM      1  O   UNL     1       4.366   3.094  17.543  0.00  0.00    +0.000 OA
ATOM      2  C   UNL     1       4.739   3.042  18.712  0.00  0.00    +0.000 C 
ATOM      3  N   UNL     1       5.630   3.912  19.327  0.00  0.00    +0.000 N 
ATOM      4  H   UNL     1       5.947   3.652  20.254  0.00  0.00    +0.000 HD
ENDROOT
BRANCH   3   5
ATOM      5  C   UNL     1       6.214   5.058  18.743  0.00  0.00    +0.000 A 
ATOM      6  C   UNL     1       5.622   5.765  17.690  0.00  0.00    +0.000 A 
ATOM      7  C   UNL     1       6.240   6.894  17.148  0.00  0.00    +0.000 A 
ATOM      8  C   UNL     1       7.454   7.321  17.663  0.00  0.00    +0.000 A 
ATOM      9  F   UNL     1       8.052   8.400  17.139  0.00  0.00    +0.000 F 
ATOM     10  C   UNL     1       8.059   6.642  18.714  0.00  0.00    +0.000 A 
ATOM     11  C   UNL     1       7.435   5.515  19.262  0.00  0.00    +0.000 A 
ENDBRANCH   3   5
BRANCH   2  12
ATOM     12  C   UNL     1       4.143   2.001  19.662  0.00  0.00    +0.000 C 
BRANCH  12  13
ATOM     13  O   UNL     1       2.720   1.997  19.752  0.00  0.00    +0.000 OA
BRANCH  13  14
ATOM     14  C   UNL     1       2.231   2.704  20.813  0.00  0.00    +0.000 C 
ATOM     15  O   UNL     1       2.657   2.623  21.957  0.00  0.00    +0.000 OA
BRANCH  14  16
ATOM     16  C   UNL     1       1.085   3.592  20.383  0.00  0.00    +0.000 C 
BRANCH  16  17
ATOM     17  C   UNL     1       1.542   4.928  19.852  0.00  0.00    +0.000 A 
ATOM     18  C   UNL     1       1.850   5.090  18.494  0.00  0.00    +0.000 A 
ATOM     19  C   UNL     1       2.288   6.324  18.014  0.00  0.00    +0.000 A 
ATOM     20  C   UNL     1       2.417   7.407  18.878  0.00  0.00    +0.000 A 
ATOM     21  C   UNL     1       2.097   7.265  20.225  0.00  0.00    +0.000 A 
ATOM     22  C   UNL     1       1.655   6.033  20.710  0.00  0.00    +0.000 A 
ENDBRANCH  16  17
ENDBRANCH  14  16
ENDBRANCH  13  14
ENDBRANCH  12  13
ENDBRANCH   2  12
TORSDOF 6
ENDMDL
MODEL 2
REMARK VINA RESULT:      -7.3      3.695      4.947
REMARK  Name = 
REMARK  6 active torsions:
REMARK  status: ('A' for Active; 'I' for Inactive)
REMARK    1  A    between atoms: C_2  and  C_3
REMARK    2  A    between atoms: C_3  and  O_4
REMARK    3  A    between atoms: O_4  and  C_5
REMARK    4  A    between atoms: C_5  and  C_7
REMARK    5  A    between atoms: C_7  and  C_8
REMARK    6  A    between atoms: N_14  and  C_15
REMARK                            x       y       z     vdW  Elec       q    Type
REMARK                         _______ _______ _______ _____ _____    ______ ____
ROOT
ATOM      1  O   UNL     1       8.013   4.324  16.940  0.00  0.00    +0.000 OA
ATOM      2  C   UNL     1       7.321   5.329  16.794  0.00  0.00    +0.000 C 
ATOM      3  N   UNL     1       6.635   5.691  15.643  0.00  0.00    +0.000 N 
ATOM      4  H   UNL     1       6.227   6.619  15.634  0.00  0.00    +0.000 HD
ENDROOT
BRANCH   3   5
ATOM      5  C   UNL     1       6.548   4.937  14.452  0.00  0.00    +0.000 A 
ATOM      6  C   UNL     1       7.498   5.014  13.427  0.00  0.00    +0.000 A 
ATOM      7  C   UNL     1       7.367   4.246  12.269  0.00  0.00    +0.000 A 
ATOM      8  C   UNL     1       6.282   3.395  12.133  0.00  0.00    +0.000 A 
ATOM      9  F   UNL     1       6.150   2.662  11.018  0.00  0.00    +0.000 F 
ATOM     10  C   UNL     1       5.328   3.293  13.140  0.00  0.00    +0.000 A 
ATOM     11  C   UNL     1       5.465   4.057  14.304  0.00  0.00    +0.000 A 
ENDBRANCH   3   5
BRANCH   2  12
ATOM     12  C   UNL     1       7.076   6.269  17.976  0.00  0.00    +0.000 C 
BRANCH  12  13
ATOM     13  O   UNL     1       5.738   6.295  18.472  0.00  0.00    +0.000 OA
BRANCH  13  14
ATOM     14  C   UNL     1       5.191   5.057  18.652  0.00  0.00    +0.000 C 
ATOM     15  O   UNL     1       5.660   4.191  19.377  0.00  0.00    +0.000 OA
BRANCH  14  16
ATOM     16  C   UNL     1       3.934   4.901  17.826  0.00  0.00    +0.000 C 
BRANCH  16  17
ATOM     17  C   UNL     1       2.786   4.315  18.607  0.00  0.00    +0.000 A 
ATOM     18  C   UNL     1       2.391   4.878  19.829  0.00  0.00    +0.000 A 
ATOM     19  C   UNL     1       1.338   4.319  20.554  0.00  0.00    +0.000 A 
ATOM     20  C   UNL     1       0.666   3.203  20.066  0.00  0.00    +0.000 A 
ATOM     21  C   UNL     1       1.036   2.645  18.846  0.00  0.00    +0.000 A 
ATOM     22  C   UNL     1       2.086   3.202  18.115  0.00  0.00    +0.000 A 
ENDBRANCH  16  17
ENDBRANCH  14  16
ENDBRANCH  13  14
ENDBRANCH  12  13
ENDBRANCH   2  12
TORSDOF 6
ENDMDL
MODEL 3
REMARK VINA RESULT:      -7.2      4.068      5.968
REMARK  Name = 
REMARK  6 active torsions:
REMARK  status: ('A' for Active; 'I' for Inactive)
REMARK    1  A    between atoms: C_2  and  C_3
REMARK    2  A    between atoms: C_3  and  O_4
REMARK    3  A    between atoms: O_4  and  C_5
REMARK    4  A    between atoms: C_5  and  C_7
REMARK    5  A    between atoms: C_7  and  C_8
REMARK    6  A    between atoms: N_14  and  C_15
REMARK                            x       y       z     vdW  Elec       q    Type
REMARK                         _______ _______ _______ _____ _____    ______ ____
ROOT
ATOM      1  O   UNL     1       8.730   7.540  18.933  0.00  0.00    +0.000 OA
ATOM      2  C   UNL     1       8.089   8.249  18.162  0.00  0.00    +0.000 C 
ATOM      3  N   UNL     1       8.259   9.613  17.969  0.00  0.00    +0.000 N 
ATOM      4  H   UNL     1       7.558  10.080  17.405  0.00  0.00    +0.000 HD
ENDROOT
BRANCH   3   5
ATOM      5  C   UNL     1       9.247  10.424  18.570  0.00  0.00    +0.000 A 
ATOM      6  C   UNL     1       9.311  10.654  19.950  0.00  0.00    +0.000 A 
ATOM      7  C   UNL     1      10.309  11.463  20.495  0.00  0.00    +0.000 A 
ATOM      8  C   UNL     1      11.251  12.044  19.660  0.00  0.00    +0.000 A 
ATOM      9  F   UNL     1      12.205  12.827  20.182  0.00  0.00    +0.000 F 
ATOM     10  C   UNL     1      11.215  11.824  18.288  0.00  0.00    +0.000 A 
ATOM     11  C   UNL     1      10.218  11.006  17.742  0.00  0.00    +0.000 A 
ENDBRANCH   3   5
BRANCH   2  12
ATOM     12  C   UNL     1       7.049   7.623  17.230  0.00  0.00    +0.000 C 
BRANCH  12  13
ATOM     13  O   UNL     1       7.521   6.549  16.418  0.00  0.00    +0.000 OA
BRANCH  13  14
ATOM     14  C   UNL     1       6.559   5.636  16.096  0.00  0.00    +0.000 C 
ATOM     15  O   UNL     1       6.089   5.489  14.976  0.00  0.00    +0.000 OA
BRANCH  14  16
ATOM     16  C   UNL     1       6.146   4.839  17.313  0.00  0.00    +0.000 C 
BRANCH  16  17
ATOM     17  C   UNL     1       4.650   4.738  17.471  0.00  0.00    +0.000 A 
ATOM     18  C   UNL     1       3.906   5.825  17.951  0.00  0.00    +0.000 A 
ATOM     19  C   UNL     1       2.524   5.718  18.110  0.00  0.00    +0.000 A 
ATOM     20  C   UNL     1       1.872   4.532  17.787  0.00  0.00    +0.000 A 
ATOM     21  C   UNL     1       2.596   3.451  17.293  0.00  0.00    +0.000 A 
ATOM     22  C   UNL     1       3.978   3.554  17.128  0.00  0.00    +0.000 A 
ENDBRANCH  16  17
ENDBRANCH  14  16
ENDBRANCH  13  14
ENDBRANCH  12  13
ENDBRANCH   2  12
TORSDOF 6
ENDMDL
MODEL 4
REMARK VINA RESULT:      -7.2      3.593      4.781
REMARK  Name = 
REMARK  6 active torsions:
REMARK  status: ('A' for Active; 'I' for Inactive)
REMARK    1  A    between atoms: C_2  and  C_3
REMARK    2  A    between atoms: C_3  and  O_4
REMARK    3  A    between atoms: O_4  and  C_5
REMARK    4  A    between atoms: C_5  and  C_7
REMARK    5  A    between atoms: C_7  and  C_8
REMARK    6  A    between atoms: N_14  and  C_15
REMARK                            x       y       z     vdW  Elec       q    Type
REMARK                         _______ _______ _______ _____ _____    ______ ____
ROOT
ATOM      1  O   UNL     1       7.905   4.428  17.152  0.00  0.00    +0.000 OA
ATOM      2  C   UNL     1       7.019   5.267  17.015  0.00  0.00    +0.000 C 
ATOM      3  N   UNL     1       6.408   5.624  15.820  0.00  0.00    +0.000 N 
ATOM      4  H   UNL     1       5.797   6.433  15.851  0.00  0.00    +0.000 HD
ENDROOT
BRANCH   3   5
ATOM      5  C   UNL     1       6.640   5.039  14.556  0.00  0.00    +0.000 A 
ATOM      6  C   UNL     1       7.666   5.456  13.699  0.00  0.00    +0.000 A 
ATOM      7  C   UNL     1       7.856   4.843  12.459  0.00  0.00    +0.000 A 
ATOM      8  C   UNL     1       7.019   3.808  12.073  0.00  0.00    +0.000 A 
ATOM      9  F   UNL     1       7.195   3.224  10.879  0.00  0.00    +0.000 F 
ATOM     10  C   UNL     1       5.998   3.370  12.909  0.00  0.00    +0.000 A 
ATOM     11  C   UNL     1       5.813   3.979  14.155  0.00  0.00    +0.000 A 
ENDBRANCH   3   5
BRANCH   2  12
ATOM     12  C   UNL     1       6.422   5.960  18.241  0.00  0.00    +0.000 C 
BRANCH  12  13
ATOM     13  O   UNL     1       5.093   5.569  18.580  0.00  0.00    +0.000 OA
BRANCH  13  14
ATOM     14  C   UNL     1       4.132   6.431  18.137  0.00  0.00    +0.000 C 
ATOM     15  O   UNL     1       4.193   7.057  17.088  0.00  0.00    +0.000 OA
BRANCH  14  16
ATOM     16  C   UNL     1       2.989   6.515  19.124  0.00  0.00    +0.000 C 
BRANCH  16  17
ATOM     17  C   UNL     1       2.249   5.210  19.279  0.00  0.00    +0.000 A 
ATOM     18  C   UNL     1       1.930   4.432  18.158  0.00  0.00    +0.000 A 
ATOM     19  C   UNL     1       1.230   3.234  18.308  0.00  0.00    +0.000 A 
ATOM     20  C   UNL     1       0.849   2.800  19.574  0.00  0.00    +0.000 A 
ATOM     21  C   UNL     1       1.175   3.554  20.697  0.00  0.00    +0.000 A 
ATOM     22  C   UNL     1       1.878   4.751  20.552  0.00  0.00    +0.000 A 
ENDBRANCH  16  17
ENDBRANCH  14  16
ENDBRANCH  13  14
ENDBRANCH  12  13
ENDBRANCH   2  12
TORSDOF 6
ENDMDL
MODEL 5
REMARK VINA RESULT:      -7.2      1.136      1.799
REMARK  Name = 
REMARK  6 active torsions:
REMARK  status: ('A' for Active; 'I' for Inactive)
REMARK    1  A    between atoms: C_2  and  C_3
REMARK    2  A    between atoms: C_3  and  O_4
REMARK    3  A    between atoms: O_4  and  C_5
REMARK    4  A    between atoms: C_5  and  C_7
REMARK    5  A    between atoms: C_7  and  C_8
REMARK    6  A    between atoms: N_14  and  C_15
REMARK                            x       y       z     vdW  Elec       q    Type
REMARK                         _______ _______ _______ _____ _____    ______ ____
ROOT
ATOM      1  O   UNL     1       4.568   4.381  20.364  0.00  0.00    +0.000 OA
ATOM      2  C   UNL     1       4.872   3.614  19.455  0.00  0.00    +0.000 C 
ATOM      3  N   UNL     1       5.656   3.922  18.351  0.00  0.00    +0.000 N 
ATOM      4  H   UNL     1       5.697   3.223  17.618  0.00  0.00    +0.000 HD
ENDROOT
BRANCH   3   5
ATOM      5  C   UNL     1       6.307   5.151  18.107  0.00  0.00    +0.000 A 
ATOM      6  C   UNL     1       5.869   6.070  17.147  0.00  0.00    +0.000 A 
ATOM      7  C   UNL     1       6.547   7.274  16.945  0.00  0.00    +0.000 A 
ATOM      8  C   UNL     1       7.669   7.562  17.706  0.00  0.00    +0.000 A 
ATOM      9  F   UNL     1       8.325   8.713  17.508  0.00  0.00    +0.000 F 
ATOM     10  C   UNL     1       8.120   6.669  18.671  0.00  0.00    +0.000 A 
ATOM     11  C   UNL     1       7.435   5.467  18.880  0.00  0.00    +0.000 A 
ENDBRANCH   3   5
BRANCH   2  12
ATOM     12  C   UNL     1       4.457   2.143  19.522  0.00  0.00    +0.000 C 
BRANCH  12  13
ATOM     13  O   UNL     1       3.053   1.905  19.604  0.00  0.00    +0.000 OA
BRANCH  13  14
ATOM     14  C   UNL     1       2.371   2.218  18.464  0.00  0.00    +0.000 C 
ATOM     15  O   UNL     1       2.691   1.851  17.341  0.00  0.00    +0.000 OA
BRANCH  14  16
ATOM     16  C   UNL     1       1.176   3.090  18.776  0.00  0.00    +0.000 C 
BRANCH  16  17
ATOM     17  C   UNL     1       1.552   4.518  19.082  0.00  0.00    +0.000 A 
ATOM     18  C   UNL     1       1.354   5.050  20.364  0.00  0.00    +0.000 A 
ATOM     19  C   UNL     1       1.689   6.378  20.634  0.00  0.00    +0.000 A 
ATOM     20  C   UNL     1       2.229   7.181  19.635  0.00  0.00    +0.000 A 
ATOM     21  C   UNL     1       2.448   6.661  18.364  0.00  0.00    +0.000 A 
ATOM     22  C   UNL     1       2.118   5.332  18.089  0.00  0.00    +0.000 A 
ENDBRANCH  16  17
ENDBRANCH  14  16
ENDBRANCH  13  14
ENDBRANCH  12  13
ENDBRANCH   2  12
TORSDOF 6
ENDMDL
MODEL 6
REMARK VINA RESULT:      -7.2      4.475      7.862
REMARK  Name = 
REMARK  6 active torsions:
REMARK  status: ('A' for Active; 'I' for Inactive)
REMARK    1  A    between atoms: C_2  and  C_3
REMARK    2  A    between atoms: C_3  and  O_4
REMARK    3  A    between atoms: O_4  and  C_5
REMARK    4  A    between atoms: C_5  and  C_7
REMARK    5  A    between atoms: C_7  and  C_8
REMARK    6  A    between atoms: N_14  and  C_15
REMARK                            x       y       z     vdW  Elec       q    Type
REMARK                         _______ _______ _______ _____ _____    ______ ____
ROOT
ATOM      1  O   UNL     1       5.615   6.415  15.755  0.00  0.00    +0.000 OA
ATOM      2  C   UNL     1       6.072   6.410  16.896  0.00  0.00    +0.000 C 
ATOM      3  N   UNL     1       5.497   5.804  18.005  0.00  0.00    +0.000 N 
ATOM      4  H   UNL     1       5.922   6.011  18.902  0.00  0.00    +0.000 HD
ENDROOT
BRANCH   3   5
ATOM      5  C   UNL     1       4.321   5.021  18.013  0.00  0.00    +0.000 A 
ATOM      6  C   UNL     1       4.298   3.674  17.632  0.00  0.00    +0.000 A 
ATOM      7  C   UNL     1       3.109   2.943  17.659  0.00  0.00    +0.000 A 
ATOM      8  C   UNL     1       1.937   3.559  18.071  0.00  0.00    +0.000 A 
ATOM      9  F   UNL     1       0.793   2.861  18.090  0.00  0.00    +0.000 F 
ATOM     10  C   UNL     1       1.935   4.893  18.462  0.00  0.00    +0.000 A 
ATOM     11  C   UNL     1       3.129   5.623  18.442  0.00  0.00    +0.000 A 
ENDBRANCH   3   5
BRANCH   2  12
ATOM     12  C   UNL     1       7.439   7.035  17.177  0.00  0.00    +0.000 C 
BRANCH  12  13
ATOM     13  O   UNL     1       7.477   8.461  17.164  0.00  0.00    +0.000 OA
BRANCH  13  14
ATOM     14  C   UNL     1       8.300   9.001  18.110  0.00  0.00    +0.000 C 
ATOM     15  O   UNL     1       8.836   8.365  19.008  0.00  0.00    +0.000 OA
BRANCH  14  16
ATOM     16  C   UNL     1       8.448  10.491  17.904  0.00  0.00    +0.000 C 
BRANCH  16  17
ATOM     17  C   UNL     1       9.656  11.065  18.600  0.00  0.00    +0.000 A 
ATOM     18  C   UNL     1      10.836  11.325  17.888  0.00  0.00    +0.000 A 
ATOM     19  C   UNL     1      11.955  11.840  18.542  0.00  0.00    +0.000 A 
ATOM     20  C   UNL     1      11.907  12.105  19.907  0.00  0.00    +0.000 A 
ATOM     21  C   UNL     1      10.738  11.869  20.623  0.00  0.00    +0.000 A 
ATOM     22  C   UNL     1       9.614  11.358  19.972  0.00  0.00    +0.000 A 
ENDBRANCH  16  17
ENDBRANCH  14  16
ENDBRANCH  13  14
ENDBRANCH  12  13
ENDBRANCH   2  12
TORSDOF 6
ENDMDL
MODEL 7
REMARK VINA RESULT:      -7.1      3.876      5.187
REMARK  Name = 
REMARK  6 active torsions:
REMARK  status: ('A' for Active; 'I' for Inactive)
REMARK    1  A    between atoms: C_2  and  C_3
REMARK    2  A    between atoms: C_3  and  O_4
REMARK    3  A    between atoms: O_4  and  C_5
REMARK    4  A    between atoms: C_5  and  C_7
REMARK    5  A    between atoms: C_7  and  C_8
REMARK    6  A    between atoms: N_14  and  C_15
REMARK                            x       y       z     vdW  Elec       q    Type
REMARK                         _______ _______ _______ _____ _____    ______ ____
ROOT
ATOM      1  O   UNL     1       7.869   4.381  16.847  0.00  0.00    +0.000 OA
ATOM      2  C   UNL     1       7.346   5.456  16.564  0.00  0.00    +0.000 C 
ATOM      3  N   UNL     1       6.741   5.780  15.357  0.00  0.00    +0.000 N 
ATOM      4  H   UNL     1       6.485   6.752  15.228  0.00  0.00    +0.000 HD
ENDROOT
BRANCH   3   5
ATOM      5  C   UNL     1       6.550   4.912  14.260  0.00  0.00    +0.000 A 
ATOM      6  C   UNL     1       5.461   4.039  14.156  0.00  0.00    +0.000 A 
ATOM      7  C   UNL     1       5.317   3.201  13.048  0.00  0.00    +0.000 A 
ATOM      8  C   UNL     1       6.265   3.236  12.038  0.00  0.00    +0.000 A 
ATOM      9  F   UNL     1       6.132   2.427  10.977  0.00  0.00    +0.000 F 
ATOM     10  C   UNL     1       7.351   4.100  12.112  0.00  0.00    +0.000 A 
ATOM     11  C   UNL     1       7.491   4.946  13.219  0.00  0.00    +0.000 A 
ENDBRANCH   3   5
BRANCH   2  12
ATOM     12  C   UNL     1       7.237   6.557  17.621  0.00  0.00    +0.000 C 
BRANCH  12  13
ATOM     13  O   UNL     1       5.909   6.948  17.964  0.00  0.00    +0.000 OA
BRANCH  13  14
ATOM     14  C   UNL     1       5.127   5.921  18.407  0.00  0.00    +0.000 C 
ATOM     15  O   UNL     1       5.411   5.189  19.345  0.00  0.00    +0.000 OA
BRANCH  14  16
ATOM     16  C   UNL     1       3.871   5.805  17.574  0.00  0.00    +0.000 C 
BRANCH  16  17
ATOM     17  C   UNL     1       3.004   4.638  17.974  0.00  0.00    +0.000 A 
ATOM     18  C   UNL     1       2.043   4.775  18.985  0.00  0.00    +0.000 A 
ATOM     19  C   UNL     1       1.257   3.685  19.361  0.00  0.00    +0.000 A 
ATOM     20  C   UNL     1       1.417   2.455  18.731  0.00  0.00    +0.000 A 
ATOM     21  C   UNL     1       2.355   2.310  17.714  0.00  0.00    +0.000 A 
ATOM     22  C   UNL     1       3.141   3.398  17.331  0.00  0.00    +0.000 A 
ENDBRANCH  16  17
ENDBRANCH  14  16
ENDBRANCH  13  14
ENDBRANCH  12  13
ENDBRANCH   2  12
TORSDOF 6
ENDMDL
MODEL 8
REMARK VINA RESULT:      -7.1      3.745      4.839
REMARK  Name = 
REMARK  6 active torsions:
REMARK  status: ('A' for Active; 'I' for Inactive)
REMARK    1  A    between atoms: C_2  and  C_3
REMARK    2  A    between atoms: C_3  and  O_4
REMARK    3  A    between atoms: O_4  and  C_5
REMARK    4  A    between atoms: C_5  and  C_7
REMARK    5  A    between atoms: C_7  and  C_8
REMARK    6  A    between atoms: N_14  and  C_15
REMARK                            x       y       z     vdW  Elec       q    Type
REMARK                         _______ _______ _______ _____ _____    ______ ____
ROOT
ATOM      1  O   UNL     1       7.941   4.453  16.891  0.00  0.00    +0.000 OA
ATOM      2  C   UNL     1       7.196   5.411  16.694  0.00  0.00    +0.000 C 
ATOM      3  N   UNL     1       6.528   5.699  15.511  0.00  0.00    +0.000 N 
ATOM      4  H   UNL     1       6.068   6.601  15.462  0.00  0.00    +0.000 HD
ENDROOT
BRANCH   3   5
ATOM      5  C   UNL     1       6.523   4.908  14.341  0.00  0.00    +0.000 A 
ATOM      6  C   UNL     1       5.528   3.965  14.061  0.00  0.00    +0.000 A 
ATOM      7  C   UNL     1       5.567   3.208  12.888  0.00  0.00    +0.000 A 
ATOM      8  C   UNL     1       6.605   3.396  11.989  0.00  0.00    +0.000 A 
ATOM      9  F   UNL     1       6.649   2.665  10.866  0.00  0.00    +0.000 F 
ATOM     10  C   UNL     1       7.602   4.332  12.239  0.00  0.00    +0.000 A 
ATOM     11  C   UNL     1       7.557   5.097  13.411  0.00  0.00    +0.000 A 
ENDBRANCH   3   5
BRANCH   2  12
ATOM     12  C   UNL     1       6.859   6.367  17.839  0.00  0.00    +0.000 C 
BRANCH  12  13
ATOM     13  O   UNL     1       5.474   6.675  17.992  0.00  0.00    +0.000 OA
BRANCH  13  14
ATOM     14  C   UNL     1       4.806   5.820  18.820  0.00  0.00    +0.000 C 
ATOM     15  O   UNL     1       5.319   4.870  19.396  0.00  0.00    +0.000 OA
BRANCH  14  16
ATOM     16  C   UNL     1       3.346   6.200  18.919  0.00  0.00    +0.000 C 
BRANCH  16  17
ATOM     17  C   UNL     1       2.442   5.013  19.139  0.00  0.00    +0.000 A 
ATOM     18  C   UNL     1       2.134   4.145  18.082  0.00  0.00    +0.000 A 
ATOM     19  C   UNL     1       1.283   3.059  18.288  0.00  0.00    +0.000 A 
ATOM     20  C   UNL     1       0.739   2.825  19.547  0.00  0.00    +0.000 A 
ATOM     21  C   UNL     1       1.051   3.668  20.609  0.00  0.00    +0.000 A 
ATOM     22  C   UNL     1       1.905   4.754  20.409  0.00  0.00    +0.000 A 
ENDBRANCH  16  17
ENDBRANCH  14  16
ENDBRANCH  13  14
ENDBRANCH  12  13
ENDBRANCH   2  12
TORSDOF 6
ENDMDL
MODEL 9
REMARK VINA RESULT:      -7.0      1.745      2.165
REMARK  Name = 
REMARK  6 active torsions:
REMARK  status: ('A' for Active; 'I' for Inactive)
REMARK    1  A    between atoms: C_2  and  C_3
REMARK    2  A    between atoms: C_3  and  O_4
REMARK    3  A    between atoms: O_4  and  C_5
REMARK    4  A    between atoms: C_5  and  C_7
REMARK    5  A    between atoms: C_7  and  C_8
REMARK    6  A    between atoms: N_14  and  C_15
REMARK                            x       y       z     vdW  Elec       q    Type
REMARK                         _______ _______ _______ _____ _____    ______ ____
ROOT
ATOM      1  O   UNL     1       4.363   1.489  18.603  0.00  0.00    +0.000 OA
ATOM      2  C   UNL     1       4.429   2.472  19.337  0.00  0.00    +0.000 C 
ATOM      3  N   UNL     1       5.040   3.681  19.035  0.00  0.00    +0.000 N 
ATOM      4  H   UNL     1       5.135   4.342  19.799  0.00  0.00    +0.000 HD
ENDROOT
BRANCH   3   5
ATOM      5  C   UNL     1       5.636   4.031  17.803  0.00  0.00    +0.000 A 
ATOM      6  C   UNL     1       6.965   4.453  17.690  0.00  0.00    +0.000 A 
ATOM      7  C   UNL     1       7.508   4.786  16.448  0.00  0.00    +0.000 A 
ATOM      8  C   UNL     1       6.720   4.694  15.311  0.00  0.00    +0.000 A 
ATOM      9  F   UNL     1       7.237   5.020  14.119  0.00  0.00    +0.000 F 
ATOM     10  C   UNL     1       5.399   4.269  15.395  0.00  0.00    +0.000 A 
ATOM     11  C   UNL     1       4.858   3.928  16.640  0.00  0.00    +0.000 A 
ENDBRANCH   3   5
BRANCH   2  12
ATOM     12  C   UNL     1       3.717   2.465  20.692  0.00  0.00    +0.000 C 
BRANCH  12  13
ATOM     13  O   UNL     1       2.413   1.887  20.697  0.00  0.00    +0.000 OA
BRANCH  13  14
ATOM     14  C   UNL     1       1.467   2.663  21.302  0.00  0.00    +0.000 C 
ATOM     15  O   UNL     1       1.304   2.741  22.512  0.00  0.00    +0.000 OA
BRANCH  14  16
ATOM     16  C   UNL     1       0.642   3.402  20.273  0.00  0.00    +0.000 C 
BRANCH  16  17
ATOM     17  C   UNL     1       1.343   4.616  19.716  0.00  0.00    +0.000 A 
ATOM     18  C   UNL     1       1.657   4.697  18.352  0.00  0.00    +0.000 A 
ATOM     19  C   UNL     1       2.321   5.815  17.848  0.00  0.00    +0.000 A 
ATOM     20  C   UNL     1       2.672   6.862  18.694  0.00  0.00    +0.000 A 
ATOM     21  C   UNL     1       2.352   6.803  20.047  0.00  0.00    +0.000 A 
ATOM     22  C   UNL     1       1.683   5.688  20.556  0.00  0.00    +0.000 A 
ENDBRANCH  16  17
ENDBRANCH  14  16
ENDBRANCH  13  14
ENDBRANCH  12  13
ENDBRANCH   2  12
TORSDOF 6
ENDMDL
