MODEL 1
REMARK VINA RESULT:      -8.0      0.000      0.000
REMARK  Name = 
REMARK  3 active torsions:
REMARK  status: ('A' for Active; 'I' for Inactive)
REMARK    1  A    between atoms: C_4  and  C_5
REMARK    2  A    between atoms: C_5  and  O_6
REMARK    3  A    between atoms: O_6  and  C_7
REMARK                            x       y       z     vdW  Elec       q    Type
REMARK                         _______ _______ _______ _____ _____    ______ ____
ROOT
ATOM      1  C   UNL     1       5.147   4.397  17.378  0.00  0.00    +0.000 C 
ATOM      2  C   UNL     1       4.699   5.861  17.268  0.00  0.00    +0.000 C 
ATOM      3  C   UNL     1       3.931   6.112  18.557  0.00  0.00    +0.000 C 
ATOM      4  C   UNL     1       2.610   6.860  18.397  0.00  0.00    +0.000 C 
ATOM      5  N   UNL     1       2.072   6.985  19.737  0.00  0.00    +0.000 N 
ATOM      6  C   UNL     1       1.538   8.175  20.155  0.00  0.00    +0.000 A 
ATOM      7  N   UNL     1       1.494   9.211  19.310  0.00  0.00    +0.000 NA
ATOM      8  C   UNL     1       1.007  10.373  19.786  0.00  0.00    +0.000 A 
ATOM      9  C   UNL     1       0.612  10.542  21.084  0.00  0.00    +0.000 A 
ATOM     10  C   UNL     1       0.716   9.442  21.878  0.00  0.00    +0.000 A 
ATOM     11  N   UNL     1       1.143   8.250  21.432  0.00  0.00    +0.000 NA
ATOM     12  C   UNL     1       1.862   5.764  20.516  0.00  0.00    +0.000 C 
ATOM     13  C   UNL     1       3.037   4.744  20.373  0.00  0.00    +0.000 C 
ATOM     14  N   UNL     1       3.660   4.755  19.053  0.00  0.00    +0.000 NA
ATOM     15  C   UNL     1       4.897   4.032  18.856  0.00  0.00    +0.000 C 
ENDROOT
BRANCH   1  16
ATOM     16  O   UNL     1       6.492   4.237  16.945  0.00  0.00    +0.000 OA
BRANCH  16  17
ATOM     17  C   UNL     1       6.856   5.301  16.059  0.00  0.00    +0.000 C 
BRANCH  17  21
ATOM     18  C   UNL     1       7.113   4.189  11.968  0.00  0.00    +0.000 A 
ATOM     19  C   UNL     1       6.176   3.543  12.766  0.00  0.00    +0.000 A 
ATOM     20  C   UNL     1       6.062   3.895  14.108  0.00  0.00    +0.000 A 
ATOM     21  C   UNL     1       6.884   4.899  14.609  0.00  0.00    +0.000 A 
ATOM     22  N   UNL     1       7.818   5.525  13.844  0.00  0.00    +0.000 NA
ATOM     23  C   UNL     1       7.907   5.163  12.549  0.00  0.00    +0.000 A 
ENDBRANCH  17  21
ENDBRANCH  16  17
ENDBRANCH   1  16
TORSDOF 3
ENDMDL
MODEL 2
REMARK VINA RESULT:      -7.3      2.304      3.935
REMARK  Name = 
REMARK  3 active torsions:
REMARK  status: ('A' for Active; 'I' for Inactive)
REMARK    1  A    between atoms: C_4  and  C_5
REMARK    2  A    between atoms: C_5  and  O_6
REMARK    3  A    between atoms: O_6  and  C_7
REMARK                            x       y       z     vdW  Elec       q    Type
REMARK                         _______ _______ _______ _____ _____    ______ ____
ROOT
ATOM      1  C   UNL     1       2.964   5.716  19.378  0.00  0.00    +0.000 C 
ATOM      2  C   UNL     1       2.127   6.149  20.590  0.00  0.00    +0.000 C 
ATOM      3  C   UNL     1       1.480   7.452  20.146  0.00  0.00    +0.000 C 
ATOM      4  C   UNL     1       1.514   8.583  21.171  0.00  0.00    +0.000 C 
ATOM      5  N   UNL     1       0.844   9.700  20.535  0.00  0.00    +0.000 N 
ATOM      6  C   UNL     1      -0.068  10.444  21.236  0.00  0.00    +0.000 A 
ATOM      7  N   UNL     1      -0.316  10.147  22.517  0.00  0.00    +0.000 NA
ATOM      8  C   UNL     1      -1.258  10.875  23.146  0.00  0.00    +0.000 A 
ATOM      9  C   UNL     1      -1.988  11.849  22.525  0.00  0.00    +0.000 A 
ATOM     10  C   UNL     1      -1.686  12.066  21.216  0.00  0.00    +0.000 A 
ATOM     11  N   UNL     1      -0.717  11.403  20.565  0.00  0.00    +0.000 NA
ATOM     12  C   UNL     1       1.358  10.177  19.251  0.00  0.00    +0.000 C 
ATOM     13  C   UNL     1       1.751   9.014  18.286  0.00  0.00    +0.000 C 
ATOM     14  N   UNL     1       2.280   7.839  18.973  0.00  0.00    +0.000 NA
ATOM     15  C   UNL     1       2.466   6.614  18.228  0.00  0.00    +0.000 C 
ENDROOT
BRANCH   1  16
ATOM     16  O   UNL     1       2.838   4.319  19.140  0.00  0.00    +0.000 OA
BRANCH  16  17
ATOM     17  C   UNL     1       4.105   3.673  19.300  0.00  0.00    +0.000 C 
BRANCH  17  21
ATOM     18  C   UNL     1       7.025   4.532  16.339  0.00  0.00    +0.000 A 
ATOM     19  C   UNL     1       5.773   4.096  15.920  0.00  0.00    +0.000 A 
ATOM     20  C   UNL     1       4.793   3.818  16.868  0.00  0.00    +0.000 A 
ATOM     21  C   UNL     1       5.094   4.000  18.214  0.00  0.00    +0.000 A 
ATOM     22  N   UNL     1       6.320   4.406  18.638  0.00  0.00    +0.000 NA
ATOM     23  C   UNL     1       7.249   4.667  17.698  0.00  0.00    +0.000 A 
ENDBRANCH  17  21
ENDBRANCH  16  17
ENDBRANCH   1  16
TORSDOF 3
ENDMDL
MODEL 3
REMARK VINA RESULT:      -7.1      0.618      1.012
REMARK  Name = 
REMARK  3 active torsions:
REMARK  status: ('A' for Active; 'I' for Inactive)
REMARK    1  A    between atoms: C_4  and  C_5
REMARK    2  A    between atoms: C_5  and  O_6
REMARK    3  A    between atoms: O_6  and  C_7
REMARK                            x       y       z     vdW  Elec       q    Type
REMARK                         _______ _______ _______ _____ _____    ______ ____
ROOT
ATOM      1  C   UNL     1       5.240   4.554  17.341  0.00  0.00    +0.000 C 
ATOM      2  C   UNL     1       4.738   6.002  17.255  0.00  0.00    +0.000 C 
ATOM      3  C   UNL     1       3.973   6.208  18.553  0.00  0.00    +0.000 C 
ATOM      4  C   UNL     1       2.623   6.908  18.414  0.00  0.00    +0.000 C 
ATOM      5  N   UNL     1       2.094   6.995  19.761  0.00  0.00    +0.000 N 
ATOM      6  C   UNL     1       1.520   8.159  20.200  0.00  0.00    +0.000 A 
ATOM      7  N   UNL     1       1.430   9.203  19.369  0.00  0.00    +0.000 NA
ATOM      8  C   UNL     1       0.904  10.340  19.865  0.00  0.00    +0.000 A 
ATOM      9  C   UNL     1       0.515  10.478  21.168  0.00  0.00    +0.000 A 
ATOM     10  C   UNL     1       0.667   9.372  21.946  0.00  0.00    +0.000 A 
ATOM     11  N   UNL     1       1.133   8.202  21.481  0.00  0.00    +0.000 NA
ATOM     12  C   UNL     1       1.935   5.758  20.525  0.00  0.00    +0.000 C 
ATOM     13  C   UNL     1       3.146   4.784  20.359  0.00  0.00    +0.000 C 
ATOM     14  N   UNL     1       3.757   4.835  19.034  0.00  0.00    +0.000 NA
ATOM     15  C   UNL     1       5.018   4.161  18.816  0.00  0.00    +0.000 C 
ENDROOT
BRANCH   1  16
ATOM     16  O   UNL     1       6.586   4.450  16.894  0.00  0.00    +0.000 OA
BRANCH  16  17
ATOM     17  C   UNL     1       6.847   5.427  15.880  0.00  0.00    +0.000 C 
BRANCH  17  21
ATOM     18  C   UNL     1       6.770   3.805  11.957  0.00  0.00    +0.000 A 
ATOM     19  C   UNL     1       7.673   4.827  12.227  0.00  0.00    +0.000 A 
ATOM     20  C   UNL     1       7.728   5.370  13.507  0.00  0.00    +0.000 A 
ATOM     21  C   UNL     1       6.883   4.859  14.487  0.00  0.00    +0.000 A 
ATOM     22  N   UNL     1       5.982   3.874  14.231  0.00  0.00    +0.000 NA
ATOM     23  C   UNL     1       5.950   3.368  12.982  0.00  0.00    +0.000 A 
ENDBRANCH  17  21
ENDBRANCH  16  17
ENDBRANCH   1  16
TORSDOF 3
ENDMDL
MODEL 4
REMARK VINA RESULT:      -7.0      3.052      4.218
REMARK  Name = 
REMARK  3 active torsions:
REMARK  status: ('A' for Active; 'I' for Inactive)
REMARK    1  A    between atoms: C_4  and  C_5
REMARK    2  A    between atoms: C_5  and  O_6
REMARK    3  A    between atoms: O_6  and  C_7
REMARK                            x       y       z     vdW  Elec       q    Type
REMARK                         _______ _______ _______ _____ _____    ______ ____
ROOT
ATOM      1  C   UNL     1       2.362   5.819  18.526  0.00  0.00    +0.000 C 
ATOM      2  C   UNL     1       2.425   7.205  17.870  0.00  0.00    +0.000 C 
ATOM      3  C   UNL     1       2.149   8.169  19.014  0.00  0.00    +0.000 C 
ATOM      4  C   UNL     1       1.165   9.294  18.699  0.00  0.00    +0.000 C 
ATOM      5  N   UNL     1       1.068  10.073  19.918  0.00  0.00    +0.000 N 
ATOM      6  C   UNL     1       1.096  11.441  19.862  0.00  0.00    +0.000 A 
ATOM      7  N   UNL     1       1.188  12.051  18.675  0.00  0.00    +0.000 NA
ATOM      8  C   UNL     1       1.263  13.396  18.678  0.00  0.00    +0.000 A 
ATOM      9  C   UNL     1       1.300  14.140  19.824  0.00  0.00    +0.000 A 
ATOM     10  C   UNL     1       1.227  13.434  20.985  0.00  0.00    +0.000 A 
ATOM     11  N   UNL     1       1.094  12.098  21.028  0.00  0.00    +0.000 NA
ATOM     12  C   UNL     1       0.666   9.390  21.148  0.00  0.00    +0.000 C 
ATOM     13  C   UNL     1       1.346   7.994  21.315  0.00  0.00    +0.000 C 
ATOM     14  N   UNL     1       1.572   7.300  20.051  0.00  0.00    +0.000 NA
ATOM     15  C   UNL     1       2.396   6.111  20.040  0.00  0.00    +0.000 C 
ENDROOT
BRANCH   1  16
ATOM     16  O   UNL     1       3.413   4.982  18.059  0.00  0.00    +0.000 OA
BRANCH  16  17
ATOM     17  C   UNL     1       4.386   4.786  19.090  0.00  0.00    +0.000 C 
BRANCH  17  21
ATOM     18  C   UNL     1       8.144   6.655  18.443  0.00  0.00    +0.000 A 
ATOM     19  C   UNL     1       7.120   6.910  17.539  0.00  0.00    +0.000 A 
ATOM     20  C   UNL     1       5.874   6.320  17.732  0.00  0.00    +0.000 A 
ATOM     21  C   UNL     1       5.687   5.500  18.840  0.00  0.00    +0.000 A 
ATOM     22  N   UNL     1       6.686   5.227  19.721  0.00  0.00    +0.000 NA
ATOM     23  C   UNL     1       7.881   5.811  19.508  0.00  0.00    +0.000 A 
ENDBRANCH  17  21
ENDBRANCH  16  17
ENDBRANCH   1  16
TORSDOF 3
ENDMDL
MODEL 5
REMARK VINA RESULT:      -7.0      2.920      4.162
REMARK  Name = 
REMARK  3 active torsions:
REMARK  status: ('A' for Active; 'I' for Inactive)
REMARK    1  A    between atoms: C_4  and  C_5
REMARK    2  A    between atoms: C_5  and  O_6
REMARK    3  A    between atoms: O_6  and  C_7
REMARK                            x       y       z     vdW  Elec       q    Type
REMARK                         _______ _______ _______ _____ _____    ______ ____
ROOT
ATOM      1  C   UNL     1       2.362   6.132  18.388  0.00  0.00    +0.000 C 
ATOM      2  C   UNL     1       2.397   7.535  17.765  0.00  0.00    +0.000 C 
ATOM      3  C   UNL     1       2.131   8.467  18.937  0.00  0.00    +0.000 C 
ATOM      4  C   UNL     1       1.129   9.588  18.668  0.00  0.00    +0.000 C 
ATOM      5  N   UNL     1       1.046  10.336  19.907  0.00  0.00    +0.000 N 
ATOM      6  C   UNL     1       1.058  11.705  19.885  0.00  0.00    +0.000 A 
ATOM      7  N   UNL     1       1.120  12.345  18.712  0.00  0.00    +0.000 NA
ATOM      8  C   UNL     1       1.181  13.690  18.746  0.00  0.00    +0.000 A 
ATOM      9  C   UNL     1       1.230  14.406  19.910  0.00  0.00    +0.000 A 
ATOM     10  C   UNL     1       1.187  13.671  21.054  0.00  0.00    +0.000 A 
ATOM     11  N   UNL     1       1.070  12.334  21.067  0.00  0.00    +0.000 NA
ATOM     12  C   UNL     1       0.675   9.618  21.127  0.00  0.00    +0.000 C 
ATOM     13  C   UNL     1       1.375   8.226  21.248  0.00  0.00    +0.000 C 
ATOM     14  N   UNL     1       1.584   7.566  19.963  0.00  0.00    +0.000 NA
ATOM     15  C   UNL     1       2.421   6.388  19.908  0.00  0.00    +0.000 C 
ENDROOT
BRANCH   1  16
ATOM     16  O   UNL     1       3.413   5.319  17.880  0.00  0.00    +0.000 OA
BRANCH  16  17
ATOM     17  C   UNL     1       4.282   6.096  17.048  0.00  0.00    +0.000 C 
BRANCH  17  21
ATOM     18  C   UNL     1       8.165   6.775  18.627  0.00  0.00    +0.000 A 
ATOM     19  C   UNL     1       7.409   5.741  19.166  0.00  0.00    +0.000 A 
ATOM     20  C   UNL     1       6.137   5.488  18.661  0.00  0.00    +0.000 A 
ATOM     21  C   UNL     1       5.665   6.274  17.615  0.00  0.00    +0.000 A 
ATOM     22  N   UNL     1       6.386   7.301  17.092  0.00  0.00    +0.000 NA
ATOM     23  C   UNL     1       7.613   7.523  17.601  0.00  0.00    +0.000 A 
ENDBRANCH  17  21
ENDBRANCH  16  17
ENDBRANCH   1  16
TORSDOF 3
ENDMDL
MODEL 6
REMARK VINA RESULT:      -6.9      2.750      4.155
REMARK  Name = 
REMARK  3 active torsions:
REMARK  status: ('A' for Active; 'I' for Inactive)
REMARK    1  A    between atoms: C_4  and  C_5
REMARK    2  A    between atoms: C_5  and  O_6
REMARK    3  A    between atoms: O_6  and  C_7
REMARK                            x       y       z     vdW  Elec       q    Type
REMARK                         _______ _______ _______ _____ _____    ______ ____
ROOT
ATOM      1  C   UNL     1       7.118   5.277  15.749  0.00  0.00    +0.000 C 
ATOM      2  C   UNL     1       6.762   4.180  16.762  0.00  0.00    +0.000 C 
ATOM      3  C   UNL     1       5.388   4.581  17.276  0.00  0.00    +0.000 C 
ATOM      4  C   UNL     1       5.201   4.485  18.789  0.00  0.00    +0.000 C 
ATOM      5  N   UNL     1       3.836   4.905  19.036  0.00  0.00    +0.000 N 
ATOM      6  C   UNL     1       3.046   4.198  19.904  0.00  0.00    +0.000 A 
ATOM      7  N   UNL     1       3.553   3.135  20.540  0.00  0.00    +0.000 NA
ATOM      8  C   UNL     1       2.721   2.445  21.343  0.00  0.00    +0.000 A 
ATOM      9  C   UNL     1       1.397   2.753  21.490  0.00  0.00    +0.000 A 
ATOM     10  C   UNL     1       0.964   3.834  20.787  0.00  0.00    +0.000 A 
ATOM     11  N   UNL     1       1.770   4.584  20.018  0.00  0.00    +0.000 NA
ATOM     12  C   UNL     1       3.421   6.227  18.567  0.00  0.00    +0.000 C 
ATOM     13  C   UNL     1       3.960   6.560  17.139  0.00  0.00    +0.000 C 
ATOM     14  N   UNL     1       5.276   5.989  16.865  0.00  0.00    +0.000 NA
ATOM     15  C   UNL     1       5.789   6.024  15.513  0.00  0.00    +0.000 C 
ENDROOT
BRANCH   1  16
ATOM     16  O   UNL     1       7.705   4.724  14.578  0.00  0.00    +0.000 OA
BRANCH  16  17
ATOM     17  C   UNL     1       6.904   5.028  13.432  0.00  0.00    +0.000 C 
BRANCH  17  21
ATOM     18  C   UNL     1       5.761   1.715  11.033  0.00  0.00    +0.000 A 
ATOM     19  C   UNL     1       7.117   1.980  11.184  0.00  0.00    +0.000 A 
ATOM     20  C   UNL     1       7.521   3.052  11.973  0.00  0.00    +0.000 A 
ATOM     21  C   UNL     1       6.549   3.822  12.603  0.00  0.00    +0.000 A 
ATOM     22  N   UNL     1       5.219   3.586  12.448  0.00  0.00    +0.000 NA
ATOM     23  C   UNL     1       4.858   2.542  11.678  0.00  0.00    +0.000 A 
ENDBRANCH  17  21
ENDBRANCH  16  17
ENDBRANCH   1  16
TORSDOF 3
ENDMDL
MODEL 7
REMARK VINA RESULT:      -6.9      4.450      7.312
REMARK  Name = 
REMARK  3 active torsions:
REMARK  status: ('A' for Active; 'I' for Inactive)
REMARK    1  A    between atoms: C_4  and  C_5
REMARK    2  A    between atoms: C_5  and  O_6
REMARK    3  A    between atoms: O_6  and  C_7
REMARK                            x       y       z     vdW  Elec       q    Type
REMARK                         _______ _______ _______ _____ _____    ______ ____
ROOT
ATOM      1  C   UNL     1       1.361   8.686  21.248  0.00  0.00    +0.000 C 
ATOM      2  C   UNL     1       0.381   8.934  22.402  0.00  0.00    +0.000 C 
ATOM      3  C   UNL     1      -0.635   9.906  21.823  0.00  0.00    +0.000 C 
ATOM      4  C   UNL     1      -1.011  11.078  22.729  0.00  0.00    +0.000 C 
ATOM      5  N   UNL     1      -1.981  11.850  21.977  0.00  0.00    +0.000 N 
ATOM      6  C   UNL     1      -3.112  12.317  22.593  0.00  0.00    +0.000 A 
ATOM      7  N   UNL     1      -3.301  12.077  23.895  0.00  0.00    +0.000 NA
ATOM      8  C   UNL     1      -4.453  12.513  24.440  0.00  0.00    +0.000 A 
ATOM      9  C   UNL     1      -5.434  13.133  23.718  0.00  0.00    +0.000 A 
ATOM     10  C   UNL     1      -5.166  13.312  22.396  0.00  0.00    +0.000 A 
ATOM     11  N   UNL     1      -4.009  12.944  21.823  0.00  0.00    +0.000 NA
ATOM     12  C   UNL     1      -1.598  12.346  20.655  0.00  0.00    +0.000 C 
ATOM     13  C   UNL     1      -0.811  11.290  19.816  0.00  0.00    +0.000 C 
ATOM     14  N   UNL     1       0.042  10.422  20.624  0.00  0.00    +0.000 NA
ATOM     15  C   UNL     1       0.645   9.260  20.008  0.00  0.00    +0.000 C 
ENDROOT
BRANCH   1  16
ATOM     16  O   UNL     1       1.704   7.309  21.152  0.00  0.00    +0.000 OA
BRANCH  16  17
ATOM     17  C   UNL     1       2.240   7.022  19.856  0.00  0.00    +0.000 C 
BRANCH  17  21
ATOM     18  C   UNL     1       1.323   3.062  18.627  0.00  0.00    +0.000 A 
ATOM     19  C   UNL     1       1.907   3.918  17.701  0.00  0.00    +0.000 A 
ATOM     20  C   UNL     1       2.229   5.218  18.079  0.00  0.00    +0.000 A 
ATOM     21  C   UNL     1       1.968   5.618  19.385  0.00  0.00    +0.000 A 
ATOM     22  N   UNL     1       1.379   4.797  20.295  0.00  0.00    +0.000 NA
ATOM     23  C   UNL     1       1.078   3.545  19.900  0.00  0.00    +0.000 A 
ENDBRANCH  17  21
ENDBRANCH  16  17
ENDBRANCH   1  16
TORSDOF 3
ENDMDL
MODEL 8
REMARK VINA RESULT:      -6.9      2.224      4.030
REMARK  Name = 
REMARK  3 active torsions:
REMARK  status: ('A' for Active; 'I' for Inactive)
REMARK    1  A    between atoms: C_4  and  C_5
REMARK    2  A    between atoms: C_5  and  O_6
REMARK    3  A    between atoms: O_6  and  C_7
REMARK                            x       y       z     vdW  Elec       q    Type
REMARK                         _______ _______ _______ _____ _____    ______ ____
ROOT
ATOM      1  C   UNL     1       3.005   5.961  19.276  0.00  0.00    +0.000 C 
ATOM      2  C   UNL     1       2.176   6.363  20.504  0.00  0.00    +0.000 C 
ATOM      3  C   UNL     1       1.480   7.646  20.077  0.00  0.00    +0.000 C 
ATOM      4  C   UNL     1       1.497   8.774  21.106  0.00  0.00    +0.000 C 
ATOM      5  N   UNL     1       0.781   9.872  20.487  0.00  0.00    +0.000 N 
ATOM      6  C   UNL     1      -0.142  10.584  21.208  0.00  0.00    +0.000 A 
ATOM      7  N   UNL     1      -0.357  10.274  22.491  0.00  0.00    +0.000 NA
ATOM      8  C   UNL     1      -1.310  10.970  23.141  0.00  0.00    +0.000 A 
ATOM      9  C   UNL     1      -2.082  11.923  22.537  0.00  0.00    +0.000 A 
ATOM     10  C   UNL     1      -1.810  12.153  21.223  0.00  0.00    +0.000 A 
ATOM     11  N   UNL     1      -0.833  11.524  20.552  0.00  0.00    +0.000 NA
ATOM     12  C   UNL     1       1.255  10.370  19.196  0.00  0.00    +0.000 C 
ATOM     13  C   UNL     1       1.668   9.222  18.219  0.00  0.00    +0.000 C 
ATOM     14  N   UNL     1       2.245   8.063  18.892  0.00  0.00    +0.000 NA
ATOM     15  C   UNL     1       2.457   6.846  18.139  0.00  0.00    +0.000 C 
ENDROOT
BRANCH   1  16
ATOM     16  O   UNL     1       2.918   4.561  19.035  0.00  0.00    +0.000 OA
BRANCH  16  17
ATOM     17  C   UNL     1       4.180   3.936  19.291  0.00  0.00    +0.000 C 
BRANCH  17  21
ATOM     18  C   UNL     1       6.872   4.495  16.055  0.00  0.00    +0.000 A 
ATOM     19  C   UNL     1       7.304   4.828  17.333  0.00  0.00    +0.000 A 
ATOM     20  C   UNL     1       6.447   4.645  18.415  0.00  0.00    +0.000 A 
ATOM     21  C   UNL     1       5.182   4.117  18.182  0.00  0.00    +0.000 A 
ATOM     22  N   UNL     1       4.740   3.805  16.935  0.00  0.00    +0.000 NA
ATOM     23  C   UNL     1       5.591   3.994  15.907  0.00  0.00    +0.000 A 
ENDBRANCH  17  21
ENDBRANCH  16  17
ENDBRANCH   1  16
TORSDOF 3
ENDMDL
MODEL 9
REMARK VINA RESULT:      -6.9      3.353      4.337
REMARK  Name = 
REMARK  3 active torsions:
REMARK  status: ('A' for Active; 'I' for Inactive)
REMARK    1  A    between atoms: C_4  and  C_5
REMARK    2  A    between atoms: C_5  and  O_6
REMARK    3  A    between atoms: O_6  and  C_7
REMARK                            x       y       z     vdW  Elec       q    Type
REMARK                         _______ _______ _______ _____ _____    ______ ____
ROOT
ATOM      1  C   UNL     1       6.816   4.763  14.817  0.00  0.00    +0.000 C 
ATOM      2  C   UNL     1       5.387   4.236  15.009  0.00  0.00    +0.000 C 
ATOM      3  C   UNL     1       5.098   4.479  16.483  0.00  0.00    +0.000 C 
ATOM      4  C   UNL     1       4.433   3.318  17.220  0.00  0.00    +0.000 C 
ATOM      5  N   UNL     1       4.254   3.779  18.582  0.00  0.00    +0.000 N 
ATOM      6  C   UNL     1       3.071   3.554  19.234  0.00  0.00    +0.000 A 
ATOM      7  N   UNL     1       2.093   2.884  18.612  0.00  0.00    +0.000 NA
ATOM      8  C   UNL     1       0.931   2.734  19.278  0.00  0.00    +0.000 A 
ATOM      9  C   UNL     1       0.703   3.271  20.514  0.00  0.00    +0.000 A 
ATOM     10  C   UNL     1       1.745   3.956  21.058  0.00  0.00    +0.000 A 
ATOM     11  N   UNL     1       2.938   4.083  20.456  0.00  0.00    +0.000 NA
ATOM     12  C   UNL     1       5.433   4.228  19.323  0.00  0.00    +0.000 C 
ATOM     13  C   UNL     1       6.396   5.102  18.457  0.00  0.00    +0.000 C 
ATOM     14  N   UNL     1       6.435   4.709  17.052  0.00  0.00    +0.000 NA
ATOM     15  C   UNL     1       7.101   5.570  16.100  0.00  0.00    +0.000 C 
ENDROOT
BRANCH   1  16
ATOM     16  O   UNL     1       6.930   5.506  13.609  0.00  0.00    +0.000 OA
BRANCH  16  17
ATOM     17  C   UNL     1       7.678   4.764  12.641  0.00  0.00    +0.000 C 
BRANCH  17  21
ATOM     18  C   UNL     1       5.640   1.418  11.000  0.00  0.00    +0.000 A 
ATOM     19  C   UNL     1       4.883   2.500  11.434  0.00  0.00    +0.000 A 
ATOM     20  C   UNL     1       5.525   3.615  11.966  0.00  0.00    +0.000 A 
ATOM     21  C   UNL     1       6.914   3.618  12.033  0.00  0.00    +0.000 A 
ATOM     22  N   UNL     1       7.666   2.558  11.630  0.00  0.00    +0.000 NA
ATOM     23  C   UNL     1       7.017   1.493  11.121  0.00  0.00    +0.000 A 
ENDBRANCH  17  21
ENDBRANCH  16  17
ENDBRANCH   1  16
TORSDOF 3
ENDMDL
