MODEL 1
REMARK VINA RESULT:      -7.3      0.000      0.000
REMARK  Name = 
REMARK  12 active torsions:
REMARK  status: ('A' for Active; 'I' for Inactive)
REMARK    1  A    between atoms: C_1  and  C_2
REMARK    2  A    between atoms: C_2  and  N_3
REMARK    3  A    between atoms: N_3  and  C_4
REMARK    4  A    between atoms: N_3  and  C_6
REMARK    5  A    between atoms: N_3  and  C_8
REMARK    6  A    between atoms: C_4  and  C_5
REMARK    7  A    between atoms: C_6  and  C_7
REMARK    8  A    between atoms: C_8  and  C_9
REMARK    9  A    between atoms: C_9  and  O_10
REMARK   10  A    between atoms: O_10  and  C_11
REMARK   11  A    between atoms: C_14  and  C_15
REMARK   12  A    between atoms: C_16  and  C_17
REMARK                            x       y       z     vdW  Elec       q    Type
REMARK                         _______ _______ _______ _____ _____    ______ ____
ROOT
ATOM      1  C   UNL     1       6.013   4.927  17.207  0.00  0.00    +0.000 A 
ATOM      2  C   UNL     1       5.828   6.209  16.639  0.00  0.00    +0.000 A 
ATOM      3  C   UNL     1       6.587   7.292  17.058  0.00  0.00    +0.000 A 
ATOM      4  C   UNL     1       7.552   7.137  18.065  0.00  0.00    +0.000 A 
ATOM      5  C   UNL     1       7.713   5.870  18.659  0.00  0.00    +0.000 A 
ATOM      6  C   UNL     1       6.947   4.778  18.236  0.00  0.00    +0.000 A 
ENDROOT
BRANCH   4   7
ATOM      7  C   UNL     1       8.434   8.248  18.511  0.00  0.00    +0.000 C 
ATOM      8  C   UNL     1       8.330   9.526  18.086  0.00  0.00    +0.000 C 
BRANCH   8   9
ATOM      9  C   UNL     1       9.224  10.633  18.517  0.00  0.00    +0.000 A 
ATOM     10  C   UNL     1       9.582  11.708  17.676  0.00  0.00    +0.000 A 
ATOM     11  C   UNL     1      10.428  12.718  18.139  0.00  0.00    +0.000 A 
ATOM     12  C   UNL     1      10.927  12.675  19.437  0.00  0.00    +0.000 A 
ATOM     13  C   UNL     1      10.579  11.619  20.284  0.00  0.00    +0.000 A 
ATOM     14  C   UNL     1       9.730  10.604  19.830  0.00  0.00    +0.000 A 
ENDBRANCH   8   9
ENDBRANCH   4   7
BRANCH   1  15
ATOM     15  O   UNL     1       5.351   3.830  16.737  0.00  0.00    +0.000 OA
BRANCH  15  16
ATOM     16  C   UNL     1       3.999   3.884  16.457  0.00  0.00    +0.000 C 
BRANCH  16  17
ATOM     17  C   UNL     1       3.129   3.107  17.464  0.00  0.00    +0.000 C 
BRANCH  17  18
ATOM     18  N   UNL     1       2.669   3.936  18.643  0.00  0.00    +0.000 N 
BRANCH  18  20
ATOM     19  C   UNL     1       1.062   3.370  20.581  0.00  0.00    +0.000 C 
ATOM     20  C   UNL     1       1.280   3.531  19.064  0.00  0.00    +0.000 C 
ENDBRANCH  18  20
BRANCH  18  21
ATOM     21  C   UNL     1       2.708   5.377  18.221  0.00  0.00    +0.000 C 
ATOM     22  C   UNL     1       2.979   6.394  19.350  0.00  0.00    +0.000 C 
ENDBRANCH  18  21
BRANCH  18  23
ATOM     23  C   UNL     1       3.561   3.723  19.846  0.00  0.00    +0.000 C 
ATOM     24  C   UNL     1       4.454   2.464  19.814  0.00  0.00    +0.000 C 
ENDBRANCH  18  23
ENDBRANCH  17  18
ENDBRANCH  16  17
ENDBRANCH  15  16
ENDBRANCH   1  15
TORSDOF 9
ENDMDL
MODEL 2
REMARK VINA RESULT:      -7.3      0.563      1.975
REMARK  Name = 
REMARK  12 active torsions:
REMARK  status: ('A' for Active; 'I' for Inactive)
REMARK    1  A    between atoms: C_1  and  C_2
REMARK    2  A    between atoms: C_2  and  N_3
REMARK    3  A    between atoms: N_3  and  C_4
REMARK    4  A    between atoms: N_3  and  C_6
REMARK    5  A    between atoms: N_3  and  C_8
REMARK    6  A    between atoms: C_4  and  C_5
REMARK    7  A    between atoms: C_6  and  C_7
REMARK    8  A    between atoms: C_8  and  C_9
REMARK    9  A    between atoms: C_9  and  O_10
REMARK   10  A    between atoms: O_10  and  C_11
REMARK   11  A    between atoms: C_14  and  C_15
REMARK   12  A    between atoms: C_16  and  C_17
REMARK                            x       y       z     vdW  Elec       q    Type
REMARK                         _______ _______ _______ _____ _____    ______ ____
ROOT
ATOM      1  C   UNL     1       6.307   4.873  17.016  0.00  0.00    +0.000 A 
ATOM      2  C   UNL     1       7.283   4.699  18.024  0.00  0.00    +0.000 A 
ATOM      3  C   UNL     1       7.968   5.784  18.551  0.00  0.00    +0.000 A 
ATOM      4  C   UNL     1       7.709   7.082  18.086  0.00  0.00    +0.000 A 
ATOM      5  C   UNL     1       6.764   7.256  17.056  0.00  0.00    +0.000 A 
ATOM      6  C   UNL     1       6.074   6.161  16.525  0.00  0.00    +0.000 A 
ENDROOT
BRANCH   4   7
ATOM      7  C   UNL     1       8.369   8.287  18.656  0.00  0.00    +0.000 C 
ATOM      8  C   UNL     1       8.432   9.489  18.042  0.00  0.00    +0.000 C 
BRANCH   8   9
ATOM      9  C   UNL     1       9.110  10.687  18.603  0.00  0.00    +0.000 A 
ATOM     10  C   UNL     1       9.196  11.917  17.917  0.00  0.00    +0.000 A 
ATOM     11  C   UNL     1       9.847  13.007  18.498  0.00  0.00    +0.000 A 
ATOM     12  C   UNL     1      10.419  12.892  19.760  0.00  0.00    +0.000 A 
ATOM     13  C   UNL     1      10.340  11.681  20.455  0.00  0.00    +0.000 A 
ATOM     14  C   UNL     1       9.686  10.585  19.882  0.00  0.00    +0.000 A 
ENDBRANCH   8   9
ENDBRANCH   4   7
BRANCH   1  15
ATOM     15  O   UNL     1       5.550   3.833  16.559  0.00  0.00    +0.000 OA
BRANCH  15  16
ATOM     16  C   UNL     1       4.188   3.976  16.375  0.00  0.00    +0.000 C 
BRANCH  16  17
ATOM     17  C   UNL     1       3.342   3.171  17.380  0.00  0.00    +0.000 C 
BRANCH  17  18
ATOM     18  N   UNL     1       2.637   4.027  18.410  0.00  0.00    +0.000 N 
BRANCH  18  20
ATOM     19  C   UNL     1       4.423   2.832  19.838  0.00  0.00    +0.000 C 
ATOM     20  C   UNL     1       3.256   3.835  19.770  0.00  0.00    +0.000 C 
ENDBRANCH  18  20
BRANCH  18  21
ATOM     21  C   UNL     1       1.190   3.626  18.413  0.00  0.00    +0.000 C 
ATOM     22  C   UNL     1       0.904   2.168  18.834  0.00  0.00    +0.000 C 
ENDBRANCH  18  21
BRANCH  18  23
ATOM     23  C   UNL     1       2.767   5.499  18.084  0.00  0.00    +0.000 C 
ATOM     24  C   UNL     1       3.440   6.375  19.161  0.00  0.00    +0.000 C 
ENDBRANCH  18  23
ENDBRANCH  17  18
ENDBRANCH  16  17
ENDBRANCH  15  16
ENDBRANCH   1  15
TORSDOF 9
ENDMDL
MODEL 3
REMARK VINA RESULT:      -7.2      0.545      2.185
REMARK  Name = 
REMARK  12 active torsions:
REMARK  status: ('A' for Active; 'I' for Inactive)
REMARK    1  A    between atoms: C_1  and  C_2
REMARK    2  A    between atoms: C_2  and  N_3
REMARK    3  A    between atoms: N_3  and  C_4
REMARK    4  A    between atoms: N_3  and  C_6
REMARK    5  A    between atoms: N_3  and  C_8
REMARK    6  A    between atoms: C_4  and  C_5
REMARK    7  A    between atoms: C_6  and  C_7
REMARK    8  A    between atoms: C_8  and  C_9
REMARK    9  A    between atoms: C_9  and  O_10
REMARK   10  A    between atoms: O_10  and  C_11
REMARK   11  A    between atoms: C_14  and  C_15
REMARK   12  A    between atoms: C_16  and  C_17
REMARK                            x       y       z     vdW  Elec       q    Type
REMARK                         _______ _______ _______ _____ _____    ______ ____
ROOT
ATOM      1  C   UNL     1       5.938   5.068  16.752  0.00  0.00    +0.000 A 
ATOM      2  C   UNL     1       6.911   4.714  17.715  0.00  0.00    +0.000 A 
ATOM      3  C   UNL     1       7.708   5.678  18.314  0.00  0.00    +0.000 A 
ATOM      4  C   UNL     1       7.567   7.031  17.968  0.00  0.00    +0.000 A 
ATOM      5  C   UNL     1       6.625   7.384  16.983  0.00  0.00    +0.000 A 
ATOM      6  C   UNL     1       5.822   6.409  16.378  0.00  0.00    +0.000 A 
ENDROOT
BRANCH   4   7
ATOM      7  C   UNL     1       8.351   8.114  18.621  0.00  0.00    +0.000 C 
ATOM      8  C   UNL     1       8.503   9.359  18.119  0.00  0.00    +0.000 C 
BRANCH   8   9
ATOM      9  C   UNL     1       9.304  10.434  18.762  0.00  0.00    +0.000 A 
ATOM     10  C   UNL     1       9.365  10.622  20.159  0.00  0.00    +0.000 A 
ATOM     11  C   UNL     1      10.135  11.651  20.702  0.00  0.00    +0.000 A 
ATOM     12  C   UNL     1      10.852  12.505  19.870  0.00  0.00    +0.000 A 
ATOM     13  C   UNL     1      10.806  12.332  18.484  0.00  0.00    +0.000 A 
ATOM     14  C   UNL     1      10.039  11.300  17.931  0.00  0.00    +0.000 A 
ENDBRANCH   8   9
ENDBRANCH   4   7
BRANCH   1  15
ATOM     15  O   UNL     1       5.076   4.148  16.228  0.00  0.00    +0.000 OA
BRANCH  15  16
ATOM     16  C   UNL     1       4.521   3.164  17.024  0.00  0.00    +0.000 C 
BRANCH  16  17
ATOM     17  C   UNL     1       3.016   3.360  17.289  0.00  0.00    +0.000 C 
BRANCH  17  18
ATOM     18  N   UNL     1       2.686   3.698  18.726  0.00  0.00    +0.000 N 
BRANCH  18  20
ATOM     19  C   UNL     1       4.201   2.343  20.316  0.00  0.00    +0.000 C 
ATOM     20  C   UNL     1       3.931   3.666  19.575  0.00  0.00    +0.000 C 
ENDBRANCH  18  20
BRANCH  18  21
ATOM     21  C   UNL     1       1.679   2.692  19.205  0.00  0.00    +0.000 C 
ATOM     22  C   UNL     1       0.663   3.210  20.245  0.00  0.00    +0.000 C 
ENDBRANCH  18  21
BRANCH  18  23
ATOM     23  C   UNL     1       2.121   5.096  18.846  0.00  0.00    +0.000 C 
ATOM     24  C   UNL     1       3.152   6.233  19.009  0.00  0.00    +0.000 C 
ENDBRANCH  18  23
ENDBRANCH  17  18
ENDBRANCH  16  17
ENDBRANCH  15  16
ENDBRANCH   1  15
TORSDOF 9
ENDMDL
MODEL 4
REMARK VINA RESULT:      -7.2      1.096      2.146
REMARK  Name = 
REMARK  12 active torsions:
REMARK  status: ('A' for Active; 'I' for Inactive)
REMARK    1  A    between atoms: C_1  and  C_2
REMARK    2  A    between atoms: C_2  and  N_3
REMARK    3  A    between atoms: N_3  and  C_4
REMARK    4  A    between atoms: N_3  and  C_6
REMARK    5  A    between atoms: N_3  and  C_8
REMARK    6  A    between atoms: C_4  and  C_5
REMARK    7  A    between atoms: C_6  and  C_7
REMARK    8  A    between atoms: C_8  and  C_9
REMARK    9  A    between atoms: C_9  and  O_10
REMARK   10  A    between atoms: O_10  and  C_11
REMARK   11  A    between atoms: C_14  and  C_15
REMARK   12  A    between atoms: C_16  and  C_17
REMARK                            x       y       z     vdW  Elec       q    Type
REMARK                         _______ _______ _______ _____ _____    ______ ____
ROOT
ATOM      1  C   UNL     1       6.305   5.476  18.042  0.00  0.00    +0.000 A 
ATOM      2  C   UNL     1       5.876   6.540  17.215  0.00  0.00    +0.000 A 
ATOM      3  C   UNL     1       6.581   7.734  17.163  0.00  0.00    +0.000 A 
ATOM      4  C   UNL     1       7.737   7.911  17.940  0.00  0.00    +0.000 A 
ATOM      5  C   UNL     1       8.146   6.867  18.792  0.00  0.00    +0.000 A 
ATOM      6  C   UNL     1       7.434   5.664  18.844  0.00  0.00    +0.000 A 
ENDROOT
BRANCH   4   7
ATOM      7  C   UNL     1       8.565   9.145  17.879  0.00  0.00    +0.000 C 
ATOM      8  C   UNL     1       9.002   9.828  18.960  0.00  0.00    +0.000 C 
BRANCH   8   9
ATOM      9  C   UNL     1       9.812  11.073  18.898  0.00  0.00    +0.000 A 
ATOM     10  C   UNL     1      10.771  11.420  19.874  0.00  0.00    +0.000 A 
ATOM     11  C   UNL     1      11.500  12.604  19.760  0.00  0.00    +0.000 A 
ATOM     12  C   UNL     1      11.290  13.457  18.682  0.00  0.00    +0.000 A 
ATOM     13  C   UNL     1      10.347  13.128  17.704  0.00  0.00    +0.000 A 
ATOM     14  C   UNL     1       9.614  11.940  17.808  0.00  0.00    +0.000 A 
ENDBRANCH   8   9
ENDBRANCH   4   7
BRANCH   1  15
ATOM     15  O   UNL     1       5.685   4.260  18.028  0.00  0.00    +0.000 OA
BRANCH  15  16
ATOM     16  C   UNL     1       5.115   3.743  19.176  0.00  0.00    +0.000 C 
BRANCH  16  17
ATOM     17  C   UNL     1       3.926   4.571  19.701  0.00  0.00    +0.000 C 
BRANCH  17  18
ATOM     18  N   UNL     1       2.575   3.956  19.409  0.00  0.00    +0.000 N 
BRANCH  18  20
ATOM     19  C   UNL     1       2.314   6.107  18.009  0.00  0.00    +0.000 C 
ATOM     20  C   UNL     1       1.931   4.631  18.226  0.00  0.00    +0.000 C 
ENDBRANCH  18  20
BRANCH  18  21
ATOM     21  C   UNL     1       1.735   4.110  20.644  0.00  0.00    +0.000 C 
ATOM     22  C   UNL     1       1.914   3.011  21.714  0.00  0.00    +0.000 C 
ENDBRANCH  18  21
BRANCH  18  23
ATOM     23  C   UNL     1       2.704   2.491  19.049  0.00  0.00    +0.000 C 
ATOM     24  C   UNL     1       2.313   2.111  17.605  0.00  0.00    +0.000 C 
ENDBRANCH  18  23
ENDBRANCH  17  18
ENDBRANCH  16  17
ENDBRANCH  15  16
ENDBRANCH   1  15
TORSDOF 9
ENDMDL
MODEL 5
REMARK VINA RESULT:      -7.1      1.070      2.476
REMARK  Name = 
REMARK  12 active torsions:
REMARK  status: ('A' for Active; 'I' for Inactive)
REMARK    1  A    between atoms: C_1  and  C_2
REMARK    2  A    between atoms: C_2  and  N_3
REMARK    3  A    between atoms: N_3  and  C_4
REMARK    4  A    between atoms: N_3  and  C_6
REMARK    5  A    between atoms: N_3  and  C_8
REMARK    6  A    between atoms: C_4  and  C_5
REMARK    7  A    between atoms: C_6  and  C_7
REMARK    8  A    between atoms: C_8  and  C_9
REMARK    9  A    between atoms: C_9  and  O_10
REMARK   10  A    between atoms: O_10  and  C_11
REMARK   11  A    between atoms: C_14  and  C_15
REMARK   12  A    between atoms: C_16  and  C_17
REMARK                            x       y       z     vdW  Elec       q    Type
REMARK                         _______ _______ _______ _____ _____    ______ ____
ROOT
ATOM      1  C   UNL     1       6.096   5.240  18.029  0.00  0.00    +0.000 A 
ATOM      2  C   UNL     1       7.288   5.450  18.759  0.00  0.00    +0.000 A 
ATOM      3  C   UNL     1       7.991   6.641  18.653  0.00  0.00    +0.000 A 
ATOM      4  C   UNL     1       7.533   7.664  17.808  0.00  0.00    +0.000 A 
ATOM      5  C   UNL     1       6.366   7.445  17.051  0.00  0.00    +0.000 A 
ATOM      6  C   UNL     1       5.658   6.242  17.158  0.00  0.00    +0.000 A 
ENDROOT
BRANCH   4   7
ATOM      7  C   UNL     1       8.212   8.983  17.701  0.00  0.00    +0.000 C 
ATOM      8  C   UNL     1       8.828   9.612  18.726  0.00  0.00    +0.000 C 
BRANCH   8   9
ATOM      9  C   UNL     1       9.489  10.939  18.624  0.00  0.00    +0.000 A 
ATOM     10  C   UNL     1      10.731  11.232  19.226  0.00  0.00    +0.000 A 
ATOM     11  C   UNL     1      11.301  12.499  19.095  0.00  0.00    +0.000 A 
ATOM     12  C   UNL     1      10.650  13.489  18.367  0.00  0.00    +0.000 A 
ATOM     13  C   UNL     1       9.420  13.216  17.761  0.00  0.00    +0.000 A 
ATOM     14  C   UNL     1       8.844  11.947  17.885  0.00  0.00    +0.000 A 
ENDBRANCH   8   9
ENDBRANCH   4   7
BRANCH   1  15
ATOM     15  O   UNL     1       5.336   4.119  18.197  0.00  0.00    +0.000 OA
BRANCH  15  16
ATOM     16  C   UNL     1       5.056   3.636  19.461  0.00  0.00    +0.000 C 
BRANCH  16  17
ATOM     17  C   UNL     1       3.603   3.152  19.630  0.00  0.00    +0.000 C 
BRANCH  17  18
ATOM     18  N   UNL     1       2.618   4.262  19.922  0.00  0.00    +0.000 N 
BRANCH  18  20
ATOM     19  C   UNL     1       2.566   6.766  19.304  0.00  0.00    +0.000 C 
ATOM     20  C   UNL     1       3.319   5.595  19.962  0.00  0.00    +0.000 C 
ENDBRANCH  18  20
BRANCH  18  21
ATOM     21  C   UNL     1       1.971   3.952  21.241  0.00  0.00    +0.000 C 
ATOM     22  C   UNL     1       1.406   2.523  21.387  0.00  0.00    +0.000 C 
ENDBRANCH  18  21
BRANCH  18  23
ATOM     23  C   UNL     1       1.566   4.363  18.839  0.00  0.00    +0.000 C 
ATOM     24  C   UNL     1       1.888   3.644  17.512  0.00  0.00    +0.000 C 
ENDBRANCH  18  23
ENDBRANCH  17  18
ENDBRANCH  16  17
ENDBRANCH  15  16
ENDBRANCH   1  15
TORSDOF 9
ENDMDL
MODEL 6
REMARK VINA RESULT:      -7.1      0.850      2.019
REMARK  Name = 
REMARK  12 active torsions:
REMARK  status: ('A' for Active; 'I' for Inactive)
REMARK    1  A    between atoms: C_1  and  C_2
REMARK    2  A    between atoms: C_2  and  N_3
REMARK    3  A    between atoms: N_3  and  C_4
REMARK    4  A    between atoms: N_3  and  C_6
REMARK    5  A    between atoms: N_3  and  C_8
REMARK    6  A    between atoms: C_4  and  C_5
REMARK    7  A    between atoms: C_6  and  C_7
REMARK    8  A    between atoms: C_8  and  C_9
REMARK    9  A    between atoms: C_9  and  O_10
REMARK   10  A    between atoms: O_10  and  C_11
REMARK   11  A    between atoms: C_14  and  C_15
REMARK   12  A    between atoms: C_16  and  C_17
REMARK                            x       y       z     vdW  Elec       q    Type
REMARK                         _______ _______ _______ _____ _____    ______ ____
ROOT
ATOM      1  C   UNL     1       6.139   5.050  17.204  0.00  0.00    +0.000 A 
ATOM      2  C   UNL     1       6.047   6.342  16.637  0.00  0.00    +0.000 A 
ATOM      3  C   UNL     1       6.828   7.387  17.108  0.00  0.00    +0.000 A 
ATOM      4  C   UNL     1       7.725   7.182  18.168  0.00  0.00    +0.000 A 
ATOM      5  C   UNL     1       7.793   5.907  18.760  0.00  0.00    +0.000 A 
ATOM      6  C   UNL     1       7.004   4.853  18.284  0.00  0.00    +0.000 A 
ENDROOT
BRANCH   4   7
ATOM      7  C   UNL     1       8.629   8.250  18.673  0.00  0.00    +0.000 C 
ATOM      8  C   UNL     1       8.559   9.549  18.308  0.00  0.00    +0.000 C 
BRANCH   8   9
ATOM      9  C   UNL     1       9.475  10.612  18.798  0.00  0.00    +0.000 A 
ATOM     10  C   UNL     1       9.629  10.930  20.164  0.00  0.00    +0.000 A 
ATOM     11  C   UNL     1      10.506  11.941  20.561  0.00  0.00    +0.000 A 
ATOM     12  C   UNL     1      11.238  12.647  19.612  0.00  0.00    +0.000 A 
ATOM     13  C   UNL     1      11.100  12.344  18.255  0.00  0.00    +0.000 A 
ATOM     14  C   UNL     1      10.226  11.329  17.848  0.00  0.00    +0.000 A 
ENDBRANCH   8   9
ENDBRANCH   4   7
BRANCH   1  15
ATOM     15  O   UNL     1       5.457   3.987  16.688  0.00  0.00    +0.000 OA
BRANCH  15  16
ATOM     16  C   UNL     1       4.116   3.803  16.965  0.00  0.00    +0.000 C 
BRANCH  16  17
ATOM     17  C   UNL     1       3.835   2.602  17.888  0.00  0.00    +0.000 C 
BRANCH  17  18
ATOM     18  N   UNL     1       2.853   2.900  18.999  0.00  0.00    +0.000 N 
BRANCH  18  20
ATOM     19  C   UNL     1       4.843   1.940  20.332  0.00  0.00    +0.000 C 
ATOM     20  C   UNL     1       3.497   2.688  20.345  0.00  0.00    +0.000 C 
ENDBRANCH  18  20
BRANCH  18  21
ATOM     21  C   UNL     1       1.674   1.987  18.814  0.00  0.00    +0.000 C 
ATOM     22  C   UNL     1       0.291   2.672  18.844  0.00  0.00    +0.000 C 
ENDBRANCH  18  21
BRANCH  18  23
ATOM     23  C   UNL     1       2.402   4.344  18.962  0.00  0.00    +0.000 C 
ATOM     24  C   UNL     1       2.393   5.086  20.315  0.00  0.00    +0.000 C 
ENDBRANCH  18  23
ENDBRANCH  17  18
ENDBRANCH  16  17
ENDBRANCH  15  16
ENDBRANCH   1  15
TORSDOF 9
ENDMDL
MODEL 7
REMARK VINA RESULT:      -7.0      0.819      1.329
REMARK  Name = 
REMARK  12 active torsions:
REMARK  status: ('A' for Active; 'I' for Inactive)
REMARK    1  A    between atoms: C_1  and  C_2
REMARK    2  A    between atoms: C_2  and  N_3
REMARK    3  A    between atoms: N_3  and  C_4
REMARK    4  A    between atoms: N_3  and  C_6
REMARK    5  A    between atoms: N_3  and  C_8
REMARK    6  A    between atoms: C_4  and  C_5
REMARK    7  A    between atoms: C_6  and  C_7
REMARK    8  A    between atoms: C_8  and  C_9
REMARK    9  A    between atoms: C_9  and  O_10
REMARK   10  A    between atoms: O_10  and  C_11
REMARK   11  A    between atoms: C_14  and  C_15
REMARK   12  A    between atoms: C_16  and  C_17
REMARK                            x       y       z     vdW  Elec       q    Type
REMARK                         _______ _______ _______ _____ _____    ______ ____
ROOT
ATOM      1  C   UNL     1       6.010   5.161  17.435  0.00  0.00    +0.000 A 
ATOM      2  C   UNL     1       7.213   5.186  18.178  0.00  0.00    +0.000 A 
ATOM      3  C   UNL     1       7.954   6.352  18.300  0.00  0.00    +0.000 A 
ATOM      4  C   UNL     1       7.524   7.535  17.678  0.00  0.00    +0.000 A 
ATOM      5  C   UNL     1       6.347   7.506  16.907  0.00  0.00    +0.000 A 
ATOM      6  C   UNL     1       5.600   6.328  16.784  0.00  0.00    +0.000 A 
ENDROOT
BRANCH   4   7
ATOM      7  C   UNL     1       8.246   8.828  17.825  0.00  0.00    +0.000 C 
ATOM      8  C   UNL     1       8.783   9.278  18.980  0.00  0.00    +0.000 C 
BRANCH   8   9
ATOM      9  C   UNL     1       9.487  10.579  19.130  0.00  0.00    +0.000 A 
ATOM     10  C   UNL     1       9.858  11.388  18.035  0.00  0.00    +0.000 A 
ATOM     11  C   UNL     1      10.519  12.599  18.242  0.00  0.00    +0.000 A 
ATOM     12  C   UNL     1      10.819  13.024  19.532  0.00  0.00    +0.000 A 
ATOM     13  C   UNL     1      10.456  12.237  20.629  0.00  0.00    +0.000 A 
ATOM     14  C   UNL     1       9.790  11.022  20.431  0.00  0.00    +0.000 A 
ENDBRANCH   8   9
ENDBRANCH   4   7
BRANCH   1  15
ATOM     15  O   UNL     1       5.214   4.053  17.389  0.00  0.00    +0.000 OA
BRANCH  15  16
ATOM     16  C   UNL     1       3.838   4.169  17.377  0.00  0.00    +0.000 C 
BRANCH  16  17
ATOM     17  C   UNL     1       3.119   3.082  18.200  0.00  0.00    +0.000 C 
BRANCH  17  18
ATOM     18  N   UNL     1       2.690   3.540  19.576  0.00  0.00    +0.000 N 
BRANCH  18  20
ATOM     19  C   UNL     1       0.508   2.394  18.813  0.00  0.00    +0.000 C 
ATOM     20  C   UNL     1       1.196   3.423  19.730  0.00  0.00    +0.000 C 
ENDBRANCH  18  20
BRANCH  18  21
ATOM     21  C   UNL     1       3.140   4.964  19.736  0.00  0.00    +0.000 C 
ATOM     22  C   UNL     1       2.044   5.965  20.161  0.00  0.00    +0.000 C 
ENDBRANCH  18  21
BRANCH  18  23
ATOM     23  C   UNL     1       3.301   2.678  20.658  0.00  0.00    +0.000 C 
ATOM     24  C   UNL     1       4.664   2.036  20.325  0.00  0.00    +0.000 C 
ENDBRANCH  18  23
ENDBRANCH  17  18
ENDBRANCH  16  17
ENDBRANCH  15  16
ENDBRANCH   1  15
TORSDOF 9
ENDMDL
MODEL 8
REMARK VINA RESULT:      -7.0      1.012      1.758
REMARK  Name = 
REMARK  12 active torsions:
REMARK  status: ('A' for Active; 'I' for Inactive)
REMARK    1  A    between atoms: C_1  and  C_2
REMARK    2  A    between atoms: C_2  and  N_3
REMARK    3  A    between atoms: N_3  and  C_4
REMARK    4  A    between atoms: N_3  and  C_6
REMARK    5  A    between atoms: N_3  and  C_8
REMARK    6  A    between atoms: C_4  and  C_5
REMARK    7  A    between atoms: C_6  and  C_7
REMARK    8  A    between atoms: C_8  and  C_9
REMARK    9  A    between atoms: C_9  and  O_10
REMARK   10  A    between atoms: O_10  and  C_11
REMARK   11  A    between atoms: C_14  and  C_15
REMARK   12  A    between atoms: C_16  and  C_17
REMARK                            x       y       z     vdW  Elec       q    Type
REMARK                         _______ _______ _______ _____ _____    ______ ____
ROOT
ATOM      1  C   UNL     1       6.504   5.378  18.296  0.00  0.00    +0.000 A 
ATOM      2  C   UNL     1       5.973   6.340  17.406  0.00  0.00    +0.000 A 
ATOM      3  C   UNL     1       6.571   7.583  17.257  0.00  0.00    +0.000 A 
ATOM      4  C   UNL     1       7.716   7.914  17.998  0.00  0.00    +0.000 A 
ATOM      5  C   UNL     1       8.226   6.973  18.913  0.00  0.00    +0.000 A 
ATOM      6  C   UNL     1       7.622   5.719  19.063  0.00  0.00    +0.000 A 
ENDROOT
BRANCH   4   7
ATOM      7  C   UNL     1       8.432   9.208  17.835  0.00  0.00    +0.000 C 
ATOM      8  C   UNL     1       9.103   9.841  18.822  0.00  0.00    +0.000 C 
BRANCH   8   9
ATOM      9  C   UNL     1       9.802  11.144  18.664  0.00  0.00    +0.000 A 
ATOM     10  C   UNL     1      11.029  11.443  19.292  0.00  0.00    +0.000 A 
ATOM     11  C   UNL     1      11.636  12.686  19.105  0.00  0.00    +0.000 A 
ATOM     12  C   UNL     1      11.035  13.645  18.297  0.00  0.00    +0.000 A 
ATOM     13  C   UNL     1       9.820  13.365  17.665  0.00  0.00    +0.000 A 
ATOM     14  C   UNL     1       9.207  12.120  17.843  0.00  0.00    +0.000 A 
ENDBRANCH   8   9
ENDBRANCH   4   7
BRANCH   1  15
ATOM     15  O   UNL     1       5.994   4.115  18.380  0.00  0.00    +0.000 OA
BRANCH  15  16
ATOM     16  C   UNL     1       4.671   3.864  18.071  0.00  0.00    +0.000 C 
BRANCH  16  17
ATOM     17  C   UNL     1       3.761   3.735  19.308  0.00  0.00    +0.000 C 
BRANCH  17  18
ATOM     18  N   UNL     1       2.349   4.228  19.082  0.00  0.00    +0.000 N 
BRANCH  18  20
ATOM     19  C   UNL     1       2.169   1.789  18.260  0.00  0.00    +0.000 C 
ATOM     20  C   UNL     1       1.537   3.191  18.351  0.00  0.00    +0.000 C 
ENDBRANCH  18  20
BRANCH  18  21
ATOM     21  C   UNL     1       2.438   5.502  18.291  0.00  0.00    +0.000 C 
ATOM     22  C   UNL     1       2.653   6.787  19.120  0.00  0.00    +0.000 C 
ENDBRANCH  18  21
BRANCH  18  23
ATOM     23  C   UNL     1       1.639   4.481  20.394  0.00  0.00    +0.000 C 
ATOM     24  C   UNL     1       1.349   3.236  21.260  0.00  0.00    +0.000 C 
ENDBRANCH  18  23
ENDBRANCH  17  18
ENDBRANCH  16  17
ENDBRANCH  15  16
ENDBRANCH   1  15
TORSDOF 9
ENDMDL
MODEL 9
REMARK VINA RESULT:      -7.0      0.635      1.512
REMARK  Name = 
REMARK  12 active torsions:
REMARK  status: ('A' for Active; 'I' for Inactive)
REMARK    1  A    between atoms: C_1  and  C_2
REMARK    2  A    between atoms: C_2  and  N_3
REMARK    3  A    between atoms: N_3  and  C_4
REMARK    4  A    between atoms: N_3  and  C_6
REMARK    5  A    between atoms: N_3  and  C_8
REMARK    6  A    between atoms: C_4  and  C_5
REMARK    7  A    between atoms: C_6  and  C_7
REMARK    8  A    between atoms: C_8  and  C_9
REMARK    9  A    between atoms: C_9  and  O_10
REMARK   10  A    between atoms: O_10  and  C_11
REMARK   11  A    between atoms: C_14  and  C_15
REMARK   12  A    between atoms: C_16  and  C_17
REMARK                            x       y       z     vdW  Elec       q    Type
REMARK                         _______ _______ _______ _____ _____    ______ ____
ROOT
ATOM      1  C   UNL     1       5.759   4.978  16.502  0.00  0.00    +0.000 A 
ATOM      2  C   UNL     1       6.883   4.659  17.300  0.00  0.00    +0.000 A 
ATOM      3  C   UNL     1       7.651   5.656  17.883  0.00  0.00    +0.000 A 
ATOM      4  C   UNL     1       7.330   7.008  17.686  0.00  0.00    +0.000 A 
ATOM      5  C   UNL     1       6.234   7.330  16.862  0.00  0.00    +0.000 A 
ATOM      6  C   UNL     1       5.460   6.324  16.273  0.00  0.00    +0.000 A 
ENDROOT
BRANCH   4   7
ATOM      7  C   UNL     1       8.081   8.116  18.335  0.00  0.00    +0.000 C 
ATOM      8  C   UNL     1       8.194   9.364  17.829  0.00  0.00    +0.000 C 
BRANCH   8   9
ATOM      9  C   UNL     1       8.961  10.465  18.468  0.00  0.00    +0.000 A 
ATOM     10  C   UNL     1       9.622  10.328  19.707  0.00  0.00    +0.000 A 
ATOM     11  C   UNL     1      10.327  11.401  20.256  0.00  0.00    +0.000 A 
ATOM     12  C   UNL     1      10.386  12.618  19.586  0.00  0.00    +0.000 A 
ATOM     13  C   UNL     1       9.740  12.770  18.356  0.00  0.00    +0.000 A 
ATOM     14  C   UNL     1       9.034  11.699  17.797  0.00  0.00    +0.000 A 
ENDBRANCH   8   9
ENDBRANCH   4   7
BRANCH   1  15
ATOM     15  O   UNL     1       4.932   4.012  16.006  0.00  0.00    +0.000 OA
BRANCH  15  16
ATOM     16  C   UNL     1       4.456   3.001  16.819  0.00  0.00    +0.000 C 
BRANCH  16  17
ATOM     17  C   UNL     1       3.019   3.239  17.323  0.00  0.00    +0.000 C 
BRANCH  17  18
ATOM     18  N   UNL     1       2.944   3.680  18.768  0.00  0.00    +0.000 N 
BRANCH  18  20
ATOM     19  C   UNL     1       0.994   3.691  20.459  0.00  0.00    +0.000 C 
ATOM     20  C   UNL     1       1.901   2.884  19.510  0.00  0.00    +0.000 C 
ENDBRANCH  18  20
BRANCH  18  21
ATOM     21  C   UNL     1       2.612   5.144  18.775  0.00  0.00    +0.000 C 
ATOM     22  C   UNL     1       3.664   6.063  19.433  0.00  0.00    +0.000 C 
ENDBRANCH  18  21
BRANCH  18  23
ATOM     23  C   UNL     1       4.254   3.441  19.486  0.00  0.00    +0.000 C 
ATOM     24  C   UNL     1       4.388   2.092  20.223  0.00  0.00    +0.000 C 
ENDBRANCH  18  23
ENDBRANCH  17  18
ENDBRANCH  16  17
ENDBRANCH  15  16
ENDBRANCH   1  15
TORSDOF 9
ENDMDL
