MODEL 1
REMARK VINA RESULT:      -7.4      0.000      0.000
REMARK  Name = 
REMARK  4 active torsions:
REMARK  status: ('A' for Active; 'I' for Inactive)
REMARK    1  A    between atoms: C_1  and  N_2
REMARK    2  A    between atoms: N_2  and  C_3
REMARK    3  A    between atoms: N_6  and  C_7
REMARK    4  A    between atoms: N_12  and  C_13
REMARK                            x       y       z     vdW  Elec       q    Type
REMARK                         _______ _______ _______ _____ _____    ______ ____
ROOT
ATOM      1  C   UNL     1       6.654   4.378  17.177  0.00  0.00    +0.000 A 
ATOM      2  C   UNL     1       7.725   5.002  17.810  0.00  0.00    +0.000 A 
ATOM      3  N   UNL     1       7.694   5.473  19.076  0.00  0.00    +0.000 NA
ATOM      4  N   UNL     1       6.546   5.352  19.794  0.00  0.00    +0.000 NA
ATOM      5  C   UNL     1       5.479   4.712  19.275  0.00  0.00    +0.000 A 
ATOM      6  N   UNL     1       4.336   4.654  20.069  0.00  0.00    +0.000 N 
ATOM      7  C   UNL     1       5.548   4.158  18.000  0.00  0.00    +0.000 A 
ATOM      8  H   UNL     1       4.495   5.279  20.856  0.00  0.00    +0.000 HD
ENDROOT
BRANCH   6   9
ATOM      9  C   UNL     1       3.020   4.688  19.454  0.00  0.00    +0.000 C 
ATOM     10  C   UNL     1       1.894   5.224  20.363  0.00  0.00    +0.000 C 
ATOM     11  C   UNL     1       0.825   4.118  20.280  0.00  0.00    +0.000 C 
ATOM     12  C   UNL     1       1.298   2.920  21.118  0.00  0.00    +0.000 C 
ATOM     13  C   UNL     1       2.418   2.323  20.255  0.00  0.00    +0.000 C 
ATOM     14  C   UNL     1       2.493   3.287  19.057  0.00  0.00    +0.000 C 
ATOM     15  C   UNL     1       1.005   3.598  18.853  0.00  0.00    +0.000 C 
ENDBRANCH   6   9
BRANCH   1  19
ATOM     16  C   UNL     1       5.620   3.902  13.664  0.00  0.00    +0.000 C 
ATOM     17  C   UNL     1       6.363   5.229  13.836  0.00  0.00    +0.000 C 
ATOM     18  C   UNL     1       7.404   4.910  14.902  0.00  0.00    +0.000 C 
ATOM     19  N   UNL     1       6.696   4.014  15.833  0.00  0.00    +0.000 N 
ATOM     20  C   UNL     1       5.531   3.424  15.140  0.00  0.00    +0.000 C 
BRANCH  16  22
ATOM     21  C   UNL     1       5.534   2.494  11.675  0.00  0.00    +0.000 C 
ATOM     22  N   UNL     1       6.373   3.049  12.728  0.00  0.00    +0.000 NA
ATOM     23  H   UNL     1       7.108   3.608  12.293  0.00  0.00    +0.000 HD
ENDBRANCH  16  22
ENDBRANCH   1  19
TORSDOF 3
ENDMDL
MODEL 2
REMARK VINA RESULT:      -7.3      1.836      2.164
REMARK  Name = 
REMARK  4 active torsions:
REMARK  status: ('A' for Active; 'I' for Inactive)
REMARK    1  A    between atoms: C_1  and  N_2
REMARK    2  A    between atoms: N_2  and  C_3
REMARK    3  A    between atoms: N_6  and  C_7
REMARK    4  A    between atoms: N_12  and  C_13
REMARK                            x       y       z     vdW  Elec       q    Type
REMARK                         _______ _______ _______ _____ _____    ______ ____
ROOT
ATOM      1  C   UNL     1       5.715   4.852  15.271  0.00  0.00    +0.000 A 
ATOM      2  C   UNL     1       5.824   6.239  15.226  0.00  0.00    +0.000 A 
ATOM      3  N   UNL     1       5.287   7.077  16.141  0.00  0.00    +0.000 NA
ATOM      4  N   UNL     1       4.577   6.552  17.174  0.00  0.00    +0.000 NA
ATOM      5  C   UNL     1       4.469   5.217  17.321  0.00  0.00    +0.000 A 
ATOM      6  N   UNL     1       3.703   4.765  18.394  0.00  0.00    +0.000 N 
ATOM      7  C   UNL     1       5.094   4.361  16.421  0.00  0.00    +0.000 A 
ATOM      8  H   UNL     1       3.224   5.578  18.774  0.00  0.00    +0.000 HD
ENDROOT
BRANCH   6   9
ATOM      9  C   UNL     1       2.930   3.541  18.273  0.00  0.00    +0.000 C 
ATOM     10  C   UNL     1       1.414   3.748  18.079  0.00  0.00    +0.000 C 
ATOM     11  C   UNL     1       0.799   2.867  19.183  0.00  0.00    +0.000 C 
ATOM     12  C   UNL     1       0.994   3.572  20.534  0.00  0.00    +0.000 C 
ATOM     13  C   UNL     1       2.495   3.386  20.800  0.00  0.00    +0.000 C 
ATOM     14  C   UNL     1       2.989   2.652  19.540  0.00  0.00    +0.000 C 
ATOM     15  C   UNL     1       1.802   1.717  19.277  0.00  0.00    +0.000 C 
ENDBRANCH   6   9
BRANCH   1  19
ATOM     16  C   UNL     1       6.100   3.339  11.925  0.00  0.00    +0.000 C 
ATOM     17  C   UNL     1       7.069   4.511  12.104  0.00  0.00    +0.000 C 
ATOM     18  C   UNL     1       7.442   4.429  13.580  0.00  0.00    +0.000 C 
ATOM     19  N   UNL     1       6.186   4.038  14.244  0.00  0.00    +0.000 N 
ATOM     20  C   UNL     1       5.283   3.430  13.243  0.00  0.00    +0.000 C 
BRANCH  16  22
ATOM     21  C   UNL     1       6.073   1.036  11.123  0.00  0.00    +0.000 C 
ATOM     22  N   UNL     1       6.875   2.106  11.700  0.00  0.00    +0.000 NA
ATOM     23  H   UNL     1       7.643   2.314  11.060  0.00  0.00    +0.000 HD
ENDBRANCH  16  22
ENDBRANCH   1  19
TORSDOF 3
ENDMDL
MODEL 3
REMARK VINA RESULT:      -7.2      5.599      8.072
REMARK  Name = 
REMARK  4 active torsions:
REMARK  status: ('A' for Active; 'I' for Inactive)
REMARK    1  A    between atoms: C_1  and  N_2
REMARK    2  A    between atoms: N_2  and  C_3
REMARK    3  A    between atoms: N_6  and  C_7
REMARK    4  A    between atoms: N_12  and  C_13
REMARK                            x       y       z     vdW  Elec       q    Type
REMARK                         _______ _______ _______ _____ _____    ______ ____
ROOT
ATOM      1  C   UNL     1       0.238  10.115  19.853  0.00  0.00    +0.000 A 
ATOM      2  C   UNL     1       0.285  10.719  21.106  0.00  0.00    +0.000 A 
ATOM      3  N   UNL     1       0.859  10.166  22.198  0.00  0.00    +0.000 NA
ATOM      4  N   UNL     1       1.421   8.933  22.091  0.00  0.00    +0.000 NA
ATOM      5  C   UNL     1       1.465   8.302  20.900  0.00  0.00    +0.000 A 
ATOM      6  N   UNL     1       2.037   7.032  20.885  0.00  0.00    +0.000 N 
ATOM      7  C   UNL     1       0.946   8.915  19.765  0.00  0.00    +0.000 A 
ATOM      8  H   UNL     1       2.167   6.758  21.857  0.00  0.00    +0.000 HD
ENDROOT
BRANCH   6   9
ATOM      9  C   UNL     1       1.535   6.018  19.974  0.00  0.00    +0.000 C 
ATOM     10  C   UNL     1       1.414   4.604  20.581  0.00  0.00    +0.000 C 
ATOM     11  C   UNL     1       2.183   3.727  19.575  0.00  0.00    +0.000 C 
ATOM     12  C   UNL     1       3.687   3.972  19.764  0.00  0.00    +0.000 C 
ATOM     13  C   UNL     1       3.883   5.369  19.159  0.00  0.00    +0.000 C 
ATOM     14  C   UNL     1       2.456   5.781  18.752  0.00  0.00    +0.000 C 
ATOM     15  C   UNL     1       1.910   4.439  18.249  0.00  0.00    +0.000 C 
ENDBRANCH   6   9
BRANCH   1  19
ATOM     16  C   UNL     1      -2.569  11.070  17.651  0.00  0.00    +0.000 C 
ATOM     17  C   UNL     1      -2.292  12.166  18.683  0.00  0.00    +0.000 C 
ATOM     18  C   UNL     1      -0.779  12.111  18.851  0.00  0.00    +0.000 C 
ATOM     19  N   UNL     1      -0.465  10.673  18.787  0.00  0.00    +0.000 N 
ATOM     20  C   UNL     1      -1.582   9.967  18.125  0.00  0.00    +0.000 C 
BRANCH  16  22
ATOM     21  C   UNL     1      -2.952  10.791  15.259  0.00  0.00    +0.000 C 
ATOM     22  N   UNL     1      -2.361  11.620  16.300  0.00  0.00    +0.000 NA
ATOM     23  H   UNL     1      -2.787  12.546  16.254  0.00  0.00    +0.000 HD
ENDBRANCH  16  22
ENDBRANCH   1  19
TORSDOF 3
ENDMDL
MODEL 4
REMARK VINA RESULT:      -7.0      4.556      8.202
REMARK  Name = 
REMARK  4 active torsions:
REMARK  status: ('A' for Active; 'I' for Inactive)
REMARK    1  A    between atoms: C_1  and  N_2
REMARK    2  A    between atoms: N_2  and  C_3
REMARK    3  A    between atoms: N_6  and  C_7
REMARK    4  A    between atoms: N_12  and  C_13
REMARK                            x       y       z     vdW  Elec       q    Type
REMARK                         _______ _______ _______ _____ _____    ______ ____
ROOT
ATOM      1  C   UNL     1       1.401   9.155  19.711  0.00  0.00    +0.000 A 
ATOM      2  C   UNL     1       1.790   9.769  18.524  0.00  0.00    +0.000 A 
ATOM      3  N   UNL     1       2.356   9.122  17.482  0.00  0.00    +0.000 NA
ATOM      4  N   UNL     1       2.584   7.786  17.582  0.00  0.00    +0.000 NA
ATOM      5  C   UNL     1       2.188   7.105  18.677  0.00  0.00    +0.000 A 
ATOM      6  N   UNL     1       2.481   5.744  18.708  0.00  0.00    +0.000 N 
ATOM      7  C   UNL     1       1.531   7.765  19.711  0.00  0.00    +0.000 A 
ATOM      8  H   UNL     1       3.110   5.563  17.929  0.00  0.00    +0.000 HD
ENDROOT
BRANCH   6   9
ATOM      9  C   UNL     1       2.790   5.094  19.971  0.00  0.00    +0.000 C 
ATOM     10  C   UNL     1       3.741   3.884  19.862  0.00  0.00    +0.000 C 
ATOM     11  C   UNL     1       2.974   2.772  20.601  0.00  0.00    +0.000 C 
ATOM     12  C   UNL     1       1.825   2.291  19.702  0.00  0.00    +0.000 C 
ATOM     13  C   UNL     1       0.824   3.452  19.781  0.00  0.00    +0.000 C 
ATOM     14  C   UNL     1       1.548   4.484  20.665  0.00  0.00    +0.000 C 
ATOM     15  C   UNL     1       2.226   3.556  21.680  0.00  0.00    +0.000 C 
ENDBRANCH   6   9
BRANCH   1  19
ATOM     16  C   UNL     1      -0.928  10.606  22.183  0.00  0.00    +0.000 C 
ATOM     17  C   UNL     1      -0.358   9.278  22.689  0.00  0.00    +0.000 C 
ATOM     18  C   UNL     1       1.063   9.278  22.139  0.00  0.00    +0.000 C 
ATOM     19  N   UNL     1       0.927   9.882  20.801  0.00  0.00    +0.000 N 
ATOM     20  C   UNL     1      -0.334  10.650  20.748  0.00  0.00    +0.000 C 
BRANCH  16  22
ATOM     21  C   UNL     1      -1.444  12.814  23.079  0.00  0.00    +0.000 C 
ATOM     22  N   UNL     1      -0.529  11.682  23.107  0.00  0.00    +0.000 NA
ATOM     23  H   UNL     1      -0.509  11.308  24.057  0.00  0.00    +0.000 HD
ENDBRANCH  16  22
ENDBRANCH   1  19
TORSDOF 3
ENDMDL
MODEL 5
REMARK VINA RESULT:      -6.9      1.095      1.342
REMARK  Name = 
REMARK  4 active torsions:
REMARK  status: ('A' for Active; 'I' for Inactive)
REMARK    1  A    between atoms: C_1  and  N_2
REMARK    2  A    between atoms: N_2  and  C_3
REMARK    3  A    between atoms: N_6  and  C_7
REMARK    4  A    between atoms: N_12  and  C_13
REMARK                            x       y       z     vdW  Elec       q    Type
REMARK                         _______ _______ _______ _____ _____    ______ ____
ROOT
ATOM      1  C   UNL     1       6.471   4.693  16.187  0.00  0.00    +0.000 A 
ATOM      2  C   UNL     1       6.984   5.943  16.520  0.00  0.00    +0.000 A 
ATOM      3  N   UNL     1       6.709   6.598  17.669  0.00  0.00    +0.000 NA
ATOM      4  N   UNL     1       5.867   6.023  18.568  0.00  0.00    +0.000 NA
ATOM      5  C   UNL     1       5.369   4.790  18.347  0.00  0.00    +0.000 A 
ATOM      6  N   UNL     1       4.495   4.286  19.307  0.00  0.00    +0.000 N 
ATOM      7  C   UNL     1       5.723   4.089  17.199  0.00  0.00    +0.000 A 
ATOM      8  H   UNL     1       4.273   5.057  19.933  0.00  0.00    +0.000 HD
ENDROOT
BRANCH   6   9
ATOM      9  C   UNL     1       3.397   3.421  18.911  0.00  0.00    +0.000 C 
ATOM     10  C   UNL     1       2.166   4.156  18.340  0.00  0.00    +0.000 C 
ATOM     11  C   UNL     1       1.006   3.599  19.187  0.00  0.00    +0.000 C 
ATOM     12  C   UNL     1       1.073   4.234  20.584  0.00  0.00    +0.000 C 
ATOM     13  C   UNL     1       2.278   3.528  21.221  0.00  0.00    +0.000 C 
ATOM     14  C   UNL     1       2.793   2.619  20.089  0.00  0.00    +0.000 C 
ATOM     15  C   UNL     1       1.466   2.168  19.467  0.00  0.00    +0.000 C 
ENDBRANCH   6   9
BRANCH   1  19
ATOM     16  C   UNL     1       6.027   3.803  12.631  0.00  0.00    +0.000 C 
ATOM     17  C   UNL     1       6.953   5.013  12.775  0.00  0.00    +0.000 C 
ATOM     18  C   UNL     1       7.707   4.721  14.067  0.00  0.00    +0.000 C 
ATOM     19  N   UNL     1       6.691   4.109  14.941  0.00  0.00    +0.000 N 
ATOM     20  C   UNL     1       5.585   3.595  14.106  0.00  0.00    +0.000 C 
BRANCH  16  22
ATOM     21  C   UNL     1       5.896   1.711  11.384  0.00  0.00    +0.000 C 
ATOM     22  N   UNL     1       6.771   2.703  11.992  0.00  0.00    +0.000 NA
ATOM     23  H   UNL     1       7.371   3.092  11.265  0.00  0.00    +0.000 HD
ENDBRANCH  16  22
ENDBRANCH   1  19
TORSDOF 3
ENDMDL
MODEL 6
REMARK VINA RESULT:      -6.8      5.382      7.963
REMARK  Name = 
REMARK  4 active torsions:
REMARK  status: ('A' for Active; 'I' for Inactive)
REMARK    1  A    between atoms: C_1  and  N_2
REMARK    2  A    between atoms: N_2  and  C_3
REMARK    3  A    between atoms: N_6  and  C_7
REMARK    4  A    between atoms: N_12  and  C_13
REMARK                            x       y       z     vdW  Elec       q    Type
REMARK                         _______ _______ _______ _____ _____    ______ ____
ROOT
ATOM      1  C   UNL     1       0.266   9.511  19.510  0.00  0.00    +0.000 A 
ATOM      2  C   UNL     1      -0.148   9.441  20.837  0.00  0.00    +0.000 A 
ATOM      3  N   UNL     1       0.401   8.628  21.766  0.00  0.00    +0.000 NA
ATOM      4  N   UNL     1       1.420   7.806  21.400  0.00  0.00    +0.000 NA
ATOM      5  C   UNL     1       1.917   7.850  20.148  0.00  0.00    +0.000 A 
ATOM      6  N   UNL     1       2.944   6.956  19.850  0.00  0.00    +0.000 N 
ATOM      7  C   UNL     1       1.399   8.748  19.220  0.00  0.00    +0.000 A 
ATOM      8  H   UNL     1       3.003   6.308  20.632  0.00  0.00    +0.000 HD
ENDROOT
BRANCH   6   9
ATOM      9  C   UNL     1       3.055   6.392  18.515  0.00  0.00    +0.000 C 
ATOM     10  C   UNL     1       2.202   5.130  18.272  0.00  0.00    +0.000 C 
ATOM     11  C   UNL     1       3.225   4.120  17.720  0.00  0.00    +0.000 C 
ATOM     12  C   UNL     1       4.103   3.631  18.882  0.00  0.00    +0.000 C 
ATOM     13  C   UNL     1       4.998   4.844  19.166  0.00  0.00    +0.000 C 
ATOM     14  C   UNL     1       4.484   5.903  18.174  0.00  0.00    +0.000 C 
ATOM     15  C   UNL     1       4.191   5.024  16.952  0.00  0.00    +0.000 C 
ENDBRANCH   6   9
BRANCH   1  19
ATOM     16  C   UNL     1      -2.405  11.460  17.867  0.00  0.00    +0.000 C 
ATOM     17  C   UNL     1      -1.484  12.377  18.677  0.00  0.00    +0.000 C 
ATOM     18  C   UNL     1      -0.117  11.723  18.519  0.00  0.00    +0.000 C 
ATOM     19  N   UNL     1      -0.406  10.278  18.562  0.00  0.00    +0.000 N 
ATOM     20  C   UNL     1      -1.834  10.065  18.245  0.00  0.00    +0.000 C 
BRANCH  16  22
ATOM     21  C   UNL     1      -2.800  10.794  15.554  0.00  0.00    +0.000 C 
ATOM     22  N   UNL     1      -2.340  11.848  16.447  0.00  0.00    +0.000 NA
ATOM     23  H   UNL     1      -2.929  12.670  16.305  0.00  0.00    +0.000 HD
ENDBRANCH  16  22
ENDBRANCH   1  19
TORSDOF 3
ENDMDL
MODEL 7
REMARK VINA RESULT:      -6.7      3.894      7.450
REMARK  Name = 
REMARK  4 active torsions:
REMARK  status: ('A' for Active; 'I' for Inactive)
REMARK    1  A    between atoms: C_1  and  N_2
REMARK    2  A    between atoms: N_2  and  C_3
REMARK    3  A    between atoms: N_6  and  C_7
REMARK    4  A    between atoms: N_12  and  C_13
REMARK                            x       y       z     vdW  Elec       q    Type
REMARK                         _______ _______ _______ _____ _____    ______ ____
ROOT
ATOM      1  C   UNL     1       1.973   7.640  19.709  0.00  0.00    +0.000 A 
ATOM      2  C   UNL     1       1.412   6.922  20.761  0.00  0.00    +0.000 A 
ATOM      3  N   UNL     1       1.709   5.635  21.049  0.00  0.00    +0.000 NA
ATOM      4  N   UNL     1       2.601   4.975  20.265  0.00  0.00    +0.000 NA
ATOM      5  C   UNL     1       3.230   5.614  19.258  0.00  0.00    +0.000 A 
ATOM      6  N   UNL     1       4.110   4.856  18.489  0.00  0.00    +0.000 N 
ATOM      7  C   UNL     1       2.980   6.961  19.020  0.00  0.00    +0.000 A 
ATOM      8  H   UNL     1       3.971   3.884  18.757  0.00  0.00    +0.000 HD
ENDROOT
BRANCH   6   9
ATOM      9  C   UNL     1       4.263   5.134  17.071  0.00  0.00    +0.000 C 
ATOM     10  C   UNL     1       4.727   3.932  16.221  0.00  0.00    +0.000 C 
ATOM     11  C   UNL     1       5.943   4.492  15.461  0.00  0.00    +0.000 C 
ATOM     12  C   UNL     1       7.123   4.598  16.439  0.00  0.00    +0.000 C 
ATOM     13  C   UNL     1       6.733   5.799  17.313  0.00  0.00    +0.000 C 
ATOM     14  C   UNL     1       5.348   6.197  16.769  0.00  0.00    +0.000 C 
ATOM     15  C   UNL     1       5.558   5.960  15.268  0.00  0.00    +0.000 C 
ENDBRANCH   6   9
BRANCH   1  19
ATOM     16  C   UNL     1      -0.015  10.385  18.243  0.00  0.00    +0.000 C 
ATOM     17  C   UNL     1      -0.508  10.052  19.653  0.00  0.00    +0.000 C 
ATOM     18  C   UNL     1       0.771   9.670  20.387  0.00  0.00    +0.000 C 
ATOM     19  N   UNL     1       1.551   8.926  19.381  0.00  0.00    +0.000 N 
ATOM     20  C   UNL     1       1.048   9.271  18.034  0.00  0.00    +0.000 C 
BRANCH  16  22
ATOM     21  C   UNL     1      -0.604  12.740  18.470  0.00  0.00    +0.000 C 
ATOM     22  N   UNL     1       0.460  11.779  18.217  0.00  0.00    +0.000 NA
ATOM     23  H   UNL     1       1.176  11.895  18.936  0.00  0.00    +0.000 HD
ENDBRANCH  16  22
ENDBRANCH   1  19
TORSDOF 3
ENDMDL
MODEL 8
REMARK VINA RESULT:      -6.6      3.970      7.334
REMARK  Name = 
REMARK  4 active torsions:
REMARK  status: ('A' for Active; 'I' for Inactive)
REMARK    1  A    between atoms: C_1  and  N_2
REMARK    2  A    between atoms: N_2  and  C_3
REMARK    3  A    between atoms: N_6  and  C_7
REMARK    4  A    between atoms: N_12  and  C_13
REMARK                            x       y       z     vdW  Elec       q    Type
REMARK                         _______ _______ _______ _____ _____    ______ ____
ROOT
ATOM      1  C   UNL     1       1.883   7.750  19.443  0.00  0.00    +0.000 A 
ATOM      2  C   UNL     1       1.442   7.125  20.606  0.00  0.00    +0.000 A 
ATOM      3  N   UNL     1       1.896   5.933  21.050  0.00  0.00    +0.000 NA
ATOM      4  N   UNL     1       2.837   5.275  20.322  0.00  0.00    +0.000 NA
ATOM      5  C   UNL     1       3.357   5.835  19.211  0.00  0.00    +0.000 A 
ATOM      6  N   UNL     1       4.297   5.083  18.512  0.00  0.00    +0.000 N 
ATOM      7  C   UNL     1       2.943   7.100  18.807  0.00  0.00    +0.000 A 
ATOM      8  H   UNL     1       4.281   4.148  18.914  0.00  0.00    +0.000 HD
ENDROOT
BRANCH   6   9
ATOM      9  C   UNL     1       4.376   5.178  17.064  0.00  0.00    +0.000 C 
ATOM     10  C   UNL     1       4.753   3.864  16.348  0.00  0.00    +0.000 C 
ATOM     11  C   UNL     1       5.939   4.282  15.459  0.00  0.00    +0.000 C 
ATOM     12  C   UNL     1       7.176   4.465  16.351  0.00  0.00    +0.000 C 
ATOM     13  C   UNL     1       6.873   5.777  17.087  0.00  0.00    +0.000 C 
ATOM     14  C   UNL     1       5.472   6.155  16.573  0.00  0.00    +0.000 C 
ATOM     15  C   UNL     1       5.587   5.727  15.105  0.00  0.00    +0.000 C 
ENDBRANCH   6   9
BRANCH   1  19
ATOM     16  C   UNL     1       1.029  11.327  19.107  0.00  0.00    +0.000 C 
ATOM     17  C   UNL     1       2.217  10.967  18.211  0.00  0.00    +0.000 C 
ATOM     18  C   UNL     1       1.899   9.544  17.768  0.00  0.00    +0.000 C 
ATOM     19  N   UNL     1       1.303   8.923  18.965  0.00  0.00    +0.000 N 
ATOM     20  C   UNL     1       0.821   9.988  19.869  0.00  0.00    +0.000 C 
BRANCH  16  22
ATOM     21  C   UNL     1      -1.389  11.484  18.826  0.00  0.00    +0.000 C 
ATOM     22  N   UNL     1      -0.083  11.798  18.263  0.00  0.00    +0.000 NA
ATOM     23  H   UNL     1      -0.012  12.811  18.161  0.00  0.00    +0.000 HD
ENDBRANCH  16  22
ENDBRANCH   1  19
TORSDOF 3
ENDMDL
MODEL 9
REMARK VINA RESULT:      -6.6      0.939      1.296
REMARK  Name = 
REMARK  4 active torsions:
REMARK  status: ('A' for Active; 'I' for Inactive)
REMARK    1  A    between atoms: C_1  and  N_2
REMARK    2  A    between atoms: N_2  and  C_3
REMARK    3  A    between atoms: N_6  and  C_7
REMARK    4  A    between atoms: N_12  and  C_13
REMARK                            x       y       z     vdW  Elec       q    Type
REMARK                         _______ _______ _______ _____ _____    ______ ____
ROOT
ATOM      1  C   UNL     1       6.610   5.098  17.138  0.00  0.00    +0.000 A 
ATOM      2  C   UNL     1       7.656   5.584  17.917  0.00  0.00    +0.000 A 
ATOM      3  N   UNL     1       7.630   5.661  19.266  0.00  0.00    +0.000 NA
ATOM      4  N   UNL     1       6.513   5.255  19.926  0.00  0.00    +0.000 NA
ATOM      5  C   UNL     1       5.476   4.722  19.251  0.00  0.00    +0.000 A 
ATOM      6  N   UNL     1       4.362   4.354  20.002  0.00  0.00    +0.000 N 
ATOM      7  C   UNL     1       5.544   4.570  17.870  0.00  0.00    +0.000 A 
ATOM      8  H   UNL     1       4.502   4.732  20.937  0.00  0.00    +0.000 HD
ENDROOT
BRANCH   6   9
ATOM      9  C   UNL     1       3.029   4.474  19.436  0.00  0.00    +0.000 C 
ATOM     10  C   UNL     1       1.977   5.096  20.378  0.00  0.00    +0.000 C 
ATOM     11  C   UNL     1       0.832   4.066  20.348  0.00  0.00    +0.000 C 
ATOM     12  C   UNL     1       1.252   2.846  21.182  0.00  0.00    +0.000 C 
ATOM     13  C   UNL     1       2.295   2.164  20.286  0.00  0.00    +0.000 C 
ATOM     14  C   UNL     1       2.392   3.110  19.075  0.00  0.00    +0.000 C 
ATOM     15  C   UNL     1       0.923   3.521  18.922  0.00  0.00    +0.000 C 
ENDBRANCH   6   9
BRANCH   1  19
ATOM     16  C   UNL     1       6.538   3.998  13.614  0.00  0.00    +0.000 C 
ATOM     17  C   UNL     1       5.135   4.382  14.090  0.00  0.00    +0.000 C 
ATOM     18  C   UNL     1       5.399   5.537  15.049  0.00  0.00    +0.000 C 
ATOM     19  N   UNL     1       6.637   5.146  15.746  0.00  0.00    +0.000 N 
ATOM     20  C   UNL     1       7.342   4.130  14.937  0.00  0.00    +0.000 C 
BRANCH  16  22
ATOM     21  C   UNL     1       8.221   5.516  12.713  0.00  0.00    +0.000 C 
ATOM     22  N   UNL     1       6.927   4.883  12.502  0.00  0.00    +0.000 NA
ATOM     23  H   UNL     1       6.974   4.331  11.645  0.00  0.00    +0.000 HD
ENDBRANCH  16  22
ENDBRANCH   1  19
TORSDOF 3
ENDMDL
