MODEL 1
REMARK VINA RESULT:      -7.6      0.000      0.000
REMARK  Name = 
REMARK  10 active torsions:
REMARK  status: ('A' for Active; 'I' for Inactive)
REMARK    1  A    between atoms: C_1  and  O_2
REMARK    2  A    between atoms: O_2  and  C_3
REMARK    3  A    between atoms: C_5  and  C_6
REMARK    4  A    between atoms: C_7  and  C_8
REMARK    5  A    between atoms: C_8  and  O_10
REMARK    6  A    between atoms: C_13  and  O_14
REMARK    7  A    between atoms: O_14  and  C_15
REMARK    8  A    between atoms: C_15  and  C_16
REMARK    9  A    between atoms: N_18  and  C_19
REMARK   10  A    between atoms: C_24  and  N_25
REMARK                            x       y       z     vdW  Elec       q    Type
REMARK                         _______ _______ _______ _____ _____    ______ ____
ROOT
ATOM      1  O   UNL     1       6.817   8.091  16.908  0.00  0.00    +0.000 OA
ENDROOT
BRANCH   1   7
ATOM      2  C   UNL     1       6.362   5.765  16.438  0.00  0.00    +0.000 A 
ATOM      3  C   UNL     1       5.541   4.639  16.650  0.00  0.00    +0.000 A 
ATOM      4  C   UNL     1       4.389   4.697  17.442  0.00  0.00    +0.000 A 
ATOM      5  C   UNL     1       4.020   5.920  17.983  0.00  0.00    +0.000 A 
ATOM      6  C   UNL     1       4.806   7.045  17.764  0.00  0.00    +0.000 A 
ATOM      7  C   UNL     1       6.011   6.982  17.036  0.00  0.00    +0.000 A 
BRANCH   2   9
ATOM      8  C   UNL     1       7.168   4.929  14.318  0.00  0.00    +0.000 C 
ATOM      9  O   UNL     1       7.405   5.458  15.610  0.00  0.00    +0.000 OA
ENDBRANCH   2   9
BRANCH   4  10
ATOM     10  C   UNL     1       3.499   3.556  17.663  0.00  0.00    +0.000 C 
ATOM     11  C   UNL     1       2.300   3.631  18.259  0.00  0.00    +0.000 C 
BRANCH  11  12
ATOM     12  C   UNL     1       1.519   2.391  18.426  0.00  0.00    +0.000 C 
ATOM     13  O   UNL     1       0.304   2.330  18.441  0.00  0.00    +0.000 OA
BRANCH  12  14
ATOM     14  O   UNL     1       2.317   1.312  18.551  0.00  0.00    +0.000 OA
ATOM     15  H   UNL     1       1.928   0.556  19.024  0.00  0.00    +0.000 HD
ENDBRANCH  12  14
ENDBRANCH  11  12
ENDBRANCH   4  10
ENDBRANCH   1   7
BRANCH   1  16
ATOM     16  C   UNL     1       7.928   8.092  17.832  0.00  0.00    +0.000 C 
BRANCH  16  17
ATOM     17  C   UNL     1       8.398   9.438  18.201  0.00  0.00    +0.000 A 
ATOM     18  C   UNL     1       8.388  10.609  17.492  0.00  0.00    +0.000 A 
ATOM     19  N   UNL     1       8.975  11.522  18.327  0.00  0.00    +0.000 N 
ATOM     20  N   UNL     1       9.399  10.914  19.453  0.00  0.00    +0.000 NA
ATOM     21  N   UNL     1       9.024   9.645  19.400  0.00  0.00    +0.000 NA
BRANCH  19  22
ATOM     22  C   UNL     1       9.019  12.916  18.154  0.00  0.00    +0.000 A 
ATOM     23  C   UNL     1       7.811  13.589  17.902  0.00  0.00    +0.000 A 
ATOM     24  C   UNL     1       7.790  14.978  17.802  0.00  0.00    +0.000 A 
ATOM     25  C   UNL     1       8.970  15.709  17.939  0.00  0.00    +0.000 A 
ATOM     26  C   UNL     1      10.179  15.055  18.177  0.00  0.00    +0.000 A 
ATOM     27  C   UNL     1      10.196  13.658  18.292  0.00  0.00    +0.000 A 
BRANCH  27  28
ATOM     28  N   UNL     1      11.499  13.022  18.386  0.00  0.00    +0.000 N 
ATOM     29  O   UNL     1      11.999  12.613  17.330  0.00  0.00    +0.000 OA
ATOM     30  O   UNL     1      12.048  13.027  19.498  0.00  0.00    +0.000 OA
ENDBRANCH  27  28
ENDBRANCH  19  22
ENDBRANCH  16  17
ENDBRANCH   1  16
TORSDOF 9
ENDMDL
MODEL 2
REMARK VINA RESULT:      -7.5      7.178      8.872
REMARK  Name = 
REMARK  10 active torsions:
REMARK  status: ('A' for Active; 'I' for Inactive)
REMARK    1  A    between atoms: C_1  and  O_2
REMARK    2  A    between atoms: O_2  and  C_3
REMARK    3  A    between atoms: C_5  and  C_6
REMARK    4  A    between atoms: C_7  and  C_8
REMARK    5  A    between atoms: C_8  and  O_10
REMARK    6  A    between atoms: C_13  and  O_14
REMARK    7  A    between atoms: O_14  and  C_15
REMARK    8  A    between atoms: C_15  and  C_16
REMARK    9  A    between atoms: N_18  and  C_19
REMARK   10  A    between atoms: C_24  and  N_25
REMARK                            x       y       z     vdW  Elec       q    Type
REMARK                         _______ _______ _______ _____ _____    ______ ____
ROOT
ATOM      1  O   UNL     1       1.507   7.598  20.567  0.00  0.00    +0.000 OA
ENDROOT
BRANCH   1   7
ATOM      2  C   UNL     1       2.691   5.602  19.895  0.00  0.00    +0.000 A 
ATOM      3  C   UNL     1       3.478   4.946  18.928  0.00  0.00    +0.000 A 
ATOM      4  C   UNL     1       3.904   5.583  17.758  0.00  0.00    +0.000 A 
ATOM      5  C   UNL     1       3.586   6.922  17.581  0.00  0.00    +0.000 A 
ATOM      6  C   UNL     1       2.831   7.591  18.537  0.00  0.00    +0.000 A 
ATOM      7  C   UNL     1       2.328   6.938  19.680  0.00  0.00    +0.000 A 
BRANCH   2   9
ATOM      8  C   UNL     1       2.615   3.378  20.838  0.00  0.00    +0.000 C 
ATOM      9  O   UNL     1       2.431   4.777  20.953  0.00  0.00    +0.000 OA
ENDBRANCH   2   9
BRANCH   4  10
ATOM     10  C   UNL     1       4.743   4.942  16.743  0.00  0.00    +0.000 C 
ATOM     11  C   UNL     1       5.655   5.580  15.995  0.00  0.00    +0.000 C 
BRANCH  11  12
ATOM     12  C   UNL     1       6.418   4.803  15.001  0.00  0.00    +0.000 C 
ATOM     13  O   UNL     1       6.051   3.753  14.508  0.00  0.00    +0.000 OA
BRANCH  12  14
ATOM     14  O   UNL     1       7.583   5.402  14.687  0.00  0.00    +0.000 OA
ATOM     15  H   UNL     1       8.291   4.808  14.384  0.00  0.00    +0.000 HD
ENDBRANCH  12  14
ENDBRANCH  11  12
ENDBRANCH   4  10
ENDBRANCH   1   7
BRANCH   1  16
ATOM     16  C   UNL     1       1.108   8.906  20.102  0.00  0.00    +0.000 C 
BRANCH  16  17
ATOM     17  C   UNL     1       0.484   9.747  21.139  0.00  0.00    +0.000 A 
ATOM     18  C   UNL     1      -0.216  10.918  21.032  0.00  0.00    +0.000 A 
ATOM     19  N   UNL     1      -0.528  11.252  22.322  0.00  0.00    +0.000 N 
ATOM     20  N   UNL     1       0.030  10.370  23.176  0.00  0.00    +0.000 NA
ATOM     21  N   UNL     1       0.626   9.428  22.461  0.00  0.00    +0.000 NA
BRANCH  19  22
ATOM     22  C   UNL     1      -1.414  12.257  22.742  0.00  0.00    +0.000 A 
ATOM     23  C   UNL     1      -2.605  11.864  23.379  0.00  0.00    +0.000 A 
ATOM     24  C   UNL     1      -3.480  12.823  23.884  0.00  0.00    +0.000 A 
ATOM     25  C   UNL     1      -3.186  14.180  23.750  0.00  0.00    +0.000 A 
ATOM     26  C   UNL     1      -2.015  14.586  23.110  0.00  0.00    +0.000 A 
ATOM     27  C   UNL     1      -1.128  13.620  22.616  0.00  0.00    +0.000 A 
BRANCH  27  28
ATOM     28  N   UNL     1      -0.006  14.099  21.827  0.00  0.00    +0.000 N 
ATOM     29  O   UNL     1      -0.237  14.391  20.646  0.00  0.00    +0.000 OA
ATOM     30  O   UNL     1       1.068  14.269  22.423  0.00  0.00    +0.000 OA
ENDBRANCH  27  28
ENDBRANCH  19  22
ENDBRANCH  16  17
ENDBRANCH   1  16
TORSDOF 9
ENDMDL
MODEL 3
REMARK VINA RESULT:      -7.4      6.292      8.254
REMARK  Name = 
REMARK  10 active torsions:
REMARK  status: ('A' for Active; 'I' for Inactive)
REMARK    1  A    between atoms: C_1  and  O_2
REMARK    2  A    between atoms: O_2  and  C_3
REMARK    3  A    between atoms: C_5  and  C_6
REMARK    4  A    between atoms: C_7  and  C_8
REMARK    5  A    between atoms: C_8  and  O_10
REMARK    6  A    between atoms: C_13  and  O_14
REMARK    7  A    between atoms: O_14  and  C_15
REMARK    8  A    between atoms: C_15  and  C_16
REMARK    9  A    between atoms: N_18  and  C_19
REMARK   10  A    between atoms: C_24  and  N_25
REMARK                            x       y       z     vdW  Elec       q    Type
REMARK                         _______ _______ _______ _____ _____    ______ ____
ROOT
ATOM      1  O   UNL     1       3.286   6.684  18.447  0.00  0.00    +0.000 OA
ENDROOT
BRANCH   1   7
ATOM      2  C   UNL     1       3.986   4.612  17.419  0.00  0.00    +0.000 A 
ATOM      3  C   UNL     1       4.650   3.968  16.357  0.00  0.00    +0.000 A 
ATOM      4  C   UNL     1       5.296   4.680  15.341  0.00  0.00    +0.000 A 
ATOM      5  C   UNL     1       5.328   6.066  15.424  0.00  0.00    +0.000 A 
ATOM      6  C   UNL     1       4.698   6.716  16.479  0.00  0.00    +0.000 A 
ATOM      7  C   UNL     1       3.976   6.012  17.463  0.00  0.00    +0.000 A 
BRANCH   2   9
ATOM      8  C   UNL     1       4.210   3.259  19.410  0.00  0.00    +0.000 C 
ATOM      9  O   UNL     1       3.462   3.700  18.291  0.00  0.00    +0.000 OA
ENDBRANCH   2   9
BRANCH   4  10
ATOM     10  C   UNL     1       6.017   4.046  14.237  0.00  0.00    +0.000 C 
ATOM     11  C   UNL     1       5.455   3.667  13.079  0.00  0.00    +0.000 C 
BRANCH  11  12
ATOM     12  C   UNL     1       6.308   3.026  12.061  0.00  0.00    +0.000 C 
ATOM     13  O   UNL     1       6.076   1.954  11.534  0.00  0.00    +0.000 OA
BRANCH  12  14
ATOM     14  O   UNL     1       7.386   3.779  11.768  0.00  0.00    +0.000 OA
ATOM     15  H   UNL     1       7.918   4.064  12.531  0.00  0.00    +0.000 HD
ENDBRANCH  12  14
ENDBRANCH  11  12
ENDBRANCH   4  10
ENDBRANCH   1   7
BRANCH   1  16
ATOM     16  C   UNL     1       3.115   8.089  18.160  0.00  0.00    +0.000 C 
BRANCH  16  17
ATOM     17  C   UNL     1       1.982   8.712  18.867  0.00  0.00    +0.000 A 
ATOM     18  C   UNL     1       1.231   9.811  18.548  0.00  0.00    +0.000 A 
ATOM     19  N   UNL     1       0.340   9.930  19.581  0.00  0.00    +0.000 N 
ATOM     20  N   UNL     1       0.596   9.000  20.523  0.00  0.00    +0.000 NA
ATOM     21  N   UNL     1       1.578   8.230  20.082  0.00  0.00    +0.000 NA
BRANCH  19  22
ATOM     22  C   UNL     1      -0.781  10.775  19.634  0.00  0.00    +0.000 A 
ATOM     23  C   UNL     1      -1.704  10.715  18.574  0.00  0.00    +0.000 A 
ATOM     24  C   UNL     1      -2.871  11.473  18.616  0.00  0.00    +0.000 A 
ATOM     25  C   UNL     1      -3.127  12.307  19.705  0.00  0.00    +0.000 A 
ATOM     26  C   UNL     1      -2.216  12.386  20.759  0.00  0.00    +0.000 A 
ATOM     27  C   UNL     1      -1.048  11.611  20.722  0.00  0.00    +0.000 A 
BRANCH  27  28
ATOM     28  N   UNL     1      -0.068  11.849  21.767  0.00  0.00    +0.000 N 
ATOM     29  O   UNL     1      -0.250  11.271  22.847  0.00  0.00    +0.000 OA
ATOM     30  O   UNL     1       0.922  12.531  21.464  0.00  0.00    +0.000 OA
ENDBRANCH  27  28
ENDBRANCH  19  22
ENDBRANCH  16  17
ENDBRANCH   1  16
TORSDOF 9
ENDMDL
MODEL 4
REMARK VINA RESULT:      -7.4      7.334     10.425
REMARK  Name = 
REMARK  10 active torsions:
REMARK  status: ('A' for Active; 'I' for Inactive)
REMARK    1  A    between atoms: C_1  and  O_2
REMARK    2  A    between atoms: O_2  and  C_3
REMARK    3  A    between atoms: C_5  and  C_6
REMARK    4  A    between atoms: C_7  and  C_8
REMARK    5  A    between atoms: C_8  and  O_10
REMARK    6  A    between atoms: C_13  and  O_14
REMARK    7  A    between atoms: O_14  and  C_15
REMARK    8  A    between atoms: C_15  and  C_16
REMARK    9  A    between atoms: N_18  and  C_19
REMARK   10  A    between atoms: C_24  and  N_25
REMARK                            x       y       z     vdW  Elec       q    Type
REMARK                         _______ _______ _______ _____ _____    ______ ____
ROOT
ATOM      1  O   UNL     1       0.895  10.310  18.903  0.00  0.00    +0.000 OA
ENDROOT
BRANCH   1   7
ATOM      2  C   UNL     1      -1.065  11.591  19.501  0.00  0.00    +0.000 A 
ATOM      3  C   UNL     1      -2.400  11.938  19.215  0.00  0.00    +0.000 A 
ATOM      4  C   UNL     1      -3.109  11.363  18.156  0.00  0.00    +0.000 A 
ATOM      5  C   UNL     1      -2.488  10.375  17.403  0.00  0.00    +0.000 A 
ATOM      6  C   UNL     1      -1.179  10.004  17.687  0.00  0.00    +0.000 A 
ATOM      7  C   UNL     1      -0.428  10.634  18.700  0.00  0.00    +0.000 A 
BRANCH   2   9
ATOM      8  C   UNL     1      -0.877  11.791  21.902  0.00  0.00    +0.000 C 
ATOM      9  O   UNL     1      -0.609  12.268  20.596  0.00  0.00    +0.000 OA
ENDBRANCH   2   9
BRANCH   4  10
ATOM     10  C   UNL     1      -4.504  11.680  17.845  0.00  0.00    +0.000 C 
ATOM     11  C   UNL     1      -5.461  11.882  18.762  0.00  0.00    +0.000 C 
BRANCH  11  12
ATOM     12  C   UNL     1      -6.829  12.180  18.298  0.00  0.00    +0.000 C 
ATOM     13  O   UNL     1      -7.790  12.348  19.024  0.00  0.00    +0.000 OA
BRANCH  12  14
ATOM     14  O   UNL     1      -6.892  12.259  16.954  0.00  0.00    +0.000 OA
ATOM     15  H   UNL     1      -6.313  12.925  16.545  0.00  0.00    +0.000 HD
ENDBRANCH  12  14
ENDBRANCH  11  12
ENDBRANCH   4  10
ENDBRANCH   1   7
BRANCH   1  16
ATOM     16  C   UNL     1       1.082   9.316  19.934  0.00  0.00    +0.000 C 
BRANCH  16  17
ATOM     17  C   UNL     1       1.858   8.141  19.499  0.00  0.00    +0.000 A 
ATOM     18  C   UNL     1       2.313   7.786  18.258  0.00  0.00    +0.000 A 
ATOM     19  N   UNL     1       2.945   6.587  18.453  0.00  0.00    +0.000 N 
ATOM     20  N   UNL     1       2.804   6.193  19.735  0.00  0.00    +0.000 NA
ATOM     21  N   UNL     1       2.167   7.151  20.390  0.00  0.00    +0.000 NA
BRANCH  19  22
ATOM     22  C   UNL     1       3.759   5.903  17.535  0.00  0.00    +0.000 A 
ATOM     23  C   UNL     1       4.763   6.632  16.872  0.00  0.00    +0.000 A 
ATOM     24  C   UNL     1       5.646   5.986  16.011  0.00  0.00    +0.000 A 
ATOM     25  C   UNL     1       5.534   4.612  15.792  0.00  0.00    +0.000 A 
ATOM     26  C   UNL     1       4.535   3.878  16.433  0.00  0.00    +0.000 A 
ATOM     27  C   UNL     1       3.656   4.527  17.310  0.00  0.00    +0.000 A 
BRANCH  27  28
ATOM     28  N   UNL     1       2.547   3.745  17.828  0.00  0.00    +0.000 N 
ATOM     29  O   UNL     1       1.452   3.889  17.268  0.00  0.00    +0.000 OA
ATOM     30  O   UNL     1       2.805   2.928  18.724  0.00  0.00    +0.000 OA
ENDBRANCH  27  28
ENDBRANCH  19  22
ENDBRANCH  16  17
ENDBRANCH   1  16
TORSDOF 9
ENDMDL
MODEL 5
REMARK VINA RESULT:      -7.3      5.653      8.974
REMARK  Name = 
REMARK  10 active torsions:
REMARK  status: ('A' for Active; 'I' for Inactive)
REMARK    1  A    between atoms: C_1  and  O_2
REMARK    2  A    between atoms: O_2  and  C_3
REMARK    3  A    between atoms: C_5  and  C_6
REMARK    4  A    between atoms: C_7  and  C_8
REMARK    5  A    between atoms: C_8  and  O_10
REMARK    6  A    between atoms: C_13  and  O_14
REMARK    7  A    between atoms: O_14  and  C_15
REMARK    8  A    between atoms: C_15  and  C_16
REMARK    9  A    between atoms: N_18  and  C_19
REMARK   10  A    between atoms: C_24  and  N_25
REMARK                            x       y       z     vdW  Elec       q    Type
REMARK                         _______ _______ _______ _____ _____    ______ ____
ROOT
ATOM      1  O   UNL     1       7.701   4.824  16.332  0.00  0.00    +0.000 OA
ENDROOT
BRANCH   1   7
ATOM      2  C   UNL     1       7.420   4.958  13.935  0.00  0.00    +0.000 A 
ATOM      3  C   UNL     1       6.705   4.555  12.790  0.00  0.00    +0.000 A 
ATOM      4  C   UNL     1       5.588   3.717  12.866  0.00  0.00    +0.000 A 
ATOM      5  C   UNL     1       5.142   3.323  14.120  0.00  0.00    +0.000 A 
ATOM      6  C   UNL     1       5.822   3.731  15.262  0.00  0.00    +0.000 A 
ATOM      7  C   UNL     1       6.995   4.508  15.192  0.00  0.00    +0.000 A 
BRANCH   2   9
ATOM      8  C   UNL     1       8.656   6.176  12.253  0.00  0.00    +0.000 C 
ATOM      9  O   UNL     1       8.448   5.793  13.600  0.00  0.00    +0.000 OA
ENDBRANCH   2   9
BRANCH   4  10
ATOM     10  C   UNL     1       4.806   3.299  11.701  0.00  0.00    +0.000 C 
ATOM     11  C   UNL     1       3.869   4.051  11.105  0.00  0.00    +0.000 C 
BRANCH  11  12
ATOM     12  C   UNL     1       3.151   3.489   9.946  0.00  0.00    +0.000 C 
ATOM     13  O   UNL     1       2.759   2.340   9.859  0.00  0.00    +0.000 OA
BRANCH  12  14
ATOM     14  O   UNL     1       2.964   4.411   8.980  0.00  0.00    +0.000 OA
ATOM     15  H   UNL     1       2.677   4.062   8.118  0.00  0.00    +0.000 HD
ENDBRANCH  12  14
ENDBRANCH  11  12
ENDBRANCH   4  10
ENDBRANCH   1   7
BRANCH   1  16
ATOM     16  C   UNL     1       7.125   5.927  17.066  0.00  0.00    +0.000 C 
BRANCH  16  17
ATOM     17  C   UNL     1       5.788   5.646  17.619  0.00  0.00    +0.000 A 
ATOM     18  C   UNL     1       5.331   4.574  18.337  0.00  0.00    +0.000 A 
ATOM     19  N   UNL     1       4.007   4.846  18.555  0.00  0.00    +0.000 N 
ATOM     20  N   UNL     1       3.659   5.986  17.925  0.00  0.00    +0.000 NA
ATOM     21  N   UNL     1       4.748   6.499  17.375  0.00  0.00    +0.000 NA
BRANCH  19  22
ATOM     22  C   UNL     1       3.136   4.160  19.418  0.00  0.00    +0.000 A 
ATOM     23  C   UNL     1       2.894   4.712  20.688  0.00  0.00    +0.000 A 
ATOM     24  C   UNL     1       1.980   4.114  21.551  0.00  0.00    +0.000 A 
ATOM     25  C   UNL     1       1.306   2.954  21.165  0.00  0.00    +0.000 A 
ATOM     26  C   UNL     1       1.545   2.387  19.913  0.00  0.00    +0.000 A 
ATOM     27  C   UNL     1       2.454   2.999  19.040  0.00  0.00    +0.000 A 
BRANCH  27  28
ATOM     28  N   UNL     1       2.776   2.283  17.817  0.00  0.00    +0.000 N 
ATOM     29  O   UNL     1       2.281   2.717  16.768  0.00  0.00    +0.000 OA
ATOM     30  O   UNL     1       3.596   1.357  17.907  0.00  0.00    +0.000 OA
ENDBRANCH  27  28
ENDBRANCH  19  22
ENDBRANCH  16  17
ENDBRANCH   1  16
TORSDOF 9
ENDMDL
MODEL 6
REMARK VINA RESULT:      -7.3      6.746      8.293
REMARK  Name = 
REMARK  10 active torsions:
REMARK  status: ('A' for Active; 'I' for Inactive)
REMARK    1  A    between atoms: C_1  and  O_2
REMARK    2  A    between atoms: O_2  and  C_3
REMARK    3  A    between atoms: C_5  and  C_6
REMARK    4  A    between atoms: C_7  and  C_8
REMARK    5  A    between atoms: C_8  and  O_10
REMARK    6  A    between atoms: C_13  and  O_14
REMARK    7  A    between atoms: O_14  and  C_15
REMARK    8  A    between atoms: C_15  and  C_16
REMARK    9  A    between atoms: N_18  and  C_19
REMARK   10  A    between atoms: C_24  and  N_25
REMARK                            x       y       z     vdW  Elec       q    Type
REMARK                         _______ _______ _______ _____ _____    ______ ____
ROOT
ATOM      1  O   UNL     1       2.562   5.641  19.242  0.00  0.00    +0.000 OA
ENDROOT
BRANCH   1   7
ATOM      2  C   UNL     1       3.631   3.812  18.079  0.00  0.00    +0.000 A 
ATOM      3  C   UNL     1       4.419   3.382  16.994  0.00  0.00    +0.000 A 
ATOM      4  C   UNL     1       4.955   4.277  16.062  0.00  0.00    +0.000 A 
ATOM      5  C   UNL     1       4.746   5.636  16.255  0.00  0.00    +0.000 A 
ATOM      6  C   UNL     1       3.991   6.078  17.335  0.00  0.00    +0.000 A 
ATOM      7  C   UNL     1       3.379   5.182  18.233  0.00  0.00    +0.000 A 
BRANCH   2   9
ATOM      8  C   UNL     1       3.966   2.436  20.037  0.00  0.00    +0.000 C 
ATOM      9  O   UNL     1       3.253   2.754  18.857  0.00  0.00    +0.000 OA
ENDBRANCH   2   9
BRANCH   4  10
ATOM     10  C   UNL     1       5.799   3.870  14.937  0.00  0.00    +0.000 C 
ATOM     11  C   UNL     1       5.695   4.358  13.692  0.00  0.00    +0.000 C 
BRANCH  11  12
ATOM     12  C   UNL     1       6.608   3.840  12.656  0.00  0.00    +0.000 C 
ATOM     13  O   UNL     1       7.458   4.498  12.086  0.00  0.00    +0.000 OA
BRANCH  12  14
ATOM     14  O   UNL     1       6.398   2.531  12.416  0.00  0.00    +0.000 OA
ATOM     15  H   UNL     1       7.046   1.923  12.813  0.00  0.00    +0.000 HD
ENDBRANCH  12  14
ENDBRANCH  11  12
ENDBRANCH   4  10
ENDBRANCH   1   7
BRANCH   1  16
ATOM     16  C   UNL     1       2.967   6.929  19.756  0.00  0.00    +0.000 C 
BRANCH  16  17
ATOM     17  C   UNL     1       1.844   7.829  20.071  0.00  0.00    +0.000 A 
ATOM     18  C   UNL     1       1.385   8.940  19.416  0.00  0.00    +0.000 A 
ATOM     19  N   UNL     1       0.337   9.381  20.179  0.00  0.00    +0.000 N 
ATOM     20  N   UNL     1       0.222   8.624  21.289  0.00  0.00    +0.000 NA
ATOM     21  N   UNL     1       1.120   7.653  21.217  0.00  0.00    +0.000 NA
BRANCH  19  22
ATOM     22  C   UNL     1      -0.601  10.368  19.834  0.00  0.00    +0.000 A 
ATOM     23  C   UNL     1      -1.355  10.181  18.661  0.00  0.00    +0.000 A 
ATOM     24  C   UNL     1      -2.351  11.090  18.316  0.00  0.00    +0.000 A 
ATOM     25  C   UNL     1      -2.601  12.199  19.126  0.00  0.00    +0.000 A 
ATOM     26  C   UNL     1      -1.853  12.404  20.286  0.00  0.00    +0.000 A 
ATOM     27  C   UNL     1      -0.860  11.481  20.640  0.00  0.00    +0.000 A 
BRANCH  27  28
ATOM     28  N   UNL     1      -0.014  11.825  21.769  0.00  0.00    +0.000 N 
ATOM     29  O   UNL     1       1.040  12.423  21.517  0.00  0.00    +0.000 OA
ATOM     30  O   UNL     1      -0.459  11.579  22.900  0.00  0.00    +0.000 OA
ENDBRANCH  27  28
ENDBRANCH  19  22
ENDBRANCH  16  17
ENDBRANCH   1  16
TORSDOF 9
ENDMDL
MODEL 7
REMARK VINA RESULT:      -7.2      6.439      8.642
REMARK  Name = 
REMARK  10 active torsions:
REMARK  status: ('A' for Active; 'I' for Inactive)
REMARK    1  A    between atoms: C_1  and  O_2
REMARK    2  A    between atoms: O_2  and  C_3
REMARK    3  A    between atoms: C_5  and  C_6
REMARK    4  A    between atoms: C_7  and  C_8
REMARK    5  A    between atoms: C_8  and  O_10
REMARK    6  A    between atoms: C_13  and  O_14
REMARK    7  A    between atoms: O_14  and  C_15
REMARK    8  A    between atoms: C_15  and  C_16
REMARK    9  A    between atoms: N_18  and  C_19
REMARK   10  A    between atoms: C_24  and  N_25
REMARK                            x       y       z     vdW  Elec       q    Type
REMARK                         _______ _______ _______ _____ _____    ______ ____
ROOT
ATOM      1  O   UNL     1       1.473   5.560  19.991  0.00  0.00    +0.000 OA
ENDROOT
BRANCH   1   7
ATOM      2  C   UNL     1       2.134   4.224  18.089  0.00  0.00    +0.000 A 
ATOM      3  C   UNL     1       3.102   3.938  17.107  0.00  0.00    +0.000 A 
ATOM      4  C   UNL     1       4.333   4.602  17.058  0.00  0.00    +0.000 A 
ATOM      5  C   UNL     1       4.623   5.529  18.049  0.00  0.00    +0.000 A 
ATOM      6  C   UNL     1       3.687   5.806  19.040  0.00  0.00    +0.000 A 
ATOM      7  C   UNL     1       2.414   5.203  19.052  0.00  0.00    +0.000 A 
BRANCH   2   9
ATOM      8  C   UNL     1       0.837   2.307  18.785  0.00  0.00    +0.000 C 
ATOM      9  O   UNL     1       1.036   3.425  17.939  0.00  0.00    +0.000 OA
ENDBRANCH   2   9
BRANCH   4  10
ATOM     10  C   UNL     1       5.372   4.313  16.069  0.00  0.00    +0.000 C 
ATOM     11  C   UNL     1       5.569   5.017  14.944  0.00  0.00    +0.000 C 
BRANCH  11  12
ATOM     12  C   UNL     1       6.650   4.598  14.033  0.00  0.00    +0.000 C 
ATOM     13  O   UNL     1       6.559   3.710  13.207  0.00  0.00    +0.000 OA
BRANCH  12  14
ATOM     14  O   UNL     1       7.767   5.331  14.214  0.00  0.00    +0.000 OA
ATOM     15  H   UNL     1       8.368   5.374  13.450  0.00  0.00    +0.000 HD
ENDBRANCH  12  14
ENDBRANCH  11  12
ENDBRANCH   4  10
ENDBRANCH   1   7
BRANCH   1  16
ATOM     16  C   UNL     1       1.940   6.580  20.900  0.00  0.00    +0.000 C 
BRANCH  16  17
ATOM     17  C   UNL     1       1.312   7.898  20.696  0.00  0.00    +0.000 A 
ATOM     18  C   UNL     1       0.294   8.513  21.375  0.00  0.00    +0.000 A 
ATOM     19  N   UNL     1       0.120   9.705  20.726  0.00  0.00    +0.000 N 
ATOM     20  N   UNL     1       0.934   9.773  19.654  0.00  0.00    +0.000 NA
ATOM     21  N   UNL     1       1.689   8.685  19.644  0.00  0.00    +0.000 NA
BRANCH  19  22
ATOM     22  C   UNL     1      -0.662  10.792  21.155  0.00  0.00    +0.000 A 
ATOM     23  C   UNL     1      -0.692  11.081  22.531  0.00  0.00    +0.000 A 
ATOM     24  C   UNL     1      -1.388  12.193  22.998  0.00  0.00    +0.000 A 
ATOM     25  C   UNL     1      -2.069  13.021  22.105  0.00  0.00    +0.000 A 
ATOM     26  C   UNL     1      -2.059  12.739  20.738  0.00  0.00    +0.000 A 
ATOM     27  C   UNL     1      -1.346  11.628  20.268  0.00  0.00    +0.000 A 
BRANCH  27  28
ATOM     28  N   UNL     1      -1.496  11.298  18.861  0.00  0.00    +0.000 N 
ATOM     29  O   UNL     1      -2.227  10.337  18.588  0.00  0.00    +0.000 OA
ATOM     30  O   UNL     1      -0.960  12.061  18.044  0.00  0.00    +0.000 OA
ENDBRANCH  27  28
ENDBRANCH  19  22
ENDBRANCH  16  17
ENDBRANCH   1  16
TORSDOF 9
ENDMDL
MODEL 8
REMARK VINA RESULT:      -7.2      7.324      9.384
REMARK  Name = 
REMARK  10 active torsions:
REMARK  status: ('A' for Active; 'I' for Inactive)
REMARK    1  A    between atoms: C_1  and  O_2
REMARK    2  A    between atoms: O_2  and  C_3
REMARK    3  A    between atoms: C_5  and  C_6
REMARK    4  A    between atoms: C_7  and  C_8
REMARK    5  A    between atoms: C_8  and  O_10
REMARK    6  A    between atoms: C_13  and  O_14
REMARK    7  A    between atoms: O_14  and  C_15
REMARK    8  A    between atoms: C_15  and  C_16
REMARK    9  A    between atoms: N_18  and  C_19
REMARK   10  A    between atoms: C_24  and  N_25
REMARK                            x       y       z     vdW  Elec       q    Type
REMARK                         _______ _______ _______ _____ _____    ______ ____
ROOT
ATOM      1  O   UNL     1       1.114   8.569  19.308  0.00  0.00    +0.000 OA
ENDROOT
BRANCH   1   7
ATOM      2  C   UNL     1       2.516   6.615  19.541  0.00  0.00    +0.000 A 
ATOM      3  C   UNL     1       3.576   5.836  19.036  0.00  0.00    +0.000 A 
ATOM      4  C   UNL     1       4.302   6.211  17.901  0.00  0.00    +0.000 A 
ATOM      5  C   UNL     1       3.999   7.423  17.294  0.00  0.00    +0.000 A 
ATOM      6  C   UNL     1       2.972   8.216  17.794  0.00  0.00    +0.000 A 
ATOM      7  C   UNL     1       2.182   7.809  18.887  0.00  0.00    +0.000 A 
BRANCH   2   9
ATOM      8  C   UNL     1       1.931   4.643  20.809  0.00  0.00    +0.000 C 
ATOM      9  O   UNL     1       1.989   6.050  20.668  0.00  0.00    +0.000 OA
ENDBRANCH   2   9
BRANCH   4  10
ATOM     10  C   UNL     1       5.424   5.440  17.363  0.00  0.00    +0.000 C 
ATOM     11  C   UNL     1       6.217   5.849  16.362  0.00  0.00    +0.000 C 
BRANCH  11  12
ATOM     12  C   UNL     1       7.303   4.956  15.916  0.00  0.00    +0.000 C 
ATOM     13  O   UNL     1       7.881   4.155  16.626  0.00  0.00    +0.000 OA
BRANCH  12  14
ATOM     14  O   UNL     1       7.580   5.123  14.608  0.00  0.00    +0.000 OA
ATOM     15  H   UNL     1       7.039   5.787  14.147  0.00  0.00    +0.000 HD
ENDBRANCH  12  14
ENDBRANCH  11  12
ENDBRANCH   4  10
ENDBRANCH   1   7
BRANCH   1  16
ATOM     16  C   UNL     1       0.896   9.740  18.490  0.00  0.00    +0.000 C 
BRANCH  16  17
ATOM     17  C   UNL     1       0.099  10.790  19.147  0.00  0.00    +0.000 A 
ATOM     18  C   UNL     1      -1.169  10.753  19.662  0.00  0.00    +0.000 A 
ATOM     19  N   UNL     1      -1.392  12.024  20.119  0.00  0.00    +0.000 N 
ATOM     20  N   UNL     1      -0.343  12.815  19.819  0.00  0.00    +0.000 NA
ATOM     21  N   UNL     1       0.588  12.063  19.251  0.00  0.00    +0.000 NA
BRANCH  19  22
ATOM     22  C   UNL     1      -2.463  12.456  20.919  0.00  0.00    +0.000 A 
ATOM     23  C   UNL     1      -3.655  12.839  20.277  0.00  0.00    +0.000 A 
ATOM     24  C   UNL     1      -4.771  13.200  21.027  0.00  0.00    +0.000 A 
ATOM     25  C   UNL     1      -4.711  13.196  22.421  0.00  0.00    +0.000 A 
ATOM     26  C   UNL     1      -3.532  12.830  23.072  0.00  0.00    +0.000 A 
ATOM     27  C   UNL     1      -2.414  12.453  22.316  0.00  0.00    +0.000 A 
BRANCH  27  28
ATOM     28  N   UNL     1      -1.174  12.232  23.040  0.00  0.00    +0.000 N 
ATOM     29  O   UNL     1      -0.553  13.238  23.406  0.00  0.00    +0.000 OA
ATOM     30  O   UNL     1      -0.888  11.058  23.318  0.00  0.00    +0.000 OA
ENDBRANCH  27  28
ENDBRANCH  19  22
ENDBRANCH  16  17
ENDBRANCH   1  16
TORSDOF 9
ENDMDL
MODEL 9
REMARK VINA RESULT:      -7.2      7.077     10.369
REMARK  Name = 
REMARK  10 active torsions:
REMARK  status: ('A' for Active; 'I' for Inactive)
REMARK    1  A    between atoms: C_1  and  O_2
REMARK    2  A    between atoms: O_2  and  C_3
REMARK    3  A    between atoms: C_5  and  C_6
REMARK    4  A    between atoms: C_7  and  C_8
REMARK    5  A    between atoms: C_8  and  O_10
REMARK    6  A    between atoms: C_13  and  O_14
REMARK    7  A    between atoms: O_14  and  C_15
REMARK    8  A    between atoms: C_15  and  C_16
REMARK    9  A    between atoms: N_18  and  C_19
REMARK   10  A    between atoms: C_24  and  N_25
REMARK                            x       y       z     vdW  Elec       q    Type
REMARK                         _______ _______ _______ _____ _____    ______ ____
ROOT
ATOM      1  O   UNL     1       1.198  10.372  19.164  0.00  0.00    +0.000 OA
ENDROOT
BRANCH   1   7
ATOM      2  C   UNL     1      -0.916  11.475  19.554  0.00  0.00    +0.000 A 
ATOM      3  C   UNL     1      -2.241  11.705  19.133  0.00  0.00    +0.000 A 
ATOM      4  C   UNL     1      -2.787  11.072  18.012  0.00  0.00    +0.000 A 
ATOM      5  C   UNL     1      -2.009  10.144  17.332  0.00  0.00    +0.000 A 
ATOM      6  C   UNL     1      -0.708   9.888  17.749  0.00  0.00    +0.000 A 
ATOM      7  C   UNL     1      -0.121  10.579  18.827  0.00  0.00    +0.000 A 
BRANCH   2   9
ATOM      8  C   UNL     1      -0.711  11.577  21.960  0.00  0.00    +0.000 C 
ATOM      9  O   UNL     1      -0.633  12.187  20.685  0.00  0.00    +0.000 OA
ENDBRANCH   2   9
BRANCH   4  10
ATOM     10  C   UNL     1      -4.166  11.267  17.561  0.00  0.00    +0.000 C 
ATOM     11  C   UNL     1      -5.083  11.999  18.210  0.00  0.00    +0.000 C 
BRANCH  11  12
ATOM     12  C   UNL     1      -6.440  12.093  17.640  0.00  0.00    +0.000 C 
ATOM     13  O   UNL     1      -6.844  13.013  16.954  0.00  0.00    +0.000 OA
BRANCH  12  14
ATOM     14  O   UNL     1      -7.191  11.022  17.962  0.00  0.00    +0.000 OA
ATOM     15  H   UNL     1      -7.929  11.196  18.572  0.00  0.00    +0.000 HD
ENDBRANCH  12  14
ENDBRANCH  11  12
ENDBRANCH   4  10
ENDBRANCH   1   7
BRANCH   1  16
ATOM     16  C   UNL     1       1.911   9.573  18.194  0.00  0.00    +0.000 C 
BRANCH  16  17
ATOM     17  C   UNL     1       2.109   8.171  18.601  0.00  0.00    +0.000 A 
ATOM     18  C   UNL     1       2.282   7.042  17.846  0.00  0.00    +0.000 A 
ATOM     19  N   UNL     1       2.391   6.030  18.761  0.00  0.00    +0.000 N 
ATOM     20  N   UNL     1       2.206   6.510  20.007  0.00  0.00    +0.000 NA
ATOM     21  N   UNL     1       2.064   7.824  19.923  0.00  0.00    +0.000 NA
BRANCH  19  22
ATOM     22  C   UNL     1       2.784   4.705  18.509  0.00  0.00    +0.000 A 
ATOM     23  C   UNL     1       1.777   3.735  18.356  0.00  0.00    +0.000 A 
ATOM     24  C   UNL     1       2.111   2.423  18.028  0.00  0.00    +0.000 A 
ATOM     25  C   UNL     1       3.448   2.060  17.861  0.00  0.00    +0.000 A 
ATOM     26  C   UNL     1       4.458   3.009  18.021  0.00  0.00    +0.000 A 
ATOM     27  C   UNL     1       4.120   4.332  18.336  0.00  0.00    +0.000 A 
BRANCH  27  28
ATOM     28  N   UNL     1       5.215   5.236  18.641  0.00  0.00    +0.000 N 
ATOM     29  O   UNL     1       5.811   5.053  19.711  0.00  0.00    +0.000 OA
ATOM     30  O   UNL     1       5.528   6.056  17.764  0.00  0.00    +0.000 OA
ENDBRANCH  27  28
ENDBRANCH  19  22
ENDBRANCH  16  17
ENDBRANCH   1  16
TORSDOF 9
ENDMDL
