MODEL 1
REMARK VINA RESULT:      -9.1      0.000      0.000
REMARK  Name = 
REMARK  4 active torsions:
REMARK  status: ('A' for Active; 'I' for Inactive)
REMARK    1  A    between atoms: S_2  and  N_4
REMARK    2  A    between atoms: S_2  and  C_10
REMARK    3  A    between atoms: C_14  and  C_15
REMARK    4  A    between atoms: C_18  and  C_19
REMARK                            x       y       z     vdW  Elec       q    Type
REMARK                         _______ _______ _______ _____ _____    ______ ____
ROOT
ATOM      1  C   UNL     1       0.850  10.702  19.035  0.00  0.00    +0.000 A 
ATOM      2  C   UNL     1       1.626  10.358  17.938  0.00  0.00    +0.000 A 
ATOM      3  C   UNL     1       2.234   9.102  17.906  0.00  0.00    +0.000 A 
ATOM      4  C   UNL     1       2.039   8.134  18.925  0.00  0.00    +0.000 A 
ATOM      5  C   UNL     1       2.599   6.819  18.957  0.00  0.00    +0.000 A 
ATOM      6  N   UNL     1       2.391   5.964  19.994  0.00  0.00    +0.000 NA
ATOM      7  C   UNL     1       1.653   6.391  21.035  0.00  0.00    +0.000 A 
ATOM      8  C   UNL     1       1.060   7.635  21.098  0.00  0.00    +0.000 A 
ATOM      9  C   UNL     1       1.240   8.518  20.033  0.00  0.00    +0.000 A 
ATOM     10  C   UNL     1       0.650   9.794  20.076  0.00  0.00    +0.000 A 
ENDROOT
BRANCH   5  11
ATOM     11  C   UNL     1       3.496   6.279  17.903  0.00  0.00    +0.000 A 
ATOM     12  C   UNL     1       4.527   7.049  17.334  0.00  0.00    +0.000 A 
ATOM     13  C   UNL     1       5.500   6.478  16.504  0.00  0.00    +0.000 A 
ATOM     14  C   UNL     1       5.419   5.131  16.139  0.00  0.00    +0.000 A 
ATOM     15  C   UNL     1       4.320   4.388  16.581  0.00  0.00    +0.000 A 
ATOM     16  C   UNL     1       3.388   4.952  17.456  0.00  0.00    +0.000 A 
ATOM     17  F   UNL     1       2.402   4.153  17.894  0.00  0.00    +0.000 F 
BRANCH  14  18
ATOM     18  C   UNL     1       6.488   4.482  15.296  0.00  0.00    +0.000 C 
ATOM     19  F   UNL     1       7.681   4.354  15.941  0.00  0.00    +0.000 F 
ATOM     20  F   UNL     1       6.144   3.223  14.902  0.00  0.00    +0.000 F 
ATOM     21  F   UNL     1       6.747   5.175  14.157  0.00  0.00    +0.000 F 
ENDBRANCH  14  18
ENDBRANCH   5  11
BRANCH   1  23
ATOM     22  O   UNL     1       1.192  13.285  19.138  0.00  0.00    +0.000 OA
ATOM     23  S   UNL     1       0.120  12.313  19.119  0.00  0.00    +0.000 S 
ATOM     24  O   UNL     1      -0.881  12.292  20.167  0.00  0.00    +0.000 OA
BRANCH  23  25
ATOM     25  N   UNL     1      -0.775  12.375  17.687  0.00  0.00    +0.000 N 
ATOM     26  C   UNL     1      -1.928  11.566  17.764  0.00  0.00    +0.000 A 
ATOM     27  N   UNL     1      -3.028  12.021  18.311  0.00  0.00    +0.000 NA
ATOM     28  C   UNL     1      -4.009  11.051  18.216  0.00  0.00    +0.000 A 
ATOM     29  C   UNL     1      -3.626   9.878  17.600  0.00  0.00    +0.000 A 
ATOM     30  S   UNL     1      -2.007  10.018  17.051  0.00  0.00    +0.000 S 
ATOM     31  H   UNL     1      -0.144  12.072  16.948  0.00  0.00    +0.000 HD
ENDBRANCH  23  25
ENDBRANCH   1  23
TORSDOF 4
ENDMDL
MODEL 2
REMARK VINA RESULT:      -9.0      3.189      4.743
REMARK  Name = 
REMARK  4 active torsions:
REMARK  status: ('A' for Active; 'I' for Inactive)
REMARK    1  A    between atoms: S_2  and  N_4
REMARK    2  A    between atoms: S_2  and  C_10
REMARK    3  A    between atoms: C_14  and  C_15
REMARK    4  A    between atoms: C_18  and  C_19
REMARK                            x       y       z     vdW  Elec       q    Type
REMARK                         _______ _______ _______ _____ _____    ______ ____
ROOT
ATOM      1  C   UNL     1      -3.348  11.258  18.363  0.00  0.00    +0.000 A 
ATOM      2  C   UNL     1      -2.797  10.092  17.852  0.00  0.00    +0.000 A 
ATOM      3  C   UNL     1      -1.490   9.751  18.202  0.00  0.00    +0.000 A 
ATOM      4  C   UNL     1      -0.718  10.518  19.112  0.00  0.00    +0.000 A 
ATOM      5  C   UNL     1       0.613  10.226  19.545  0.00  0.00    +0.000 A 
ATOM      6  N   UNL     1       1.296  11.038  20.395  0.00  0.00    +0.000 NA
ATOM      7  C   UNL     1       0.700  12.169  20.816  0.00  0.00    +0.000 A 
ATOM      8  C   UNL     1      -0.583  12.537  20.467  0.00  0.00    +0.000 A 
ATOM      9  C   UNL     1      -1.311  11.705  19.616  0.00  0.00    +0.000 A 
ATOM     10  C   UNL     1      -2.619  12.061  19.241  0.00  0.00    +0.000 A 
ENDROOT
BRANCH   5  11
ATOM     11  C   UNL     1       1.393   9.053  19.076  0.00  0.00    +0.000 A 
ATOM     12  C   UNL     1       1.988   9.013  17.801  0.00  0.00    +0.000 A 
ATOM     13  C   UNL     1       2.896   8.008  17.443  0.00  0.00    +0.000 A 
ATOM     14  C   UNL     1       3.167   6.953  18.318  0.00  0.00    +0.000 A 
ATOM     15  C   UNL     1       2.475   6.902  19.533  0.00  0.00    +0.000 A 
ATOM     16  C   UNL     1       1.616   7.941  19.904  0.00  0.00    +0.000 A 
ATOM     17  F   UNL     1       1.045   7.855  21.115  0.00  0.00    +0.000 F 
BRANCH  14  18
ATOM     18  C   UNL     1       4.185   5.894  17.978  0.00  0.00    +0.000 C 
ATOM     19  F   UNL     1       3.839   4.651  18.415  0.00  0.00    +0.000 F 
ATOM     20  F   UNL     1       4.376   5.772  16.633  0.00  0.00    +0.000 F 
ATOM     21  F   UNL     1       5.407   6.155  18.510  0.00  0.00    +0.000 F 
ENDBRANCH  14  18
ENDBRANCH   5  11
BRANCH   1  23
ATOM     22  O   UNL     1      -5.897  10.712  18.339  0.00  0.00    +0.000 OA
ATOM     23  S   UNL     1      -4.983  11.737  17.883  0.00  0.00    +0.000 S 
ATOM     24  O   UNL     1      -4.940  12.123  16.486  0.00  0.00    +0.000 OA
BRANCH  23  25
ATOM     25  N   UNL     1      -5.188  13.194  18.714  0.00  0.00    +0.000 N 
ATOM     26  C   UNL     1      -6.078  13.049  19.798  0.00  0.00    +0.000 A 
ATOM     27  N   UNL     1      -5.654  12.607  20.956  0.00  0.00    +0.000 NA
ATOM     28  C   UNL     1      -6.711  12.604  21.847  0.00  0.00    +0.000 A 
ATOM     29  C   UNL     1      -7.917  13.043  21.341  0.00  0.00    +0.000 A 
ATOM     30  S   UNL     1      -7.706  13.549  19.715  0.00  0.00    +0.000 S 
ATOM     31  H   UNL     1      -5.528  13.863  18.026  0.00  0.00    +0.000 HD
ENDBRANCH  23  25
ENDBRANCH   1  23
TORSDOF 4
ENDMDL
MODEL 3
REMARK VINA RESULT:      -9.0      1.869      3.094
REMARK  Name = 
REMARK  4 active torsions:
REMARK  status: ('A' for Active; 'I' for Inactive)
REMARK    1  A    between atoms: S_2  and  N_4
REMARK    2  A    between atoms: S_2  and  C_10
REMARK    3  A    between atoms: C_14  and  C_15
REMARK    4  A    between atoms: C_18  and  C_19
REMARK                            x       y       z     vdW  Elec       q    Type
REMARK                         _______ _______ _______ _____ _____    ______ ____
ROOT
ATOM      1  C   UNL     1       0.904  10.439  19.164  0.00  0.00    +0.000 A 
ATOM      2  C   UNL     1       1.651  10.144  18.033  0.00  0.00    +0.000 A 
ATOM      3  C   UNL     1       2.276   8.901  17.939  0.00  0.00    +0.000 A 
ATOM      4  C   UNL     1       2.128   7.895  18.929  0.00  0.00    +0.000 A 
ATOM      5  C   UNL     1       2.709   6.589  18.898  0.00  0.00    +0.000 A 
ATOM      6  N   UNL     1       2.547   5.696  19.911  0.00  0.00    +0.000 NA
ATOM      7  C   UNL     1       1.835   6.075  20.989  0.00  0.00    +0.000 A 
ATOM      8  C   UNL     1       1.226   7.307  21.113  0.00  0.00    +0.000 A 
ATOM      9  C   UNL     1       1.359   8.228  20.074  0.00  0.00    +0.000 A 
ATOM     10  C   UNL     1       0.751   9.493  20.179  0.00  0.00    +0.000 A 
ENDROOT
BRANCH   5  11
ATOM     11  C   UNL     1       3.580   6.100  17.799  0.00  0.00    +0.000 A 
ATOM     12  C   UNL     1       4.531   6.929  17.175  0.00  0.00    +0.000 A 
ATOM     13  C   UNL     1       5.492   6.414  16.296  0.00  0.00    +0.000 A 
ATOM     14  C   UNL     1       5.473   5.064  15.937  0.00  0.00    +0.000 A 
ATOM     15  C   UNL     1       4.447   4.257  16.438  0.00  0.00    +0.000 A 
ATOM     16  C   UNL     1       3.529   4.767  17.360  0.00  0.00    +0.000 A 
ATOM     17  F   UNL     1       2.619   3.912  17.850  0.00  0.00    +0.000 F 
BRANCH  14  18
ATOM     18  C   UNL     1       6.534   4.477  15.040  0.00  0.00    +0.000 C 
ATOM     19  F   UNL     1       6.142   3.329  14.418  0.00  0.00    +0.000 F 
ATOM     20  F   UNL     1       6.899   5.331  14.042  0.00  0.00    +0.000 F 
ATOM     21  F   UNL     1       7.675   4.171  15.710  0.00  0.00    +0.000 F 
ENDBRANCH  14  18
ENDBRANCH   5  11
BRANCH   1  23
ATOM     22  O   UNL     1       0.451  12.532  20.652  0.00  0.00    +0.000 OA
ATOM     23  S   UNL     1       0.153  12.033  19.326  0.00  0.00    +0.000 S 
ATOM     24  O   UNL     1      -1.217  11.927  18.865  0.00  0.00    +0.000 OA
BRANCH  23  25
ATOM     25  N   UNL     1       0.933  12.920  18.117  0.00  0.00    +0.000 N 
ATOM     26  C   UNL     1       1.823  13.868  18.665  0.00  0.00    +0.000 A 
ATOM     27  N   UNL     1       3.039  13.523  19.006  0.00  0.00    +0.000 NA
ATOM     28  C   UNL     1       3.708  14.641  19.469  0.00  0.00    +0.000 A 
ATOM     29  C   UNL     1       2.977  15.812  19.471  0.00  0.00    +0.000 A 
ATOM     30  S   UNL     1       1.425  15.521  18.800  0.00  0.00    +0.000 S 
ATOM     31  H   UNL     1       0.194  13.360  17.572  0.00  0.00    +0.000 HD
ENDBRANCH  23  25
ENDBRANCH   1  23
TORSDOF 4
ENDMDL
MODEL 4
REMARK VINA RESULT:      -8.9      1.986      2.630
REMARK  Name = 
REMARK  4 active torsions:
REMARK  status: ('A' for Active; 'I' for Inactive)
REMARK    1  A    between atoms: S_2  and  N_4
REMARK    2  A    between atoms: S_2  and  C_10
REMARK    3  A    between atoms: C_14  and  C_15
REMARK    4  A    between atoms: C_18  and  C_19
REMARK                            x       y       z     vdW  Elec       q    Type
REMARK                         _______ _______ _______ _____ _____    ______ ____
ROOT
ATOM      1  C   UNL     1       0.988  10.267  19.210  0.00  0.00    +0.000 A 
ATOM      2  C   UNL     1       1.722  10.007  18.062  0.00  0.00    +0.000 A 
ATOM      3  C   UNL     1       2.349   8.769  17.925  0.00  0.00    +0.000 A 
ATOM      4  C   UNL     1       2.216   7.735  18.889  0.00  0.00    +0.000 A 
ATOM      5  C   UNL     1       2.800   6.432  18.814  0.00  0.00    +0.000 A 
ATOM      6  N   UNL     1       2.652   5.510  19.803  0.00  0.00    +0.000 NA
ATOM      7  C   UNL     1       1.953   5.857  20.900  0.00  0.00    +0.000 A 
ATOM      8  C   UNL     1       1.341   7.083  21.066  0.00  0.00    +0.000 A 
ATOM      9  C   UNL     1       1.459   8.033  20.051  0.00  0.00    +0.000 A 
ATOM     10  C   UNL     1       0.850   9.292  20.199  0.00  0.00    +0.000 A 
ENDROOT
BRANCH   5  11
ATOM     11  C   UNL     1       3.659   5.977  17.692  0.00  0.00    +0.000 A 
ATOM     12  C   UNL     1       4.554   6.844  17.036  0.00  0.00    +0.000 A 
ATOM     13  C   UNL     1       5.510   6.368  16.130  0.00  0.00    +0.000 A 
ATOM     14  C   UNL     1       5.541   5.016  15.778  0.00  0.00    +0.000 A 
ATOM     15  C   UNL     1       4.568   4.167  16.312  0.00  0.00    +0.000 A 
ATOM     16  C   UNL     1       3.656   4.640  17.259  0.00  0.00    +0.000 A 
ATOM     17  F   UNL     1       2.799   3.748  17.780  0.00  0.00    +0.000 F 
BRANCH  14  18
ATOM     18  C   UNL     1       6.600   4.473  14.852  0.00  0.00    +0.000 C 
ATOM     19  F   UNL     1       6.279   3.263  14.313  0.00  0.00    +0.000 F 
ATOM     20  F   UNL     1       6.834   5.298  13.791  0.00  0.00    +0.000 F 
ATOM     21  F   UNL     1       7.798   4.305  15.469  0.00  0.00    +0.000 F 
ENDBRANCH  14  18
ENDBRANCH   5  11
BRANCH   1  23
ATOM     22  O   UNL     1      -1.198  11.684  19.316  0.00  0.00    +0.000 OA
ATOM     23  S   UNL     1       0.235  11.854  19.426  0.00  0.00    +0.000 S 
ATOM     24  O   UNL     1       0.937  12.797  18.577  0.00  0.00    +0.000 OA
BRANCH  23  25
ATOM     25  N   UNL     1       0.713  12.267  20.993  0.00  0.00    +0.000 N 
ATOM     26  C   UNL     1      -0.399  12.432  21.845  0.00  0.00    +0.000 A 
ATOM     27  N   UNL     1      -0.950  11.400  22.433  0.00  0.00    +0.000 NA
ATOM     28  C   UNL     1      -1.981  11.842  23.239  0.00  0.00    +0.000 A 
ATOM     29  C   UNL     1      -2.191  13.206  23.241  0.00  0.00    +0.000 A 
ATOM     30  S   UNL     1      -1.009  13.970  22.261  0.00  0.00    +0.000 S 
ATOM     31  H   UNL     1       1.258  13.123  20.904  0.00  0.00    +0.000 HD
ENDBRANCH  23  25
ENDBRANCH   1  23
TORSDOF 4
ENDMDL
MODEL 5
REMARK VINA RESULT:      -8.8      2.208      3.010
REMARK  Name = 
REMARK  4 active torsions:
REMARK  status: ('A' for Active; 'I' for Inactive)
REMARK    1  A    between atoms: S_2  and  N_4
REMARK    2  A    between atoms: S_2  and  C_10
REMARK    3  A    between atoms: C_14  and  C_15
REMARK    4  A    between atoms: C_18  and  C_19
REMARK                            x       y       z     vdW  Elec       q    Type
REMARK                         _______ _______ _______ _____ _____    ______ ____
ROOT
ATOM      1  C   UNL     1       1.531   7.659  20.575  0.00  0.00    +0.000 A 
ATOM      2  C   UNL     1       2.278   7.788  19.413  0.00  0.00    +0.000 A 
ATOM      3  C   UNL     1       2.966   6.678  18.923  0.00  0.00    +0.000 A 
ATOM      4  C   UNL     1       2.883   5.399  19.532  0.00  0.00    +0.000 A 
ATOM      5  C   UNL     1       3.531   4.206  19.081  0.00  0.00    +0.000 A 
ATOM      6  N   UNL     1       3.428   3.026  19.748  0.00  0.00    +0.000 NA
ATOM      7  C   UNL     1       2.712   2.996  20.888  0.00  0.00    +0.000 A 
ATOM      8  C   UNL     1       2.040   4.086  21.402  0.00  0.00    +0.000 A 
ATOM      9  C   UNL     1       2.112   5.301  20.719  0.00  0.00    +0.000 A 
ATOM     10  C   UNL     1       1.441   6.428  21.226  0.00  0.00    +0.000 A 
ENDROOT
BRANCH   5  11
ATOM     11  C   UNL     1       4.412   4.148  17.888  0.00  0.00    +0.000 A 
ATOM     12  C   UNL     1       3.929   3.775  16.619  0.00  0.00    +0.000 A 
ATOM     13  C   UNL     1       4.703   3.927  15.462  0.00  0.00    +0.000 A 
ATOM     14  C   UNL     1       6.025   4.369  15.547  0.00  0.00    +0.000 A 
ATOM     15  C   UNL     1       6.566   4.608  16.815  0.00  0.00    +0.000 A 
ATOM     16  C   UNL     1       5.768   4.511  17.957  0.00  0.00    +0.000 A 
ATOM     17  F   UNL     1       6.340   4.825  19.129  0.00  0.00    +0.000 F 
BRANCH  14  18
ATOM     18  C   UNL     1       6.856   4.597  14.310  0.00  0.00    +0.000 C 
ATOM     19  F   UNL     1       8.148   4.937  14.581  0.00  0.00    +0.000 F 
ATOM     20  F   UNL     1       6.925   3.488  13.520  0.00  0.00    +0.000 F 
ATOM     21  F   UNL     1       6.362   5.588  13.524  0.00  0.00    +0.000 F 
ENDBRANCH  14  18
ENDBRANCH   5  11
BRANCH   1  23
ATOM     22  O   UNL     1       1.420   9.493  22.425  0.00  0.00    +0.000 OA
ATOM     23  S   UNL     1       0.700   9.072  21.242  0.00  0.00    +0.000 S 
ATOM     24  O   UNL     1      -0.715   8.764  21.307  0.00  0.00    +0.000 OA
BRANCH  23  25
ATOM     25  N   UNL     1       0.828  10.190  19.982  0.00  0.00    +0.000 N 
ATOM     26  C   UNL     1      -0.384  10.885  19.784  0.00  0.00    +0.000 A 
ATOM     27  N   UNL     1      -0.677  11.938  20.505  0.00  0.00    +0.000 NA
ATOM     28  C   UNL     1      -1.889  12.448  20.080  0.00  0.00    +0.000 A 
ATOM     29  C   UNL     1      -2.490  11.765  19.042  0.00  0.00    +0.000 A 
ATOM     30  S   UNL     1      -1.470  10.485  18.530  0.00  0.00    +0.000 S 
ATOM     31  H   UNL     1       1.102   9.657  19.160  0.00  0.00    +0.000 HD
ENDBRANCH  23  25
ENDBRANCH   1  23
TORSDOF 4
ENDMDL
MODEL 6
REMARK VINA RESULT:      -8.8      2.488      3.437
REMARK  Name = 
REMARK  4 active torsions:
REMARK  status: ('A' for Active; 'I' for Inactive)
REMARK    1  A    between atoms: S_2  and  N_4
REMARK    2  A    between atoms: S_2  and  C_10
REMARK    3  A    between atoms: C_14  and  C_15
REMARK    4  A    between atoms: C_18  and  C_19
REMARK                            x       y       z     vdW  Elec       q    Type
REMARK                         _______ _______ _______ _____ _____    ______ ____
ROOT
ATOM      1  C   UNL     1       1.383   7.668  20.571  0.00  0.00    +0.000 A 
ATOM      2  C   UNL     1       2.146   7.798  19.420  0.00  0.00    +0.000 A 
ATOM      3  C   UNL     1       2.865   6.697  18.956  0.00  0.00    +0.000 A 
ATOM      4  C   UNL     1       2.801   5.424  19.581  0.00  0.00    +0.000 A 
ATOM      5  C   UNL     1       3.481   4.241  19.157  0.00  0.00    +0.000 A 
ATOM      6  N   UNL     1       3.392   3.067  19.838  0.00  0.00    +0.000 NA
ATOM      7  C   UNL     1       2.658   3.036  20.966  0.00  0.00    +0.000 A 
ATOM      8  C   UNL     1       1.955   4.119  21.455  0.00  0.00    +0.000 A 
ATOM      9  C   UNL     1       2.012   5.325  20.757  0.00  0.00    +0.000 A 
ATOM     10  C   UNL     1       1.308   6.444  21.237  0.00  0.00    +0.000 A 
ENDROOT
BRANCH   5  11
ATOM     11  C   UNL     1       4.383   4.186  17.980  0.00  0.00    +0.000 A 
ATOM     12  C   UNL     1       3.938   3.748  16.718  0.00  0.00    +0.000 A 
ATOM     13  C   UNL     1       4.723   3.898  15.567  0.00  0.00    +0.000 A 
ATOM     14  C   UNL     1       6.021   4.408  15.656  0.00  0.00    +0.000 A 
ATOM     15  C   UNL     1       6.530   4.715  16.923  0.00  0.00    +0.000 A 
ATOM     16  C   UNL     1       5.718   4.616  18.056  0.00  0.00    +0.000 A 
ATOM     17  F   UNL     1       6.256   4.997  19.225  0.00  0.00    +0.000 F 
BRANCH  14  18
ATOM     18  C   UNL     1       6.860   4.634  14.424  0.00  0.00    +0.000 C 
ATOM     19  F   UNL     1       6.872   3.568  13.575  0.00  0.00    +0.000 F 
ATOM     20  F   UNL     1       6.419   5.690  13.683  0.00  0.00    +0.000 F 
ATOM     21  F   UNL     1       8.159   4.897  14.717  0.00  0.00    +0.000 F 
ENDBRANCH  14  18
ENDBRANCH   5  11
BRANCH   1  23
ATOM     22  O   UNL     1       1.474   9.940  21.847  0.00  0.00    +0.000 OA
ATOM     23  S   UNL     1       0.511   9.072  21.206  0.00  0.00    +0.000 S 
ATOM     24  O   UNL     1      -0.646   8.584  21.931  0.00  0.00    +0.000 OA
BRANCH  23  25
ATOM     25  N   UNL     1      -0.135   9.756  19.802  0.00  0.00    +0.000 N 
ATOM     26  C   UNL     1       0.332  11.074  19.609  0.00  0.00    +0.000 A 
ATOM     27  N   UNL     1       1.482  11.296  19.024  0.00  0.00    +0.000 NA
ATOM     28  C   UNL     1       1.675  12.661  18.922  0.00  0.00    +0.000 A 
ATOM     29  C   UNL     1       0.663  13.444  19.438  0.00  0.00    +0.000 A 
ATOM     30  S   UNL     1      -0.609  12.441  20.001  0.00  0.00    +0.000 S 
ATOM     31  H   UNL     1      -1.146   9.721  19.912  0.00  0.00    +0.000 HD
ENDBRANCH  23  25
ENDBRANCH   1  23
TORSDOF 4
ENDMDL
MODEL 7
REMARK VINA RESULT:      -8.7      2.694      3.479
REMARK  Name = 
REMARK  4 active torsions:
REMARK  status: ('A' for Active; 'I' for Inactive)
REMARK    1  A    between atoms: S_2  and  N_4
REMARK    2  A    between atoms: S_2  and  C_10
REMARK    3  A    between atoms: C_14  and  C_15
REMARK    4  A    between atoms: C_18  and  C_19
REMARK                            x       y       z     vdW  Elec       q    Type
REMARK                         _______ _______ _______ _____ _____    ______ ____
ROOT
ATOM      1  C   UNL     1       1.550   7.569  20.610  0.00  0.00    +0.000 A 
ATOM      2  C   UNL     1       2.304   7.722  19.456  0.00  0.00    +0.000 A 
ATOM      3  C   UNL     1       2.970   6.615  18.930  0.00  0.00    +0.000 A 
ATOM      4  C   UNL     1       2.859   5.318  19.495  0.00  0.00    +0.000 A 
ATOM      5  C   UNL     1       3.484   4.129  19.006  0.00  0.00    +0.000 A 
ATOM      6  N   UNL     1       3.354   2.928  19.632  0.00  0.00    +0.000 NA
ATOM      7  C   UNL     1       2.633   2.874  20.767  0.00  0.00    +0.000 A 
ATOM      8  C   UNL     1       1.982   3.960  21.316  0.00  0.00    +0.000 A 
ATOM      9  C   UNL     1       2.081   5.196  20.675  0.00  0.00    +0.000 A 
ATOM     10  C   UNL     1       1.432   6.318  21.219  0.00  0.00    +0.000 A 
ENDROOT
BRANCH   5  11
ATOM     11  C   UNL     1       4.368   4.092  17.814  0.00  0.00    +0.000 A 
ATOM     12  C   UNL     1       3.881   3.777  16.531  0.00  0.00    +0.000 A 
ATOM     13  C   UNL     1       4.662   3.952  15.383  0.00  0.00    +0.000 A 
ATOM     14  C   UNL     1       5.995   4.360  15.487  0.00  0.00    +0.000 A 
ATOM     15  C   UNL     1       6.536   4.541  16.764  0.00  0.00    +0.000 A 
ATOM     16  C   UNL     1       5.731   4.420  17.900  0.00  0.00    +0.000 A 
ATOM     17  F   UNL     1       6.306   4.680  19.084  0.00  0.00    +0.000 F 
BRANCH  14  18
ATOM     18  C   UNL     1       6.836   4.612  14.261  0.00  0.00    +0.000 C 
ATOM     19  F   UNL     1       6.486   5.746  13.590  0.00  0.00    +0.000 F 
ATOM     20  F   UNL     1       8.158   4.753  14.559  0.00  0.00    +0.000 F 
ATOM     21  F   UNL     1       6.759   3.601  13.358  0.00  0.00    +0.000 F 
ENDBRANCH  14  18
ENDBRANCH   5  11
BRANCH   1  23
ATOM     22  O   UNL     1       1.507   9.380  22.486  0.00  0.00    +0.000 OA
ATOM     23  S   UNL     1       0.746   8.975  21.323  0.00  0.00    +0.000 S 
ATOM     24  O   UNL     1      -0.667   8.670  21.431  0.00  0.00    +0.000 OA
BRANCH  23  25
ATOM     25  N   UNL     1       0.834  10.109  20.073  0.00  0.00    +0.000 N 
ATOM     26  C   UNL     1       0.229  11.330  20.440  0.00  0.00    +0.000 A 
ATOM     27  N   UNL     1       0.898  12.229  21.118  0.00  0.00    +0.000 NA
ATOM     28  C   UNL     1       0.093  13.337  21.305  0.00  0.00    +0.000 A 
ATOM     29  C   UNL     1      -1.173  13.250  20.764  0.00  0.00    +0.000 A 
ATOM     30  S   UNL     1      -1.339  11.762  19.926  0.00  0.00    +0.000 S 
ATOM     31  H   UNL     1       0.375   9.680  19.272  0.00  0.00    +0.000 HD
ENDBRANCH  23  25
ENDBRANCH   1  23
TORSDOF 4
ENDMDL
MODEL 8
REMARK VINA RESULT:      -8.7      1.801      2.232
REMARK  Name = 
REMARK  4 active torsions:
REMARK  status: ('A' for Active; 'I' for Inactive)
REMARK    1  A    between atoms: S_2  and  N_4
REMARK    2  A    between atoms: S_2  and  C_10
REMARK    3  A    between atoms: C_14  and  C_15
REMARK    4  A    between atoms: C_18  and  C_19
REMARK                            x       y       z     vdW  Elec       q    Type
REMARK                         _______ _______ _______ _____ _____    ______ ____
ROOT
ATOM      1  C   UNL     1       1.516   9.027  19.251  0.00  0.00    +0.000 A 
ATOM      2  C   UNL     1       2.306   8.914  18.116  0.00  0.00    +0.000 A 
ATOM      3  C   UNL     1       3.021   7.735  17.903  0.00  0.00    +0.000 A 
ATOM      4  C   UNL     1       2.927   6.617  18.772  0.00  0.00    +0.000 A 
ATOM      5  C   UNL     1       3.601   5.367  18.614  0.00  0.00    +0.000 A 
ATOM      6  N   UNL     1       3.483   4.357  19.517  0.00  0.00    +0.000 NA
ATOM      7  C   UNL     1       2.724   4.562  20.610  0.00  0.00    +0.000 A 
ATOM      8  C   UNL     1       2.024   5.727  20.851  0.00  0.00    +0.000 A 
ATOM      9  C   UNL     1       2.111   6.766  19.924  0.00  0.00    +0.000 A 
ATOM     10  C   UNL     1       1.411   7.965  20.150  0.00  0.00    +0.000 A 
ENDROOT
BRANCH   5  11
ATOM     11  C   UNL     1       4.528   5.066  17.494  0.00  0.00    +0.000 A 
ATOM     12  C   UNL     1       4.184   4.177  16.458  0.00  0.00    +0.000 A 
ATOM     13  C   UNL     1       4.963   4.059  15.300  0.00  0.00    +0.000 A 
ATOM     14  C   UNL     1       6.166   4.759  15.180  0.00  0.00    +0.000 A 
ATOM     15  C   UNL     1       6.593   5.538  16.262  0.00  0.00    +0.000 A 
ATOM     16  C   UNL     1       5.780   5.694  17.387  0.00  0.00    +0.000 A 
ATOM     17  F   UNL     1       6.226   6.514  18.352  0.00  0.00    +0.000 F 
BRANCH  14  18
ATOM     18  C   UNL     1       6.989   4.694  13.919  0.00  0.00    +0.000 C 
ATOM     19  F   UNL     1       8.325   4.849  14.135  0.00  0.00    +0.000 F 
ATOM     20  F   UNL     1       6.856   3.499  13.275  0.00  0.00    +0.000 F 
ATOM     21  F   UNL     1       6.640   5.648  13.017  0.00  0.00    +0.000 F 
ENDBRANCH  14  18
ENDBRANCH   5  11
BRANCH   1  23
ATOM     22  O   UNL     1       0.910  11.438  18.463  0.00  0.00    +0.000 OA
ATOM     23  S   UNL     1       0.648  10.537  19.565  0.00  0.00    +0.000 S 
ATOM     24  O   UNL     1       0.930  10.934  20.931  0.00  0.00    +0.000 OA
BRANCH  23  25
ATOM     25  N   UNL     1      -0.961  10.023  19.604  0.00  0.00    +0.000 N 
ATOM     26  C   UNL     1      -1.645  10.377  18.423  0.00  0.00    +0.000 A 
ATOM     27  N   UNL     1      -1.573   9.620  17.356  0.00  0.00    +0.000 NA
ATOM     28  C   UNL     1      -2.364  10.168  16.365  0.00  0.00    +0.000 A 
ATOM     29  C   UNL     1      -3.018  11.335  16.703  0.00  0.00    +0.000 A 
ATOM     30  S   UNL     1      -2.694  11.720  18.343  0.00  0.00    +0.000 S 
ATOM     31  H   UNL     1      -1.374  10.454  20.429  0.00  0.00    +0.000 HD
ENDBRANCH  23  25
ENDBRANCH   1  23
TORSDOF 4
ENDMDL
MODEL 9
REMARK VINA RESULT:      -8.6      1.165      1.522
REMARK  Name = 
REMARK  4 active torsions:
REMARK  status: ('A' for Active; 'I' for Inactive)
REMARK    1  A    between atoms: S_2  and  N_4
REMARK    2  A    between atoms: S_2  and  C_10
REMARK    3  A    between atoms: C_14  and  C_15
REMARK    4  A    between atoms: C_18  and  C_19
REMARK                            x       y       z     vdW  Elec       q    Type
REMARK                         _______ _______ _______ _____ _____    ______ ____
ROOT
ATOM      1  C   UNL     1       1.126   9.308  19.893  0.00  0.00    +0.000 A 
ATOM      2  C   UNL     1       1.807   9.287  18.684  0.00  0.00    +0.000 A 
ATOM      3  C   UNL     1       2.491   8.129  18.312  0.00  0.00    +0.000 A 
ATOM      4  C   UNL     1       2.468   6.944  19.094  0.00  0.00    +0.000 A 
ATOM      5  C   UNL     1       3.116   5.711  18.774  0.00  0.00    +0.000 A 
ATOM      6  N   UNL     1       3.073   4.631  19.601  0.00  0.00    +0.000 NA
ATOM      7  C   UNL     1       2.420   4.748  20.772  0.00  0.00    +0.000 A 
ATOM      8  C   UNL     1       1.754   5.890  21.169  0.00  0.00    +0.000 A 
ATOM      9  C   UNL     1       1.763   7.000  20.324  0.00  0.00    +0.000 A 
ATOM     10  C   UNL     1       1.096   8.177  20.710  0.00  0.00    +0.000 A 
ENDROOT
BRANCH   5  11
ATOM     11  C   UNL     1       3.933   5.501  17.553  0.00  0.00    +0.000 A 
ATOM     12  C   UNL     1       4.916   6.422  17.144  0.00  0.00    +0.000 A 
ATOM     13  C   UNL     1       5.826   6.123  16.123  0.00  0.00    +0.000 A 
ATOM     14  C   UNL     1       5.723   4.926  15.410  0.00  0.00    +0.000 A 
ATOM     15  C   UNL     1       4.664   4.063  15.709  0.00  0.00    +0.000 A 
ATOM     16  C   UNL     1       3.797   4.344  16.768  0.00  0.00    +0.000 A 
ATOM     17  F   UNL     1       2.851   3.432  17.039  0.00  0.00    +0.000 F 
BRANCH  14  18
ATOM     18  C   UNL     1       6.729   4.558  14.348  0.00  0.00    +0.000 C 
ATOM     19  F   UNL     1       6.507   3.332  13.795  0.00  0.00    +0.000 F 
ATOM     20  F   UNL     1       6.729   5.438  13.307  0.00  0.00    +0.000 F 
ATOM     21  F   UNL     1       8.002   4.533  14.820  0.00  0.00    +0.000 F 
ENDBRANCH  14  18
ENDBRANCH   5  11
BRANCH   1  23
ATOM     22  O   UNL     1       1.237  11.568  21.188  0.00  0.00    +0.000 OA
ATOM     23  S   UNL     1       0.302  10.788  20.406  0.00  0.00    +0.000 S 
ATOM     24  O   UNL     1      -0.987  10.411  20.952  0.00  0.00    +0.000 OA
BRANCH  23  25
ATOM     25  N   UNL     1      -0.068  11.522  18.930  0.00  0.00    +0.000 N 
ATOM     26  C   UNL     1      -1.409  11.289  18.560  0.00  0.00    +0.000 A 
ATOM     27  N   UNL     1      -2.372  12.046  19.022  0.00  0.00    +0.000 NA
ATOM     28  C   UNL     1      -3.570  11.633  18.471  0.00  0.00    +0.000 A 
ATOM     29  C   UNL     1      -3.487  10.564  17.602  0.00  0.00    +0.000 A 
ATOM     30  S   UNL     1      -1.845  10.108  17.408  0.00  0.00    +0.000 S 
ATOM     31  H   UNL     1       0.589  11.138  18.254  0.00  0.00    +0.000 HD
ENDBRANCH  23  25
ENDBRANCH   1  23
TORSDOF 4
ENDMDL
