MODEL 1
REMARK VINA RESULT:      -8.3      0.000      0.000
REMARK  Name = 
REMARK  2 active torsions:
REMARK  status: ('A' for Active; 'I' for Inactive)
REMARK    1  A    between atoms: C_1  and  C_2
REMARK    2  A    between atoms: C_9  and  C_10
REMARK                            x       y       z     vdW  Elec       q    Type
REMARK                         _______ _______ _______ _____ _____    ______ ____
ROOT
ATOM      1  C   UNL     1       6.013   3.322  12.399  0.00  0.00    +0.000 C 
ATOM      2  C   UNL     1       6.337   3.936  13.708  0.00  0.00    +0.000 A 
ATOM      3  C   UNL     1       7.062   5.131  13.936  0.00  0.00    +0.000 A 
ATOM      4  C   UNL     1       7.034   5.305  15.290  0.00  0.00    +0.000 A 
ATOM      5  N   UNL     1       6.336   4.242  15.796  0.00  0.00    +0.000 N 
ATOM      6  N   UNL     1       5.912   3.373  14.856  0.00  0.00    +0.000 NA
ATOM      7  C   UNL     1       6.004   4.104  17.217  0.00  0.00    +0.000 C 
ATOM      8  C   UNL     1       7.025   4.861  18.059  0.00  0.00    +0.000 C 
ATOM      9  C   UNL     1       7.037   6.297  17.502  0.00  0.00    +0.000 C 
ATOM     10  C   UNL     1       8.025   7.137  18.317  0.00  0.00    +0.000 C 
ATOM     11  N   UNL     1       7.509   6.277  16.114  0.00  0.00    +0.000 N 
ATOM     12  O   UNL     1       5.758   6.955  17.561  0.00  0.00    +0.000 OA
ATOM     13  C   UNL     1       4.637   6.164  17.588  0.00  0.00    +0.000 A 
ATOM     14  C   UNL     1       3.413   6.811  17.748  0.00  0.00    +0.000 A 
ATOM     15  C   UNL     1       2.247   6.064  17.923  0.00  0.00    +0.000 A 
ATOM     16  C   UNL     1       2.304   4.670  17.938  0.00  0.00    +0.000 A 
ATOM     17  C   UNL     1       3.515   4.019  17.710  0.00  0.00    +0.000 A 
ATOM     18  C   UNL     1       4.682   4.766  17.508  0.00  0.00    +0.000 A 
ATOM     19  H   UNL     1       7.641   7.203  15.721  0.00  0.00    +0.000 HD
ENDROOT
TORSDOF 0
ENDMDL
MODEL 2
REMARK VINA RESULT:      -7.6      2.723      4.234
REMARK  Name = 
REMARK  2 active torsions:
REMARK  status: ('A' for Active; 'I' for Inactive)
REMARK    1  A    between atoms: C_1  and  C_2
REMARK    2  A    between atoms: C_9  and  C_10
REMARK                            x       y       z     vdW  Elec       q    Type
REMARK                         _______ _______ _______ _____ _____    ______ ____
ROOT
ATOM      1  C   UNL     1       8.299   7.626  18.147  0.00  0.00    +0.000 C 
ATOM      2  C   UNL     1       7.233   6.596  18.092  0.00  0.00    +0.000 A 
ATOM      3  C   UNL     1       7.286   5.282  18.618  0.00  0.00    +0.000 A 
ATOM      4  C   UNL     1       6.049   4.757  18.376  0.00  0.00    +0.000 A 
ATOM      5  N   UNL     1       5.343   5.734  17.727  0.00  0.00    +0.000 N 
ATOM      6  N   UNL     1       6.045   6.867  17.519  0.00  0.00    +0.000 NA
ATOM      7  C   UNL     1       3.928   5.596  17.369  0.00  0.00    +0.000 C 
ATOM      8  C   UNL     1       3.580   4.120  17.209  0.00  0.00    +0.000 C 
ATOM      9  C   UNL     1       4.014   3.449  18.525  0.00  0.00    +0.000 C 
ATOM     10  C   UNL     1       3.672   1.957  18.458  0.00  0.00    +0.000 C 
ATOM     11  N   UNL     1       5.469   3.565  18.675  0.00  0.00    +0.000 N 
ATOM     12  O   UNL     1       3.371   3.988  19.695  0.00  0.00    +0.000 OA
ATOM     13  C   UNL     1       2.896   5.273  19.623  0.00  0.00    +0.000 A 
ATOM     14  C   UNL     1       2.186   5.745  20.726  0.00  0.00    +0.000 A 
ATOM     15  C   UNL     1       1.556   6.990  20.669  0.00  0.00    +0.000 A 
ATOM     16  C   UNL     1       1.637   7.763  19.511  0.00  0.00    +0.000 A 
ATOM     17  C   UNL     1       2.403   7.325  18.431  0.00  0.00    +0.000 A 
ATOM     18  C   UNL     1       3.057   6.088  18.495  0.00  0.00    +0.000 A 
ATOM     19  H   UNL     1       5.834   3.051  19.470  0.00  0.00    +0.000 HD
ENDROOT
TORSDOF 0
ENDMDL
MODEL 3
REMARK VINA RESULT:      -7.6      3.057      4.928
REMARK  Name = 
REMARK  2 active torsions:
REMARK  status: ('A' for Active; 'I' for Inactive)
REMARK    1  A    between atoms: C_1  and  C_2
REMARK    2  A    between atoms: C_9  and  C_10
REMARK                            x       y       z     vdW  Elec       q    Type
REMARK                         _______ _______ _______ _____ _____    ______ ____
ROOT
ATOM      1  C   UNL     1       7.637   6.547  17.869  0.00  0.00    +0.000 C 
ATOM      2  C   UNL     1       6.293   6.025  18.211  0.00  0.00    +0.000 A 
ATOM      3  C   UNL     1       5.959   5.157  19.279  0.00  0.00    +0.000 A 
ATOM      4  C   UNL     1       4.601   5.025  19.212  0.00  0.00    +0.000 A 
ATOM      5  N   UNL     1       4.199   5.775  18.140  0.00  0.00    +0.000 N 
ATOM      6  N   UNL     1       5.212   6.385  17.492  0.00  0.00    +0.000 NA
ATOM      7  C   UNL     1       2.791   5.969  17.781  0.00  0.00    +0.000 C 
ATOM      8  C   UNL     1       1.965   4.791  18.286  0.00  0.00    +0.000 C 
ATOM      9  C   UNL     1       2.272   4.686  19.791  0.00  0.00    +0.000 C 
ATOM     10  C   UNL     1       1.455   3.534  20.385  0.00  0.00    +0.000 C 
ATOM     11  N   UNL     1       3.691   4.366  19.978  0.00  0.00    +0.000 N 
ATOM     12  O   UNL     1       1.950   5.875  20.537  0.00  0.00    +0.000 OA
ATOM     13  C   UNL     1       1.919   7.064  19.853  0.00  0.00    +0.000 A 
ATOM     14  C   UNL     1       1.506   8.189  20.564  0.00  0.00    +0.000 A 
ATOM     15  C   UNL     1       1.317   9.403  19.901  0.00  0.00    +0.000 A 
ATOM     16  C   UNL     1       1.543   9.493  18.527  0.00  0.00    +0.000 A 
ATOM     17  C   UNL     1       2.021   8.387  17.825  0.00  0.00    +0.000 A 
ATOM     18  C   UNL     1       2.235   7.176  18.493  0.00  0.00    +0.000 A 
ATOM     19  H   UNL     1       3.938   4.178  20.944  0.00  0.00    +0.000 HD
ENDROOT
TORSDOF 0
ENDMDL
MODEL 4
REMARK VINA RESULT:      -7.1      1.536      3.690
REMARK  Name = 
REMARK  2 active torsions:
REMARK  status: ('A' for Active; 'I' for Inactive)
REMARK    1  A    between atoms: C_1  and  C_2
REMARK    2  A    between atoms: C_9  and  C_10
REMARK                            x       y       z     vdW  Elec       q    Type
REMARK                         _______ _______ _______ _____ _____    ______ ____
ROOT
ATOM      1  C   UNL     1       7.072   4.254  12.623  0.00  0.00    +0.000 C 
ATOM      2  C   UNL     1       6.374   4.349  13.927  0.00  0.00    +0.000 A 
ATOM      3  C   UNL     1       5.981   3.278  14.767  0.00  0.00    +0.000 A 
ATOM      4  C   UNL     1       5.442   3.877  15.869  0.00  0.00    +0.000 A 
ATOM      5  N   UNL     1       5.517   5.225  15.645  0.00  0.00    +0.000 N 
ATOM      6  N   UNL     1       6.065   5.549  14.456  0.00  0.00    +0.000 NA
ATOM      7  C   UNL     1       5.121   6.226  16.640  0.00  0.00    +0.000 C 
ATOM      8  C   UNL     1       4.080   5.631  17.581  0.00  0.00    +0.000 C 
ATOM      9  C   UNL     1       4.713   4.340  18.134  0.00  0.00    +0.000 C 
ATOM     10  C   UNL     1       3.735   3.690  19.117  0.00  0.00    +0.000 C 
ATOM     11  N   UNL     1       4.932   3.395  17.034  0.00  0.00    +0.000 N 
ATOM     12  O   UNL     1       5.953   4.552  18.834  0.00  0.00    +0.000 OA
ATOM     13  C   UNL     1       6.678   5.673  18.516  0.00  0.00    +0.000 A 
ATOM     14  C   UNL     1       7.823   5.918  19.273  0.00  0.00    +0.000 A 
ATOM     15  C   UNL     1       8.531   7.109  19.100  0.00  0.00    +0.000 A 
ATOM     16  C   UNL     1       8.096   8.054  18.170  0.00  0.00    +0.000 A 
ATOM     17  C   UNL     1       6.991   7.783  17.364  0.00  0.00    +0.000 A 
ATOM     18  C   UNL     1       6.294   6.578  17.518  0.00  0.00    +0.000 A 
ATOM     19  H   UNL     1       5.249   2.483  17.344  0.00  0.00    +0.000 HD
ENDROOT
TORSDOF 0
ENDMDL
MODEL 5
REMARK VINA RESULT:      -7.1      2.818      4.160
REMARK  Name = 
REMARK  2 active torsions:
REMARK  status: ('A' for Active; 'I' for Inactive)
REMARK    1  A    between atoms: C_1  and  C_2
REMARK    2  A    between atoms: C_9  and  C_10
REMARK                            x       y       z     vdW  Elec       q    Type
REMARK                         _______ _______ _______ _____ _____    ______ ____
ROOT
ATOM      1  C   UNL     1       8.007   4.391  17.828  0.00  0.00    +0.000 C 
ATOM      2  C   UNL     1       6.710   5.078  18.039  0.00  0.00    +0.000 A 
ATOM      3  C   UNL     1       6.072   5.988  17.161  0.00  0.00    +0.000 A 
ATOM      4  C   UNL     1       4.886   6.287  17.768  0.00  0.00    +0.000 A 
ATOM      5  N   UNL     1       4.873   5.586  18.943  0.00  0.00    +0.000 N 
ATOM      6  N   UNL     1       5.985   4.850  19.151  0.00  0.00    +0.000 NA
ATOM      7  C   UNL     1       3.722   5.565  19.852  0.00  0.00    +0.000 C 
ATOM      8  C   UNL     1       2.905   6.839  19.674  0.00  0.00    +0.000 C 
ATOM      9  C   UNL     1       2.580   6.916  18.171  0.00  0.00    +0.000 C 
ATOM     10  C   UNL     1       1.730   8.163  17.910  0.00  0.00    +0.000 C 
ATOM     11  N   UNL     1       3.825   7.058  17.410  0.00  0.00    +0.000 N 
ATOM     12  O   UNL     1       1.846   5.781  17.675  0.00  0.00    +0.000 OA
ATOM     13  C   UNL     1       1.960   4.600  18.365  0.00  0.00    +0.000 A 
ATOM     14  C   UNL     1       1.165   3.539  17.934  0.00  0.00    +0.000 A 
ATOM     15  C   UNL     1       1.124   2.354  18.670  0.00  0.00    +0.000 A 
ATOM     16  C   UNL     1       1.880   2.228  19.836  0.00  0.00    +0.000 A 
ATOM     17  C   UNL     1       2.728   3.261  20.234  0.00  0.00    +0.000 A 
ATOM     18  C   UNL     1       2.789   4.441  19.483  0.00  0.00    +0.000 A 
ATOM     19  H   UNL     1       3.675   7.220  16.419  0.00  0.00    +0.000 HD
ENDROOT
TORSDOF 0
ENDMDL
MODEL 6
REMARK VINA RESULT:      -7.1      2.621      4.406
REMARK  Name = 
REMARK  2 active torsions:
REMARK  status: ('A' for Active; 'I' for Inactive)
REMARK    1  A    between atoms: C_1  and  C_2
REMARK    2  A    between atoms: C_9  and  C_10
REMARK                            x       y       z     vdW  Elec       q    Type
REMARK                         _______ _______ _______ _____ _____    ______ ____
ROOT
ATOM      1  C   UNL     1       0.575   1.940  18.736  0.00  0.00    +0.000 C 
ATOM      2  C   UNL     1       1.705   2.876  18.527  0.00  0.00    +0.000 A 
ATOM      3  C   UNL     1       2.487   3.025  17.355  0.00  0.00    +0.000 A 
ATOM      4  C   UNL     1       3.346   4.048  17.634  0.00  0.00    +0.000 A 
ATOM      5  N   UNL     1       3.065   4.442  18.914  0.00  0.00    +0.000 N 
ATOM      6  N   UNL     1       2.079   3.731  19.498  0.00  0.00    +0.000 NA
ATOM      7  C   UNL     1       3.714   5.586  19.562  0.00  0.00    +0.000 C 
ATOM      8  C   UNL     1       5.086   5.818  18.939  0.00  0.00    +0.000 C 
ATOM      9  C   UNL     1       4.835   5.949  17.425  0.00  0.00    +0.000 C 
ATOM     10  C   UNL     1       6.170   6.214  16.722  0.00  0.00    +0.000 C 
ATOM     11  N   UNL     1       4.303   4.684  16.908  0.00  0.00    +0.000 N 
ATOM     12  O   UNL     1       3.941   7.021  17.073  0.00  0.00    +0.000 OA
ATOM     13  C   UNL     1       3.048   7.442  18.027  0.00  0.00    +0.000 A 
ATOM     14  C   UNL     1       2.260   8.547  17.708  0.00  0.00    +0.000 A 
ATOM     15  C   UNL     1       1.431   9.115  18.676  0.00  0.00    +0.000 A 
ATOM     16  C   UNL     1       1.389   8.580  19.964  0.00  0.00    +0.000 A 
ATOM     17  C   UNL     1       2.124   7.434  20.267  0.00  0.00    +0.000 A 
ATOM     18  C   UNL     1       2.937   6.847  19.290  0.00  0.00    +0.000 A 
ATOM     19  H   UNL     1       4.215   4.668  15.897  0.00  0.00    +0.000 HD
ENDROOT
TORSDOF 0
ENDMDL
MODEL 7
REMARK VINA RESULT:      -7.0      2.114      3.356
REMARK  Name = 
REMARK  2 active torsions:
REMARK  status: ('A' for Active; 'I' for Inactive)
REMARK    1  A    between atoms: C_1  and  C_2
REMARK    2  A    between atoms: C_9  and  C_10
REMARK                            x       y       z     vdW  Elec       q    Type
REMARK                         _______ _______ _______ _____ _____    ______ ____
ROOT
ATOM      1  C   UNL     1       7.088   4.766  14.547  0.00  0.00    +0.000 C 
ATOM      2  C   UNL     1       6.196   5.243  15.630  0.00  0.00    +0.000 A 
ATOM      3  C   UNL     1       5.275   6.317  15.569  0.00  0.00    +0.000 A 
ATOM      4  C   UNL     1       4.652   6.315  16.784  0.00  0.00    +0.000 A 
ATOM      5  N   UNL     1       5.215   5.291  17.498  0.00  0.00    +0.000 N 
ATOM      6  N   UNL     1       6.179   4.626  16.828  0.00  0.00    +0.000 NA
ATOM      7  C   UNL     1       4.755   4.896  18.833  0.00  0.00    +0.000 C 
ATOM      8  C   UNL     1       4.106   6.089  19.525  0.00  0.00    +0.000 C 
ATOM      9  C   UNL     1       3.020   6.590  18.555  0.00  0.00    +0.000 C 
ATOM     10  C   UNL     1       2.296   7.780  19.192  0.00  0.00    +0.000 C 
ATOM     11  N   UNL     1       3.652   7.064  17.319  0.00  0.00    +0.000 N 
ATOM     12  O   UNL     1       2.025   5.600  18.233  0.00  0.00    +0.000 OA
ATOM     13  C   UNL     1       2.380   4.280  18.354  0.00  0.00    +0.000 A 
ATOM     14  C   UNL     1       1.378   3.336  18.138  0.00  0.00    +0.000 A 
ATOM     15  C   UNL     1       1.629   1.984  18.379  0.00  0.00    +0.000 A 
ATOM     16  C   UNL     1       2.883   1.576  18.835  0.00  0.00    +0.000 A 
ATOM     17  C   UNL     1       3.908   2.509  18.988  0.00  0.00    +0.000 A 
ATOM     18  C   UNL     1       3.665   3.862  18.722  0.00  0.00    +0.000 A 
ATOM     19  H   UNL     1       3.001   7.505  16.678  0.00  0.00    +0.000 HD
ENDROOT
TORSDOF 0
ENDMDL
MODEL 8
REMARK VINA RESULT:      -6.9      2.569      4.158
REMARK  Name = 
REMARK  2 active torsions:
REMARK  status: ('A' for Active; 'I' for Inactive)
REMARK    1  A    between atoms: C_1  and  C_2
REMARK    2  A    between atoms: C_9  and  C_10
REMARK                            x       y       z     vdW  Elec       q    Type
REMARK                         _______ _______ _______ _____ _____    ______ ____
ROOT
ATOM      1  C   UNL     1       8.834   8.942  18.101  0.00  0.00    +0.000 C 
ATOM      2  C   UNL     1       7.845   7.842  18.005  0.00  0.00    +0.000 A 
ATOM      3  C   UNL     1       7.860   6.614  18.711  0.00  0.00    +0.000 A 
ATOM      4  C   UNL     1       6.714   5.978  18.332  0.00  0.00    +0.000 A 
ATOM      5  N   UNL     1       6.094   6.810  17.439  0.00  0.00    +0.000 N 
ATOM      6  N   UNL     1       6.770   7.952  17.201  0.00  0.00    +0.000 NA
ATOM      7  C   UNL     1       4.776   6.528  16.862  0.00  0.00    +0.000 C 
ATOM      8  C   UNL     1       4.532   5.023  16.852  0.00  0.00    +0.000 C 
ATOM      9  C   UNL     1       4.748   4.560  18.304  0.00  0.00    +0.000 C 
ATOM     10  C   UNL     1       4.492   3.052  18.388  0.00  0.00    +0.000 C 
ATOM     11  N   UNL     1       6.143   4.797  18.689  0.00  0.00    +0.000 N 
ATOM     12  O   UNL     1       3.877   5.200  19.256  0.00  0.00    +0.000 OA
ATOM     13  C   UNL     1       3.365   6.429  18.923  0.00  0.00    +0.000 A 
ATOM     14  C   UNL     1       2.445   6.989  19.807  0.00  0.00    +0.000 A 
ATOM     15  C   UNL     1       1.780   8.168  19.467  0.00  0.00    +0.000 A 
ATOM     16  C   UNL     1       2.036   8.788  18.244  0.00  0.00    +0.000 A 
ATOM     17  C   UNL     1       3.005   8.269  17.387  0.00  0.00    +0.000 A 
ATOM     18  C   UNL     1       3.692   7.100  17.738  0.00  0.00    +0.000 A 
ATOM     19  H   UNL     1       6.380   4.417  19.600  0.00  0.00    +0.000 HD
ENDROOT
TORSDOF 0
ENDMDL
MODEL 9
REMARK VINA RESULT:      -6.9      2.474      4.235
REMARK  Name = 
REMARK  2 active torsions:
REMARK  status: ('A' for Active; 'I' for Inactive)
REMARK    1  A    between atoms: C_1  and  C_2
REMARK    2  A    between atoms: C_9  and  C_10
REMARK                            x       y       z     vdW  Elec       q    Type
REMARK                         _______ _______ _______ _____ _____    ______ ____
ROOT
ATOM      1  C   UNL     1       0.759   1.553  18.920  0.00  0.00    +0.000 C 
ATOM      2  C   UNL     1       1.998   2.353  18.775  0.00  0.00    +0.000 A 
ATOM      3  C   UNL     1       2.996   2.212  17.779  0.00  0.00    +0.000 A 
ATOM      4  C   UNL     1       3.889   3.213  18.033  0.00  0.00    +0.000 A 
ATOM      5  N   UNL     1       3.416   3.874  19.135  0.00  0.00    +0.000 N 
ATOM      6  N   UNL     1       2.270   3.360  19.627  0.00  0.00    +0.000 NA
ATOM      7  C   UNL     1       4.047   5.081  19.678  0.00  0.00    +0.000 C 
ATOM      8  C   UNL     1       5.527   5.093  19.314  0.00  0.00    +0.000 C 
ATOM      9  C   UNL     1       5.578   4.933  17.784  0.00  0.00    +0.000 C 
ATOM     10  C   UNL     1       7.041   4.965  17.330  0.00  0.00    +0.000 C 
ATOM     11  N   UNL     1       5.025   3.627  17.412  0.00  0.00    +0.000 N 
ATOM     12  O   UNL     1       4.880   5.968  17.065  0.00  0.00    +0.000 OA
ATOM     13  C   UNL     1       3.873   6.629  17.723  0.00  0.00    +0.000 A 
ATOM     14  C   UNL     1       3.276   7.695  17.052  0.00  0.00    +0.000 A 
ATOM     15  C   UNL     1       2.344   8.499  17.711  0.00  0.00    +0.000 A 
ATOM     16  C   UNL     1       2.008   8.237  19.039  0.00  0.00    +0.000 A 
ATOM     17  C   UNL     1       2.551   7.132  19.692  0.00  0.00    +0.000 A 
ATOM     18  C   UNL     1       3.467   6.308  19.025  0.00  0.00    +0.000 A 
ATOM     19  H   UNL     1       5.125   3.414  16.425  0.00  0.00    +0.000 HD
ENDROOT
TORSDOF 0
ENDMDL
