MODEL 1
REMARK VINA RESULT:      -8.9      0.000      0.000
REMARK  Name = 
REMARK  9 active torsions:
REMARK  status: ('A' for Active; 'I' for Inactive)
REMARK    1  A    between atoms: C_1  and  C_2
REMARK    2  A    between atoms: C_2  and  O_3
REMARK    3  A    between atoms: O_3  and  C_4
REMARK    4  A    between atoms: C_4  and  C_6
REMARK    5  A    between atoms: C_10  and  N_11
REMARK    6  A    between atoms: C_12  and  C_14
REMARK    7  A    between atoms: N_19  and  C_20
REMARK    8  A    between atoms: C_20  and  C_21
REMARK    9  A    between atoms: C_31  and  C_32
REMARK                            x       y       z     vdW  Elec       q    Type
REMARK                         _______ _______ _______ _____ _____    ______ ____
ROOT
ATOM      1  C   UNL     1       2.802   6.820  18.703  0.00  0.00    +0.000 A 
ATOM      2  C   UNL     1       3.696   6.988  17.644  0.00  0.00    +0.000 A 
ATOM      3  C   UNL     1       4.372   5.880  17.150  0.00  0.00    +0.000 A 
ATOM      4  C   UNL     1       5.243   5.993  15.966  0.00  0.00    +0.000 A 
ATOM      5  O   UNL     1       5.445   7.106  15.489  0.00  0.00    +0.000 OA
ATOM      6  N   UNL     1       5.773   4.802  15.465  0.00  0.00    +0.000 N 
ATOM      7  C   UNL     1       5.559   3.578  16.087  0.00  0.00    +0.000 A 
ATOM      8  C   UNL     1       4.821   3.466  17.198  0.00  0.00    +0.000 A 
ATOM      9  C   UNL     1       4.179   4.648  17.750  0.00  0.00    +0.000 A 
ATOM     10  N   UNL     1       3.369   4.467  18.821  0.00  0.00    +0.000 NA
ATOM     11  C   UNL     1       2.683   5.552  19.291  0.00  0.00    +0.000 A 
ATOM     12  C   UNL     1       1.765   5.284  20.450  0.00  0.00    +0.000 C 
ENDROOT
BRANCH   1  14
ATOM     13  N   UNL     1       1.599   8.840  18.141  0.00  0.00    +0.000 N 
ATOM     14  C   UNL     1       1.997   7.979  19.156  0.00  0.00    +0.000 C 
ATOM     15  O   UNL     1       1.725   8.073  20.344  0.00  0.00    +0.000 OA
ATOM     16  H   UNL     1       1.777   8.560  17.183  0.00  0.00    +0.000 HD
BRANCH  13  21
ATOM     17  C   UNL     1      -1.264  11.189  18.112  0.00  0.00    +0.000 A 
ATOM     18  C   UNL     1      -0.667  12.363  18.585  0.00  0.00    +0.000 A 
ATOM     19  C   UNL     1       0.689  12.382  18.892  0.00  0.00    +0.000 A 
ATOM     20  C   UNL     1       1.450  11.229  18.738  0.00  0.00    +0.000 A 
ATOM     21  C   UNL     1       0.866  10.037  18.303  0.00  0.00    +0.000 A 
ATOM     22  C   UNL     1      -0.495  10.023  17.972  0.00  0.00    +0.000 A 
BRANCH  17  23
ATOM     23  C   UNL     1      -2.679  11.166  17.655  0.00  0.00    +0.000 C 
ATOM     24  O   UNL     1      -3.598  11.696  18.257  0.00  0.00    +0.000 OA
BRANCH  23  25
ATOM     25  O   UNL     1      -2.783  10.354  16.575  0.00  0.00    +0.000 OA
BRANCH  25  27
ATOM     26  C   UNL     1      -3.164   9.974  14.252  0.00  0.00    +0.000 C 
ATOM     27  C   UNL     1      -3.373  10.936  15.408  0.00  0.00    +0.000 C 
ENDBRANCH  25  27
ENDBRANCH  23  25
ENDBRANCH  17  23
ENDBRANCH  13  21
ENDBRANCH   1  14
BRANCH   6  28
ATOM     28  C   UNL     1       6.613   4.880  14.271  0.00  0.00    +0.000 C 
BRANCH  28  29
ATOM     29  C   UNL     1       6.138   4.003  13.131  0.00  0.00    +0.000 A 
ATOM     30  C   UNL     1       7.023   3.126  12.485  0.00  0.00    +0.000 A 
ATOM     31  C   UNL     1       6.571   2.263  11.484  0.00  0.00    +0.000 A 
ATOM     32  C   UNL     1       5.229   2.272  11.113  0.00  0.00    +0.000 A 
ATOM     33  C   UNL     1       4.344   3.156  11.728  0.00  0.00    +0.000 A 
ATOM     34  C   UNL     1       4.798   4.023  12.726  0.00  0.00    +0.000 A 
ENDBRANCH  28  29
ENDBRANCH   6  28
TORSDOF 7
ENDMDL
MODEL 2
REMARK VINA RESULT:      -8.9      2.205      9.234
REMARK  Name = 
REMARK  9 active torsions:
REMARK  status: ('A' for Active; 'I' for Inactive)
REMARK    1  A    between atoms: C_1  and  C_2
REMARK    2  A    between atoms: C_2  and  O_3
REMARK    3  A    between atoms: O_3  and  C_4
REMARK    4  A    between atoms: C_4  and  C_6
REMARK    5  A    between atoms: C_10  and  N_11
REMARK    6  A    between atoms: C_12  and  C_14
REMARK    7  A    between atoms: N_19  and  C_20
REMARK    8  A    between atoms: C_20  and  C_21
REMARK    9  A    between atoms: C_31  and  C_32
REMARK                            x       y       z     vdW  Elec       q    Type
REMARK                         _______ _______ _______ _____ _____    ______ ____
ROOT
ATOM      1  C   UNL     1       3.800   5.206  17.836  0.00  0.00    +0.000 A 
ATOM      2  C   UNL     1       3.291   6.473  17.544  0.00  0.00    +0.000 A 
ATOM      3  C   UNL     1       2.556   7.144  18.513  0.00  0.00    +0.000 A 
ATOM      4  C   UNL     1       2.091   8.524  18.287  0.00  0.00    +0.000 A 
ATOM      5  O   UNL     1       2.273   9.032  17.184  0.00  0.00    +0.000 OA
ATOM      6  N   UNL     1       1.478   9.161  19.368  0.00  0.00    +0.000 N 
ATOM      7  C   UNL     1       1.244   8.511  20.573  0.00  0.00    +0.000 A 
ATOM      8  C   UNL     1       1.604   7.238  20.775  0.00  0.00    +0.000 A 
ATOM      9  C   UNL     1       2.307   6.520  19.723  0.00  0.00    +0.000 A 
ATOM     10  N   UNL     1       2.731   5.266  20.009  0.00  0.00    +0.000 NA
ATOM     11  C   UNL     1       3.477   4.615  19.067  0.00  0.00    +0.000 A 
ATOM     12  C   UNL     1       3.959   3.247  19.455  0.00  0.00    +0.000 C 
ENDROOT
BRANCH   1  14
ATOM     13  N   UNL     1       4.953   5.293  15.713  0.00  0.00    +0.000 N 
ATOM     14  C   UNL     1       4.678   4.538  16.845  0.00  0.00    +0.000 C 
ATOM     15  O   UNL     1       5.106   3.422  17.104  0.00  0.00    +0.000 OA
ATOM     16  H   UNL     1       4.645   6.259  15.699  0.00  0.00    +0.000 HD
BRANCH  13  21
ATOM     17  C   UNL     1       5.871   3.529  12.588  0.00  0.00    +0.000 A 
ATOM     18  C   UNL     1       7.171   3.999  12.374  0.00  0.00    +0.000 A 
ATOM     19  C   UNL     1       7.753   4.883  13.277  0.00  0.00    +0.000 A 
ATOM     20  C   UNL     1       7.035   5.308  14.389  0.00  0.00    +0.000 A 
ATOM     21  C   UNL     1       5.722   4.880  14.602  0.00  0.00    +0.000 A 
ATOM     22  C   UNL     1       5.144   3.971  13.705  0.00  0.00    +0.000 A 
BRANCH  17  23
ATOM     23  C   UNL     1       5.268   2.488  11.715  0.00  0.00    +0.000 C 
ATOM     24  O   UNL     1       5.865   1.501  11.318  0.00  0.00    +0.000 OA
BRANCH  23  25
ATOM     25  O   UNL     1       4.033   2.894  11.329  0.00  0.00    +0.000 OA
BRANCH  25  27
ATOM     26  C   UNL     1       2.772   3.931   9.592  0.00  0.00    +0.000 C 
ATOM     27  C   UNL     1       3.988   4.054  10.493  0.00  0.00    +0.000 C 
ENDBRANCH  25  27
ENDBRANCH  23  25
ENDBRANCH  17  23
ENDBRANCH  13  21
ENDBRANCH   1  14
BRANCH   6  28
ATOM     28  C   UNL     1       1.038  10.543  19.182  0.00  0.00    +0.000 C 
BRANCH  28  29
ATOM     29  C   UNL     1      -0.426  10.675  18.819  0.00  0.00    +0.000 A 
ATOM     30  C   UNL     1      -1.249  11.599  19.481  0.00  0.00    +0.000 A 
ATOM     31  C   UNL     1      -2.581  11.773  19.096  0.00  0.00    +0.000 A 
ATOM     32  C   UNL     1      -3.106  11.022  18.048  0.00  0.00    +0.000 A 
ATOM     33  C   UNL     1      -2.308  10.082  17.400  0.00  0.00    +0.000 A 
ATOM     34  C   UNL     1      -0.977   9.903  17.787  0.00  0.00    +0.000 A 
ENDBRANCH  28  29
ENDBRANCH   6  28
TORSDOF 7
ENDMDL
MODEL 3
REMARK VINA RESULT:      -8.6      2.130      9.337
REMARK  Name = 
REMARK  9 active torsions:
REMARK  status: ('A' for Active; 'I' for Inactive)
REMARK    1  A    between atoms: C_1  and  C_2
REMARK    2  A    between atoms: C_2  and  O_3
REMARK    3  A    between atoms: O_3  and  C_4
REMARK    4  A    between atoms: C_4  and  C_6
REMARK    5  A    between atoms: C_10  and  N_11
REMARK    6  A    between atoms: C_12  and  C_14
REMARK    7  A    between atoms: N_19  and  C_20
REMARK    8  A    between atoms: C_20  and  C_21
REMARK    9  A    between atoms: C_31  and  C_32
REMARK                            x       y       z     vdW  Elec       q    Type
REMARK                         _______ _______ _______ _____ _____    ______ ____
ROOT
ATOM      1  C   UNL     1       4.197   6.634  17.616  0.00  0.00    +0.000 A 
ATOM      2  C   UNL     1       3.433   7.795  17.482  0.00  0.00    +0.000 A 
ATOM      3  C   UNL     1       2.510   8.112  18.471  0.00  0.00    +0.000 A 
ATOM      4  C   UNL     1       1.759   9.379  18.424  0.00  0.00    +0.000 A 
ATOM      5  O   UNL     1       1.884  10.101  17.439  0.00  0.00    +0.000 OA
ATOM      6  N   UNL     1       0.956   9.670  19.529  0.00  0.00    +0.000 N 
ATOM      7  C   UNL     1       0.805   8.783  20.587  0.00  0.00    +0.000 A 
ATOM      8  C   UNL     1       1.431   7.601  20.617  0.00  0.00    +0.000 A 
ATOM      9  C   UNL     1       2.339   7.246  19.537  0.00  0.00    +0.000 A 
ATOM     10  N   UNL     1       3.018   6.080  19.659  0.00  0.00    +0.000 NA
ATOM     11  C   UNL     1       3.945   5.781  18.701  0.00  0.00    +0.000 A 
ATOM     12  C   UNL     1       4.701   4.500  18.910  0.00  0.00    +0.000 C 
ENDROOT
BRANCH   1  14
ATOM     13  N   UNL     1       4.904   5.442  15.634  0.00  0.00    +0.000 N 
ATOM     14  C   UNL     1       5.259   6.354  16.620  0.00  0.00    +0.000 C 
ATOM     15  O   UNL     1       6.323   6.949  16.719  0.00  0.00    +0.000 OA
ATOM     16  H   UNL     1       3.938   5.137  15.596  0.00  0.00    +0.000 HD
BRANCH  13  21
ATOM     17  C   UNL     1       5.948   3.672  12.554  0.00  0.00    +0.000 A 
ATOM     18  C   UNL     1       7.313   3.980  12.504  0.00  0.00    +0.000 A 
ATOM     19  C   UNL     1       7.891   4.755  13.503  0.00  0.00    +0.000 A 
ATOM     20  C   UNL     1       7.109   5.234  14.548  0.00  0.00    +0.000 A 
ATOM     21  C   UNL     1       5.738   4.969  14.597  0.00  0.00    +0.000 A 
ATOM     22  C   UNL     1       5.159   4.169  13.603  0.00  0.00    +0.000 A 
BRANCH  17  23
ATOM     23  C   UNL     1       5.325   2.743  11.574  0.00  0.00    +0.000 C 
ATOM     24  O   UNL     1       5.504   1.537  11.570  0.00  0.00    +0.000 OA
BRANCH  23  25
ATOM     25  O   UNL     1       4.672   3.466  10.631  0.00  0.00    +0.000 OA
BRANCH  25  27
ATOM     26  C   UNL     1       2.710   4.207   9.497  0.00  0.00    +0.000 C 
ATOM     27  C   UNL     1       3.253   3.285  10.575  0.00  0.00    +0.000 C 
ENDBRANCH  25  27
ENDBRANCH  23  25
ENDBRANCH  17  23
ENDBRANCH  13  21
ENDBRANCH   1  14
BRANCH   6  28
ATOM     28  C   UNL     1       0.226  10.937  19.525  0.00  0.00    +0.000 C 
BRANCH  28  29
ATOM     29  C   UNL     1      -1.122  10.864  18.840  0.00  0.00    +0.000 A 
ATOM     30  C   UNL     1      -1.376   9.893  17.859  0.00  0.00    +0.000 A 
ATOM     31  C   UNL     1      -2.642   9.776  17.279  0.00  0.00    +0.000 A 
ATOM     32  C   UNL     1      -3.668  10.633  17.671  0.00  0.00    +0.000 A 
ATOM     33  C   UNL     1      -3.422  11.619  18.625  0.00  0.00    +0.000 A 
ATOM     34  C   UNL     1      -2.154  11.739  19.201  0.00  0.00    +0.000 A 
ENDBRANCH  28  29
ENDBRANCH   6  28
TORSDOF 7
ENDMDL
MODEL 4
REMARK VINA RESULT:      -8.5      4.428      7.113
REMARK  Name = 
REMARK  9 active torsions:
REMARK  status: ('A' for Active; 'I' for Inactive)
REMARK    1  A    between atoms: C_1  and  C_2
REMARK    2  A    between atoms: C_2  and  O_3
REMARK    3  A    between atoms: O_3  and  C_4
REMARK    4  A    between atoms: C_4  and  C_6
REMARK    5  A    between atoms: C_10  and  N_11
REMARK    6  A    between atoms: C_12  and  C_14
REMARK    7  A    between atoms: N_19  and  C_20
REMARK    8  A    between atoms: C_20  and  C_21
REMARK    9  A    between atoms: C_31  and  C_32
REMARK                            x       y       z     vdW  Elec       q    Type
REMARK                         _______ _______ _______ _____ _____    ______ ____
ROOT
ATOM      1  C   UNL     1      -0.346  11.336  20.588  0.00  0.00    +0.000 A 
ATOM      2  C   UNL     1       0.205  10.113  20.977  0.00  0.00    +0.000 A 
ATOM      3  C   UNL     1       0.863   9.338  20.030  0.00  0.00    +0.000 A 
ATOM      4  C   UNL     1       1.550   8.093  20.418  0.00  0.00    +0.000 A 
ATOM      5  O   UNL     1       1.439   7.696  21.575  0.00  0.00    +0.000 OA
ATOM      6  N   UNL     1       2.295   7.456  19.424  0.00  0.00    +0.000 N 
ATOM      7  C   UNL     1       2.332   7.919  18.115  0.00  0.00    +0.000 A 
ATOM      8  C   UNL     1       1.664   9.013  17.731  0.00  0.00    +0.000 A 
ATOM      9  C   UNL     1       0.915   9.775  18.718  0.00  0.00    +0.000 A 
ATOM     10  N   UNL     1       0.332  10.925  18.298  0.00  0.00    +0.000 NA
ATOM     11  C   UNL     1      -0.293  11.700  19.234  0.00  0.00    +0.000 A 
ATOM     12  C   UNL     1      -0.880  12.985  18.722  0.00  0.00    +0.000 C 
ENDROOT
BRANCH   1  14
ATOM     13  N   UNL     1      -2.306  12.458  21.451  0.00  0.00    +0.000 N 
ATOM     14  C   UNL     1      -0.949  12.213  21.619  0.00  0.00    +0.000 C 
ATOM     15  O   UNL     1      -0.239  12.617  22.529  0.00  0.00    +0.000 OA
ATOM     16  H   UNL     1      -2.796  11.939  20.731  0.00  0.00    +0.000 HD
BRANCH  13  21
ATOM     17  C   UNL     1      -5.213  13.612  23.433  0.00  0.00    +0.000 A 
ATOM     18  C   UNL     1      -4.776  14.871  23.863  0.00  0.00    +0.000 A 
ATOM     19  C   UNL     1      -3.528  15.346  23.477  0.00  0.00    +0.000 A 
ATOM     20  C   UNL     1      -2.708  14.564  22.671  0.00  0.00    +0.000 A 
ATOM     21  C   UNL     1      -3.110  13.290  22.262  0.00  0.00    +0.000 A 
ATOM     22  C   UNL     1      -4.377  12.820  22.632  0.00  0.00    +0.000 A 
BRANCH  17  23
ATOM     23  C   UNL     1      -6.589  13.128  23.721  0.00  0.00    +0.000 C 
ATOM     24  O   UNL     1      -7.418  13.764  24.351  0.00  0.00    +0.000 OA
BRANCH  23  25
ATOM     25  O   UNL     1      -6.703  11.842  23.307  0.00  0.00    +0.000 OA
BRANCH  25  27
ATOM     26  C   UNL     1      -7.610  11.455  21.136  0.00  0.00    +0.000 C 
ATOM     27  C   UNL     1      -7.915  11.509  22.623  0.00  0.00    +0.000 C 
ENDBRANCH  25  27
ENDBRANCH  23  25
ENDBRANCH  17  23
ENDBRANCH  13  21
ENDBRANCH   1  14
BRANCH   6  28
ATOM     28  C   UNL     1       3.015   6.237  19.790  0.00  0.00    +0.000 C 
BRANCH  28  29
ATOM     29  C   UNL     1       2.265   4.963  19.464  0.00  0.00    +0.000 A 
ATOM     30  C   UNL     1       1.387   4.389  20.396  0.00  0.00    +0.000 A 
ATOM     31  C   UNL     1       0.639   3.255  20.070  0.00  0.00    +0.000 A 
ATOM     32  C   UNL     1       0.764   2.679  18.808  0.00  0.00    +0.000 A 
ATOM     33  C   UNL     1       1.653   3.222  17.882  0.00  0.00    +0.000 A 
ATOM     34  C   UNL     1       2.405   4.354  18.210  0.00  0.00    +0.000 A 
ENDBRANCH  28  29
ENDBRANCH   6  28
TORSDOF 7
ENDMDL
MODEL 5
REMARK VINA RESULT:      -8.4      2.515      9.377
REMARK  Name = 
REMARK  9 active torsions:
REMARK  status: ('A' for Active; 'I' for Inactive)
REMARK    1  A    between atoms: C_1  and  C_2
REMARK    2  A    between atoms: C_2  and  O_3
REMARK    3  A    between atoms: O_3  and  C_4
REMARK    4  A    between atoms: C_4  and  C_6
REMARK    5  A    between atoms: C_10  and  N_11
REMARK    6  A    between atoms: C_12  and  C_14
REMARK    7  A    between atoms: N_19  and  C_20
REMARK    8  A    between atoms: C_20  and  C_21
REMARK    9  A    between atoms: C_31  and  C_32
REMARK                            x       y       z     vdW  Elec       q    Type
REMARK                         _______ _______ _______ _____ _____    ______ ____
ROOT
ATOM      1  C   UNL     1       4.368   5.760  17.799  0.00  0.00    +0.000 A 
ATOM      2  C   UNL     1       3.625   6.899  17.483  0.00  0.00    +0.000 A 
ATOM      3  C   UNL     1       2.740   7.409  18.424  0.00  0.00    +0.000 A 
ATOM      4  C   UNL     1       2.015   8.669  18.175  0.00  0.00    +0.000 A 
ATOM      5  O   UNL     1       2.126   9.203  17.075  0.00  0.00    +0.000 OA
ATOM      6  N   UNL     1       1.253   9.170  19.232  0.00  0.00    +0.000 N 
ATOM      7  C   UNL     1       1.115   8.486  20.433  0.00  0.00    +0.000 A 
ATOM      8  C   UNL     1       1.715   7.312  20.654  0.00  0.00    +0.000 A 
ATOM      9  C   UNL     1       2.582   6.749  19.630  0.00  0.00    +0.000 A 
ATOM     10  N   UNL     1       3.239   5.605  19.938  0.00  0.00    +0.000 NA
ATOM     11  C   UNL     1       4.130   5.117  19.023  0.00  0.00    +0.000 A 
ATOM     12  C   UNL     1       4.864   3.873  19.435  0.00  0.00    +0.000 C 
ENDROOT
BRANCH   1  14
ATOM     13  N   UNL     1       5.002   5.316  15.509  0.00  0.00    +0.000 N 
ATOM     14  C   UNL     1       5.393   5.281  16.841  0.00  0.00    +0.000 C 
ATOM     15  O   UNL     1       6.481   4.933  17.277  0.00  0.00    +0.000 OA
ATOM     16  H   UNL     1       4.121   5.764  15.284  0.00  0.00    +0.000 HD
BRANCH  13  21
ATOM     17  C   UNL     1       5.920   3.459  12.439  0.00  0.00    +0.000 A 
ATOM     18  C   UNL     1       7.208   3.947  12.192  0.00  0.00    +0.000 A 
ATOM     19  C   UNL     1       7.781   4.875  13.055  0.00  0.00    +0.000 A 
ATOM     20  C   UNL     1       7.067   5.325  14.160  0.00  0.00    +0.000 A 
ATOM     21  C   UNL     1       5.767   4.879  14.404  0.00  0.00    +0.000 A 
ATOM     22  C   UNL     1       5.197   3.927  13.548  0.00  0.00    +0.000 A 
BRANCH  17  23
ATOM     23  C   UNL     1       5.328   2.374  11.612  0.00  0.00    +0.000 C 
ATOM     24  O   UNL     1       5.949   1.402  11.217  0.00  0.00    +0.000 OA
BRANCH  23  25
ATOM     25  O   UNL     1       4.066   2.723  11.261  0.00  0.00    +0.000 OA
BRANCH  25  27
ATOM     26  C   UNL     1       2.858   3.847   9.539  0.00  0.00    +0.000 C 
ATOM     27  C   UNL     1       3.924   3.991  10.612  0.00  0.00    +0.000 C 
ENDBRANCH  25  27
ENDBRANCH  23  25
ENDBRANCH  17  23
ENDBRANCH  13  21
ENDBRANCH   1  14
BRANCH   6  28
ATOM     28  C   UNL     1       0.551  10.436  19.024  0.00  0.00    +0.000 C 
BRANCH  28  29
ATOM     29  C   UNL     1       1.393  11.658  19.323  0.00  0.00    +0.000 A 
ATOM     30  C   UNL     1       2.155  12.268  18.314  0.00  0.00    +0.000 A 
ATOM     31  C   UNL     1       2.873  13.438  18.571  0.00  0.00    +0.000 A 
ATOM     32  C   UNL     1       2.842  14.010  19.840  0.00  0.00    +0.000 A 
ATOM     33  C   UNL     1       2.111  13.400  20.858  0.00  0.00    +0.000 A 
ATOM     34  C   UNL     1       1.396  12.226  20.603  0.00  0.00    +0.000 A 
ENDBRANCH  28  29
ENDBRANCH   6  28
TORSDOF 7
ENDMDL
MODEL 6
REMARK VINA RESULT:      -8.3      3.717     10.288
REMARK  Name = 
REMARK  9 active torsions:
REMARK  status: ('A' for Active; 'I' for Inactive)
REMARK    1  A    between atoms: C_1  and  C_2
REMARK    2  A    between atoms: C_2  and  O_3
REMARK    3  A    between atoms: O_3  and  C_4
REMARK    4  A    between atoms: C_4  and  C_6
REMARK    5  A    between atoms: C_10  and  N_11
REMARK    6  A    between atoms: C_12  and  C_14
REMARK    7  A    between atoms: N_19  and  C_20
REMARK    8  A    between atoms: C_20  and  C_21
REMARK    9  A    between atoms: C_31  and  C_32
REMARK                            x       y       z     vdW  Elec       q    Type
REMARK                         _______ _______ _______ _____ _____    ______ ____
ROOT
ATOM      1  C   UNL     1       1.262  10.279  19.047  0.00  0.00    +0.000 A 
ATOM      2  C   UNL     1       1.646  11.525  18.546  0.00  0.00    +0.000 A 
ATOM      3  C   UNL     1       1.475  12.653  19.338  0.00  0.00    +0.000 A 
ATOM      4  C   UNL     1       1.963  13.970  18.892  0.00  0.00    +0.000 A 
ATOM      5  O   UNL     1       2.427  14.073  17.760  0.00  0.00    +0.000 OA
ATOM      6  N   UNL     1       1.866  15.016  19.812  0.00  0.00    +0.000 N 
ATOM      7  C   UNL     1       1.271  14.853  21.057  0.00  0.00    +0.000 A 
ATOM      8  C   UNL     1       0.767  13.678  21.455  0.00  0.00    +0.000 A 
ATOM      9  C   UNL     1       0.885  12.520  20.583  0.00  0.00    +0.000 A 
ATOM     10  N   UNL     1       0.442  11.335  21.069  0.00  0.00    +0.000 NA
ATOM     11  C   UNL     1       0.635  10.221  20.300  0.00  0.00    +0.000 A 
ATOM     12  C   UNL     1       0.167   8.928  20.907  0.00  0.00    +0.000 C 
ENDROOT
BRANCH   1  14
ATOM     13  N   UNL     1       2.621   8.309  18.705  0.00  0.00    +0.000 N 
ATOM     14  C   UNL     1       1.548   9.064  18.249  0.00  0.00    +0.000 C 
ATOM     15  O   UNL     1       0.824   8.807  17.298  0.00  0.00    +0.000 OA
ATOM     16  H   UNL     1       3.040   8.567  19.592  0.00  0.00    +0.000 HD
BRANCH  13  21
ATOM     17  C   UNL     1       2.978   4.724  17.846  0.00  0.00    +0.000 A 
ATOM     18  C   UNL     1       4.071   4.754  16.972  0.00  0.00    +0.000 A 
ATOM     19  C   UNL     1       4.703   5.959  16.685  0.00  0.00    +0.000 A 
ATOM     20  C   UNL     1       4.241   7.138  17.261  0.00  0.00    +0.000 A 
ATOM     21  C   UNL     1       3.129   7.135  18.107  0.00  0.00    +0.000 A 
ATOM     22  C   UNL     1       2.506   5.918  18.414  0.00  0.00    +0.000 A 
BRANCH  17  23
ATOM     23  C   UNL     1       2.361   3.441  18.274  0.00  0.00    +0.000 C 
ATOM     24  O   UNL     1       1.815   2.660  17.512  0.00  0.00    +0.000 OA
BRANCH  23  25
ATOM     25  O   UNL     1       2.378   3.370  19.628  0.00  0.00    +0.000 OA
BRANCH  25  27
ATOM     26  C   UNL     1       1.441   2.647  21.698  0.00  0.00    +0.000 C 
ATOM     27  C   UNL     1       1.144   3.001  20.251  0.00  0.00    +0.000 C 
ENDBRANCH  25  27
ENDBRANCH  23  25
ENDBRANCH  17  23
ENDBRANCH  13  21
ENDBRANCH   1  14
BRANCH   6  28
ATOM     28  C   UNL     1       2.373  16.326  19.409  0.00  0.00    +0.000 C 
BRANCH  28  29
ATOM     29  C   UNL     1       1.431  17.096  18.508  0.00  0.00    +0.000 A 
ATOM     30  C   UNL     1       1.901  17.716  17.339  0.00  0.00    +0.000 A 
ATOM     31  C   UNL     1       1.021  18.363  16.469  0.00  0.00    +0.000 A 
ATOM     32  C   UNL     1      -0.340  18.403  16.760  0.00  0.00    +0.000 A 
ATOM     33  C   UNL     1      -0.817  17.816  17.931  0.00  0.00    +0.000 A 
ATOM     34  C   UNL     1       0.064  17.172  18.804  0.00  0.00    +0.000 A 
ENDBRANCH  28  29
ENDBRANCH   6  28
TORSDOF 7
ENDMDL
MODEL 7
REMARK VINA RESULT:      -8.3      1.404      1.580
REMARK  Name = 
REMARK  9 active torsions:
REMARK  status: ('A' for Active; 'I' for Inactive)
REMARK    1  A    between atoms: C_1  and  C_2
REMARK    2  A    between atoms: C_2  and  O_3
REMARK    3  A    between atoms: O_3  and  C_4
REMARK    4  A    between atoms: C_4  and  C_6
REMARK    5  A    between atoms: C_10  and  N_11
REMARK    6  A    between atoms: C_12  and  C_14
REMARK    7  A    between atoms: N_19  and  C_20
REMARK    8  A    between atoms: C_20  and  C_21
REMARK    9  A    between atoms: C_31  and  C_32
REMARK                            x       y       z     vdW  Elec       q    Type
REMARK                         _______ _______ _______ _____ _____    ______ ____
ROOT
ATOM      1  C   UNL     1       2.628   7.851  18.570  0.00  0.00    +0.000 A 
ATOM      2  C   UNL     1       3.703   7.706  17.689  0.00  0.00    +0.000 A 
ATOM      3  C   UNL     1       4.492   6.566  17.772  0.00  0.00    +0.000 A 
ATOM      4  C   UNL     1       5.569   6.320  16.796  0.00  0.00    +0.000 A 
ATOM      5  O   UNL     1       5.826   7.194  15.972  0.00  0.00    +0.000 OA
ATOM      6  N   UNL     1       6.218   5.087  16.879  0.00  0.00    +0.000 N 
ATOM      7  C   UNL     1       5.925   4.163  17.874  0.00  0.00    +0.000 A 
ATOM      8  C   UNL     1       4.993   4.395  18.806  0.00  0.00    +0.000 A 
ATOM      9  C   UNL     1       4.223   5.628  18.754  0.00  0.00    +0.000 A 
ATOM     10  N   UNL     1       3.230   5.774  19.664  0.00  0.00    +0.000 NA
ATOM     11  C   UNL     1       2.436   6.883  19.566  0.00  0.00    +0.000 A 
ATOM     12  C   UNL     1       1.323   6.972  20.571  0.00  0.00    +0.000 C 
ENDROOT
BRANCH   1  14
ATOM     13  N   UNL     1       1.020   9.363  19.556  0.00  0.00    +0.000 N 
ATOM     14  C   UNL     1       1.719   9.011  18.409  0.00  0.00    +0.000 C 
ATOM     15  O   UNL     1       1.677   9.573  17.324  0.00  0.00    +0.000 OA
ATOM     16  H   UNL     1       1.262   8.896  20.423  0.00  0.00    +0.000 HD
BRANCH  13  21
ATOM     17  C   UNL     1      -2.059  11.323  18.928  0.00  0.00    +0.000 A 
ATOM     18  C   UNL     1      -1.889  12.399  19.806  0.00  0.00    +0.000 A 
ATOM     19  C   UNL     1      -0.743  12.487  20.590  0.00  0.00    +0.000 A 
ATOM     20  C   UNL     1       0.230  11.497  20.507  0.00  0.00    +0.000 A 
ATOM     21  C   UNL     1       0.062  10.396  19.665  0.00  0.00    +0.000 A 
ATOM     22  C   UNL     1      -1.081  10.318  18.858  0.00  0.00    +0.000 A 
BRANCH  17  23
ATOM     23  C   UNL     1      -3.208  11.264  17.985  0.00  0.00    +0.000 C 
ATOM     24  O   UNL     1      -4.350  10.995  18.319  0.00  0.00    +0.000 OA
BRANCH  23  25
ATOM     25  O   UNL     1      -2.749  11.405  16.718  0.00  0.00    +0.000 OA
BRANCH  25  27
ATOM     26  C   UNL     1      -2.839   9.914  14.859  0.00  0.00    +0.000 C 
ATOM     27  C   UNL     1      -3.613  10.929  15.681  0.00  0.00    +0.000 C 
ENDBRANCH  25  27
ENDBRANCH  23  25
ENDBRANCH  17  23
ENDBRANCH  13  21
ENDBRANCH   1  14
BRANCH   6  28
ATOM     28  C   UNL     1       7.267   4.803  15.901  0.00  0.00    +0.000 C 
BRANCH  28  29
ATOM     29  C   UNL     1       6.742   4.458  14.523  0.00  0.00    +0.000 A 
ATOM     30  C   UNL     1       7.493   4.752  13.375  0.00  0.00    +0.000 A 
ATOM     31  C   UNL     1       7.043   4.367  12.109  0.00  0.00    +0.000 A 
ATOM     32  C   UNL     1       5.834   3.690  11.977  0.00  0.00    +0.000 A 
ATOM     33  C   UNL     1       5.065   3.415  13.106  0.00  0.00    +0.000 A 
ATOM     34  C   UNL     1       5.512   3.804  14.372  0.00  0.00    +0.000 A 
ENDBRANCH  28  29
ENDBRANCH   6  28
TORSDOF 7
ENDMDL
MODEL 8
REMARK VINA RESULT:      -8.3      1.834      3.010
REMARK  Name = 
REMARK  9 active torsions:
REMARK  status: ('A' for Active; 'I' for Inactive)
REMARK    1  A    between atoms: C_1  and  C_2
REMARK    2  A    between atoms: C_2  and  O_3
REMARK    3  A    between atoms: O_3  and  C_4
REMARK    4  A    between atoms: C_4  and  C_6
REMARK    5  A    between atoms: C_10  and  N_11
REMARK    6  A    between atoms: C_12  and  C_14
REMARK    7  A    between atoms: N_19  and  C_20
REMARK    8  A    between atoms: C_20  and  C_21
REMARK    9  A    between atoms: C_31  and  C_32
REMARK                            x       y       z     vdW  Elec       q    Type
REMARK                         _______ _______ _______ _____ _____    ______ ____
ROOT
ATOM      1  C   UNL     1       2.762   6.853  18.702  0.00  0.00    +0.000 A 
ATOM      2  C   UNL     1       3.700   7.005  17.678  0.00  0.00    +0.000 A 
ATOM      3  C   UNL     1       4.348   5.880  17.186  0.00  0.00    +0.000 A 
ATOM      4  C   UNL     1       5.265   5.979  16.036  0.00  0.00    +0.000 A 
ATOM      5  O   UNL     1       5.529   7.092  15.589  0.00  0.00    +0.000 OA
ATOM      6  N   UNL     1       5.764   4.777  15.529  0.00  0.00    +0.000 N 
ATOM      7  C   UNL     1       5.479   3.551  16.119  0.00  0.00    +0.000 A 
ATOM      8  C   UNL     1       4.698   3.448  17.201  0.00  0.00    +0.000 A 
ATOM      9  C   UNL     1       4.084   4.645  17.754  0.00  0.00    +0.000 A 
ATOM     10  N   UNL     1       3.230   4.477  18.792  0.00  0.00    +0.000 NA
ATOM     11  C   UNL     1       2.572   5.580  19.260  0.00  0.00    +0.000 A 
ATOM     12  C   UNL     1       1.603   5.329  20.380  0.00  0.00    +0.000 C 
ENDROOT
BRANCH   1  14
ATOM     13  N   UNL     1       1.487   8.823  18.122  0.00  0.00    +0.000 N 
ATOM     14  C   UNL     1       1.989   8.036  19.150  0.00  0.00    +0.000 C 
ATOM     15  O   UNL     1       1.829   8.209  20.349  0.00  0.00    +0.000 OA
ATOM     16  H   UNL     1       1.577   8.479  17.172  0.00  0.00    +0.000 HD
BRANCH  13  21
ATOM     17  C   UNL     1       0.777  12.391  18.814  0.00  0.00    +0.000 A 
ATOM     18  C   UNL     1      -0.605  12.448  18.598  0.00  0.00    +0.000 A 
ATOM     19  C   UNL     1      -1.305  11.299  18.245  0.00  0.00    +0.000 A 
ATOM     20  C   UNL     1      -0.627  10.094  18.096  0.00  0.00    +0.000 A 
ATOM     21  C   UNL     1       0.757  10.024  18.271  0.00  0.00    +0.000 A 
ATOM     22  C   UNL     1       1.459  11.176  18.649  0.00  0.00    +0.000 A 
BRANCH  17  23
ATOM     23  C   UNL     1       1.533  13.569  19.315  0.00  0.00    +0.000 C 
ATOM     24  O   UNL     1       1.231  14.199  20.315  0.00  0.00    +0.000 OA
BRANCH  23  25
ATOM     25  O   UNL     1       2.491  13.898  18.413  0.00  0.00    +0.000 OA
BRANCH  25  27
ATOM     26  C   UNL     1       4.454  15.094  17.780  0.00  0.00    +0.000 C 
ATOM     27  C   UNL     1       3.665  14.520  18.944  0.00  0.00    +0.000 C 
ENDBRANCH  25  27
ENDBRANCH  23  25
ENDBRANCH  17  23
ENDBRANCH  13  21
ENDBRANCH   1  14
BRANCH   6  28
ATOM     28  C   UNL     1       6.648   4.843  14.367  0.00  0.00    +0.000 C 
BRANCH  28  29
ATOM     29  C   UNL     1       6.183   4.003  13.196  0.00  0.00    +0.000 A 
ATOM     30  C   UNL     1       7.093   3.222  12.468  0.00  0.00    +0.000 A 
ATOM     31  C   UNL     1       6.654   2.390  11.435  0.00  0.00    +0.000 A 
ATOM     32  C   UNL     1       5.301   2.334  11.115  0.00  0.00    +0.000 A 
ATOM     33  C   UNL     1       4.389   3.125  11.812  0.00  0.00    +0.000 A 
ATOM     34  C   UNL     1       4.828   3.961  12.842  0.00  0.00    +0.000 A 
ENDBRANCH  28  29
ENDBRANCH   6  28
TORSDOF 7
ENDMDL
MODEL 9
REMARK VINA RESULT:      -8.2      1.727      2.212
REMARK  Name = 
REMARK  9 active torsions:
REMARK  status: ('A' for Active; 'I' for Inactive)
REMARK    1  A    between atoms: C_1  and  C_2
REMARK    2  A    between atoms: C_2  and  O_3
REMARK    3  A    between atoms: O_3  and  C_4
REMARK    4  A    between atoms: C_4  and  C_6
REMARK    5  A    between atoms: C_10  and  N_11
REMARK    6  A    between atoms: C_12  and  C_14
REMARK    7  A    between atoms: N_19  and  C_20
REMARK    8  A    between atoms: C_20  and  C_21
REMARK    9  A    between atoms: C_31  and  C_32
REMARK                            x       y       z     vdW  Elec       q    Type
REMARK                         _______ _______ _______ _____ _____    ______ ____
ROOT
ATOM      1  C   UNL     1       2.760   6.929  18.629  0.00  0.00    +0.000 A 
ATOM      2  C   UNL     1       3.632   7.072  17.548  0.00  0.00    +0.000 A 
ATOM      3  C   UNL     1       4.371   5.973  17.128  0.00  0.00    +0.000 A 
ATOM      4  C   UNL     1       5.222   6.050  15.927  0.00  0.00    +0.000 A 
ATOM      5  O   UNL     1       5.350   7.135  15.366  0.00  0.00    +0.000 OA
ATOM      6  N   UNL     1       5.819   4.859  15.507  0.00  0.00    +0.000 N 
ATOM      7  C   UNL     1       5.687   3.675  16.221  0.00  0.00    +0.000 A 
ATOM      8  C   UNL     1       4.968   3.601  17.347  0.00  0.00    +0.000 A 
ATOM      9  C   UNL     1       4.259   4.780  17.820  0.00  0.00    +0.000 A 
ATOM     10  N   UNL     1       3.472   4.630  18.913  0.00  0.00    +0.000 NA
ATOM     11  C   UNL     1       2.725   5.704  19.311  0.00  0.00    +0.000 A 
ATOM     12  C   UNL     1       1.836   5.468  20.499  0.00  0.00    +0.000 C 
ENDROOT
BRANCH   1  14
ATOM     13  N   UNL     1       1.630   8.174  20.366  0.00  0.00    +0.000 N 
ATOM     14  C   UNL     1       1.889   8.068  19.006  0.00  0.00    +0.000 C 
ATOM     15  O   UNL     1       1.503   8.824  18.126  0.00  0.00    +0.000 OA
ATOM     16  H   UNL     1       2.134   7.560  20.995  0.00  0.00    +0.000 HD
BRANCH  13  21
ATOM     17  C   UNL     1      -0.580  11.121  20.749  0.00  0.00    +0.000 A 
ATOM     18  C   UNL     1      -0.852  11.090  22.121  0.00  0.00    +0.000 A 
ATOM     19  C   UNL     1      -0.285  10.105  22.924  0.00  0.00    +0.000 A 
ATOM     20  C   UNL     1       0.545   9.144  22.358  0.00  0.00    +0.000 A 
ATOM     21  C   UNL     1       0.800   9.136  20.984  0.00  0.00    +0.000 A 
ATOM     22  C   UNL     1       0.248  10.141  20.179  0.00  0.00    +0.000 A 
BRANCH  17  23
ATOM     23  C   UNL     1      -1.065  12.231  19.886  0.00  0.00    +0.000 C 
ATOM     24  O   UNL     1      -1.272  13.365  20.286  0.00  0.00    +0.000 OA
BRANCH  23  25
ATOM     25  O   UNL     1      -1.369  11.739  18.660  0.00  0.00    +0.000 OA
BRANCH  25  27
ATOM     26  C   UNL     1      -2.791  10.088  17.692  0.00  0.00    +0.000 C 
ATOM     27  C   UNL     1      -2.743  11.409  18.441  0.00  0.00    +0.000 C 
ENDBRANCH  25  27
ENDBRANCH  23  25
ENDBRANCH  17  23
ENDBRANCH  13  21
ENDBRANCH   1  14
BRANCH   6  28
ATOM     28  C   UNL     1       6.641   4.899  14.299  0.00  0.00    +0.000 C 
BRANCH  28  29
ATOM     29  C   UNL     1       6.168   3.964  13.206  0.00  0.00    +0.000 A 
ATOM     30  C   UNL     1       4.824   3.959  12.799  0.00  0.00    +0.000 A 
ATOM     31  C   UNL     1       4.402   3.150  11.741  0.00  0.00    +0.000 A 
ATOM     32  C   UNL     1       5.316   2.334  11.081  0.00  0.00    +0.000 A 
ATOM     33  C   UNL     1       6.648   2.309  11.493  0.00  0.00    +0.000 A 
ATOM     34  C   UNL     1       7.070   3.114  12.554  0.00  0.00    +0.000 A 
ENDBRANCH  28  29
ENDBRANCH   6  28
TORSDOF 7
ENDMDL
