MODEL 1
REMARK VINA RESULT:      -7.8      0.000      0.000
REMARK  Name = 
REMARK  10 active torsions:
REMARK  status: ('A' for Active; 'I' for Inactive)
REMARK    1  A    between atoms: C_1  and  O_2
REMARK    2  A    between atoms: O_2  and  C_3
REMARK    3  A    between atoms: C_6  and  C_7
REMARK    4  A    between atoms: C_7  and  N_8
REMARK    5  A    between atoms: C_12  and  C_14
REMARK    6  A    between atoms: C_18  and  O_19
REMARK    7  A    between atoms: C_26  and  O_27
REMARK    8  A    between atoms: O_27  and  C_28
REMARK    9  A    between atoms: C_29  and  O_30
REMARK   10  A    between atoms: O_30  and  C_31
REMARK                            x       y       z     vdW  Elec       q    Type
REMARK                         _______ _______ _______ _____ _____    ______ ____
ROOT
ATOM      1  N   UNL     1       0.512  10.733  19.179  0.00  0.00    +0.000 NA
ATOM      2  C   UNL     1       0.775  10.272  20.553  0.00  0.00    +0.000 C 
ATOM      3  C   UNL     1       0.893   8.731  20.537  0.00  0.00    +0.000 C 
ATOM      4  N   UNL     1       1.892   8.260  19.567  0.00  0.00    +0.000 N 
ATOM      5  C   UNL     1       2.304   6.922  19.664  0.00  0.00    +0.000 C 
ATOM      6  O   UNL     1       1.761   6.118  20.421  0.00  0.00    +0.000 OA
ATOM      7  C   UNL     1       1.777   8.904  18.239  0.00  0.00    +0.000 C 
ATOM      8  C   UNL     1       1.670  10.435  18.338  0.00  0.00    +0.000 C 
ENDROOT
BRANCH   5   9
ATOM      9  C   UNL     1       3.431   6.534  18.844  0.00  0.00    +0.000 A 
ATOM     10  C   UNL     1       3.754   6.898  17.549  0.00  0.00    +0.000 A 
ATOM     11  C   UNL     1       4.914   6.199  17.155  0.00  0.00    +0.000 A 
ATOM     12  C   UNL     1       5.634   6.126  15.947  0.00  0.00    +0.000 A 
ATOM     13  C   UNL     1       6.759   5.303  15.889  0.00  0.00    +0.000 A 
ATOM     14  C   UNL     1       7.166   4.563  16.991  0.00  0.00    +0.000 A 
ATOM     15  C   UNL     1       6.469   4.630  18.206  0.00  0.00    +0.000 A 
ATOM     16  C   UNL     1       5.342   5.462  18.257  0.00  0.00    +0.000 A 
ATOM     17  N   UNL     1       4.463   5.743  19.291  0.00  0.00    +0.000 N 
ATOM     18  H   UNL     1       4.544   5.381  20.232  0.00  0.00    +0.000 HD
BRANCH  13  19
ATOM     19  O   UNL     1       7.487   5.204  14.739  0.00  0.00    +0.000 OA
ATOM     20  H   UNL     1       7.486   4.280  14.451  0.00  0.00    +0.000 HD
ENDBRANCH  13  19
ENDBRANCH   5   9
BRANCH   1  21
ATOM     21  C   UNL     1      -0.103  12.053  19.012  0.00  0.00    +0.000 C 
BRANCH  21  25
ATOM     22  C   UNL     1      -4.394  11.602  18.388  0.00  0.00    +0.000 A 
ATOM     23  C   UNL     1      -3.481  11.256  17.396  0.00  0.00    +0.000 A 
ATOM     24  C   UNL     1      -2.127  11.462  17.589  0.00  0.00    +0.000 A 
ATOM     25  C   UNL     1      -1.620  11.974  18.791  0.00  0.00    +0.000 A 
ATOM     26  C   UNL     1      -2.550  12.402  19.772  0.00  0.00    +0.000 A 
ATOM     27  C   UNL     1      -3.952  12.274  19.544  0.00  0.00    +0.000 A 
BRANCH  22  29
ATOM     28  C   UNL     1      -6.475  12.190  17.458  0.00  0.00    +0.000 C 
ATOM     29  O   UNL     1      -5.719  11.269  18.249  0.00  0.00    +0.000 OA
ENDBRANCH  22  29
BRANCH  26  30
ATOM     30  O   UNL     1      -1.972  12.973  20.888  0.00  0.00    +0.000 OA
ATOM     31  C   UNL     1      -1.987  12.209  22.091  0.00  0.00    +0.000 C 
ENDBRANCH  26  30
BRANCH  27  32
ATOM     32  O   UNL     1      -4.787  12.743  20.527  0.00  0.00    +0.000 OA
ATOM     33  C   UNL     1      -5.293  14.069  20.452  0.00  0.00    +0.000 C 
ENDBRANCH  27  32
ENDBRANCH  21  25
ENDBRANCH   1  21
TORSDOF 7
ENDMDL
MODEL 2
REMARK VINA RESULT:      -7.8      1.486      1.921
REMARK  Name = 
REMARK  10 active torsions:
REMARK  status: ('A' for Active; 'I' for Inactive)
REMARK    1  A    between atoms: C_1  and  O_2
REMARK    2  A    between atoms: O_2  and  C_3
REMARK    3  A    between atoms: C_6  and  C_7
REMARK    4  A    between atoms: C_7  and  N_8
REMARK    5  A    between atoms: C_12  and  C_14
REMARK    6  A    between atoms: C_18  and  O_19
REMARK    7  A    between atoms: C_26  and  O_27
REMARK    8  A    between atoms: O_27  and  C_28
REMARK    9  A    between atoms: C_29  and  O_30
REMARK   10  A    between atoms: O_30  and  C_31
REMARK                            x       y       z     vdW  Elec       q    Type
REMARK                         _______ _______ _______ _____ _____    ______ ____
ROOT
ATOM      1  N   UNL     1       0.772   9.323  19.837  0.00  0.00    +0.000 NA
ATOM      2  C   UNL     1       1.331   8.766  21.081  0.00  0.00    +0.000 C 
ATOM      3  C   UNL     1       1.540   7.247  20.885  0.00  0.00    +0.000 C 
ATOM      4  N   UNL     1       2.355   6.948  19.698  0.00  0.00    +0.000 N 
ATOM      5  C   UNL     1       2.862   5.645  19.577  0.00  0.00    +0.000 C 
ATOM      6  O   UNL     1       2.532   4.735  20.336  0.00  0.00    +0.000 OA
ATOM      7  C   UNL     1       1.938   7.694  18.490  0.00  0.00    +0.000 C 
ATOM      8  C   UNL     1       1.756   9.197  18.764  0.00  0.00    +0.000 C 
ENDROOT
BRANCH   5   9
ATOM      9  C   UNL     1       3.826   5.424  18.521  0.00  0.00    +0.000 A 
ATOM     10  C   UNL     1       5.005   6.092  18.241  0.00  0.00    +0.000 A 
ATOM     11  C   UNL     1       5.563   5.556  17.062  0.00  0.00    +0.000 A 
ATOM     12  C   UNL     1       6.693   5.891  16.289  0.00  0.00    +0.000 A 
ATOM     13  C   UNL     1       6.958   5.148  15.139  0.00  0.00    +0.000 A 
ATOM     14  C   UNL     1       6.130   4.102  14.751  0.00  0.00    +0.000 A 
ATOM     15  C   UNL     1       5.007   3.747  15.512  0.00  0.00    +0.000 A 
ATOM     16  C   UNL     1       4.749   4.497  16.668  0.00  0.00    +0.000 A 
ATOM     17  N   UNL     1       3.743   4.393  17.615  0.00  0.00    +0.000 N 
ATOM     18  H   UNL     1       3.021   3.685  17.616  0.00  0.00    +0.000 HD
BRANCH  13  19
ATOM     19  O   UNL     1       8.042   5.436  14.362  0.00  0.00    +0.000 OA
ATOM     20  H   UNL     1       7.757   5.999  13.629  0.00  0.00    +0.000 HD
ENDBRANCH  13  19
ENDBRANCH   5   9
BRANCH   1  21
ATOM     21  C   UNL     1       0.053  10.598  19.927  0.00  0.00    +0.000 C 
BRANCH  21  25
ATOM     22  C   UNL     1      -3.162  10.727  16.987  0.00  0.00    +0.000 A 
ATOM     23  C   UNL     1      -1.971  10.058  16.724  0.00  0.00    +0.000 A 
ATOM     24  C   UNL     1      -0.938  10.078  17.644  0.00  0.00    +0.000 A 
ATOM     25  C   UNL     1      -1.064  10.721  18.883  0.00  0.00    +0.000 A 
ATOM     26  C   UNL     1      -2.243  11.471  19.122  0.00  0.00    +0.000 A 
ATOM     27  C   UNL     1      -3.277  11.527  18.140  0.00  0.00    +0.000 A 
BRANCH  22  29
ATOM     28  C   UNL     1      -3.871  10.248  14.794  0.00  0.00    +0.000 C 
ATOM     29  O   UNL     1      -4.231  10.589  16.136  0.00  0.00    +0.000 OA
ENDBRANCH  22  29
BRANCH  26  30
ATOM     30  O   UNL     1      -2.252  12.143  20.328  0.00  0.00    +0.000 OA
ATOM     31  C   UNL     1      -1.886  13.520  20.308  0.00  0.00    +0.000 C 
ENDBRANCH  26  30
BRANCH  27  32
ATOM     32  O   UNL     1      -4.371  12.301  18.434  0.00  0.00    +0.000 OA
ATOM     33  C   UNL     1      -5.469  11.736  19.138  0.00  0.00    +0.000 C 
ENDBRANCH  27  32
ENDBRANCH  21  25
ENDBRANCH   1  21
TORSDOF 7
ENDMDL
MODEL 3
REMARK VINA RESULT:      -7.8      1.147      2.138
REMARK  Name = 
REMARK  10 active torsions:
REMARK  status: ('A' for Active; 'I' for Inactive)
REMARK    1  A    between atoms: C_1  and  O_2
REMARK    2  A    between atoms: O_2  and  C_3
REMARK    3  A    between atoms: C_6  and  C_7
REMARK    4  A    between atoms: C_7  and  N_8
REMARK    5  A    between atoms: C_12  and  C_14
REMARK    6  A    between atoms: C_18  and  O_19
REMARK    7  A    between atoms: C_26  and  O_27
REMARK    8  A    between atoms: O_27  and  C_28
REMARK    9  A    between atoms: C_29  and  O_30
REMARK   10  A    between atoms: O_30  and  C_31
REMARK                            x       y       z     vdW  Elec       q    Type
REMARK                         _______ _______ _______ _____ _____    ______ ____
ROOT
ATOM      1  N   UNL     1       0.552  10.726  18.999  0.00  0.00    +0.000 NA
ATOM      2  C   UNL     1       0.990  10.362  20.358  0.00  0.00    +0.000 C 
ATOM      3  C   UNL     1       1.059   8.821  20.453  0.00  0.00    +0.000 C 
ATOM      4  N   UNL     1       1.899   8.237  19.397  0.00  0.00    +0.000 N 
ATOM      5  C   UNL     1       2.282   6.895  19.546  0.00  0.00    +0.000 C 
ATOM      6  O   UNL     1       1.826   6.174  20.434  0.00  0.00    +0.000 OA
ATOM      7  C   UNL     1       1.619   8.780  18.049  0.00  0.00    +0.000 C 
ATOM      8  C   UNL     1       1.572  10.318  18.036  0.00  0.00    +0.000 C 
ENDROOT
BRANCH   5   9
ATOM      9  C   UNL     1       3.271   6.399  18.615  0.00  0.00    +0.000 A 
ATOM     10  C   UNL     1       4.379   7.030  18.078  0.00  0.00    +0.000 A 
ATOM     11  C   UNL     1       4.998   6.158  17.157  0.00  0.00    +0.000 A 
ATOM     12  C   UNL     1       6.095   6.296  16.284  0.00  0.00    +0.000 A 
ATOM     13  C   UNL     1       6.442   5.214  15.474  0.00  0.00    +0.000 A 
ATOM     14  C   UNL     1       5.726   4.025  15.515  0.00  0.00    +0.000 A 
ATOM     15  C   UNL     1       4.638   3.865  16.385  0.00  0.00    +0.000 A 
ATOM     16  C   UNL     1       4.297   4.955  17.198  0.00  0.00    +0.000 A 
ATOM     17  N   UNL     1       3.299   5.107  18.147  0.00  0.00    +0.000 N 
ATOM     18  H   UNL     1       2.652   4.381  18.425  0.00  0.00    +0.000 HD
BRANCH  13  19
ATOM     19  O   UNL     1       7.498   5.303  14.614  0.00  0.00    +0.000 OA
ATOM     20  H   UNL     1       7.578   4.467  14.134  0.00  0.00    +0.000 HD
ENDBRANCH  13  19
ENDBRANCH   5   9
BRANCH   1  21
ATOM     21  C   UNL     1      -0.042  12.053  18.810  0.00  0.00    +0.000 C 
BRANCH  21  25
ATOM     22  C   UNL     1      -4.205  12.435  20.045  0.00  0.00    +0.000 A 
ATOM     23  C   UNL     1      -3.163  12.754  20.912  0.00  0.00    +0.000 A 
ATOM     24  C   UNL     1      -1.849  12.569  20.524  0.00  0.00    +0.000 A 
ATOM     25  C   UNL     1      -1.513  12.108  19.244  0.00  0.00    +0.000 A 
ATOM     26  C   UNL     1      -2.569  11.706  18.388  0.00  0.00    +0.000 A 
ATOM     27  C   UNL     1      -3.926  11.811  18.814  0.00  0.00    +0.000 A 
BRANCH  22  29
ATOM     28  C   UNL     1      -5.838  14.125  20.183  0.00  0.00    +0.000 C 
ATOM     29  O   UNL     1      -5.499  12.749  20.381  0.00  0.00    +0.000 OA
ENDBRANCH  22  29
BRANCH  26  30
ATOM     30  O   UNL     1      -2.151  11.184  17.180  0.00  0.00    +0.000 OA
ATOM     31  C   UNL     1      -2.231   9.770  17.019  0.00  0.00    +0.000 C 
ENDBRANCH  26  30
BRANCH  27  32
ATOM     32  O   UNL     1      -4.888  11.370  17.941  0.00  0.00    +0.000 OA
ATOM     33  C   UNL     1      -5.436  12.264  16.981  0.00  0.00    +0.000 C 
ENDBRANCH  27  32
ENDBRANCH  21  25
ENDBRANCH   1  21
TORSDOF 7
ENDMDL
MODEL 4
REMARK VINA RESULT:      -7.7      0.674      1.158
REMARK  Name = 
REMARK  10 active torsions:
REMARK  status: ('A' for Active; 'I' for Inactive)
REMARK    1  A    between atoms: C_1  and  O_2
REMARK    2  A    between atoms: O_2  and  C_3
REMARK    3  A    between atoms: C_6  and  C_7
REMARK    4  A    between atoms: C_7  and  N_8
REMARK    5  A    between atoms: C_12  and  C_14
REMARK    6  A    between atoms: C_18  and  O_19
REMARK    7  A    between atoms: C_26  and  O_27
REMARK    8  A    between atoms: O_27  and  C_28
REMARK    9  A    between atoms: C_29  and  O_30
REMARK   10  A    between atoms: O_30  and  C_31
REMARK                            x       y       z     vdW  Elec       q    Type
REMARK                         _______ _______ _______ _____ _____    ______ ____
ROOT
ATOM      1  N   UNL     1       0.481  10.689  19.090  0.00  0.00    +0.000 NA
ATOM      2  C   UNL     1       0.751  10.367  20.502  0.00  0.00    +0.000 C 
ATOM      3  C   UNL     1       0.799   8.829  20.652  0.00  0.00    +0.000 C 
ATOM      4  N   UNL     1       1.757   8.211  19.723  0.00  0.00    +0.000 N 
ATOM      5  C   UNL     1       2.112   6.874  19.958  0.00  0.00    +0.000 C 
ATOM      6  O   UNL     1       1.549   6.181  20.805  0.00  0.00    +0.000 OA
ATOM      7  C   UNL     1       1.644   8.713  18.335  0.00  0.00    +0.000 C 
ATOM      8  C   UNL     1       1.607  10.250  18.270  0.00  0.00    +0.000 C 
ENDROOT
BRANCH   5   9
ATOM      9  C   UNL     1       3.203   6.348  19.168  0.00  0.00    +0.000 A 
ATOM     10  C   UNL     1       4.253   5.526  19.539  0.00  0.00    +0.000 A 
ATOM     11  C   UNL     1       5.105   5.347  18.430  0.00  0.00    +0.000 A 
ATOM     12  C   UNL     1       6.335   4.682  18.254  0.00  0.00    +0.000 A 
ATOM     13  C   UNL     1       6.937   4.714  16.996  0.00  0.00    +0.000 A 
ATOM     14  C   UNL     1       6.348   5.388  15.934  0.00  0.00    +0.000 A 
ATOM     15  C   UNL     1       5.120   6.047  16.086  0.00  0.00    +0.000 A 
ATOM     16  C   UNL     1       4.520   6.007  17.352  0.00  0.00    +0.000 A 
ATOM     17  N   UNL     1       3.328   6.544  17.813  0.00  0.00    +0.000 N 
ATOM     18  H   UNL     1       2.663   7.048  17.242  0.00  0.00    +0.000 HD
BRANCH  13  19
ATOM     19  O   UNL     1       8.127   4.083  16.781  0.00  0.00    +0.000 OA
ATOM     20  H   UNL     1       8.843   4.664  17.073  0.00  0.00    +0.000 HD
ENDBRANCH  13  19
ENDBRANCH   5   9
BRANCH   1  21
ATOM     21  C   UNL     1      -0.079  12.011  18.791  0.00  0.00    +0.000 C 
BRANCH  21  25
ATOM     22  C   UNL     1      -4.412  11.722  18.419  0.00  0.00    +0.000 A 
ATOM     23  C   UNL     1      -3.572  11.357  17.371  0.00  0.00    +0.000 A 
ATOM     24  C   UNL     1      -2.203  11.512  17.485  0.00  0.00    +0.000 A 
ATOM     25  C   UNL     1      -1.608  11.988  18.661  0.00  0.00    +0.000 A 
ATOM     26  C   UNL     1      -2.461  12.437  19.699  0.00  0.00    +0.000 A 
ATOM     27  C   UNL     1      -3.879  12.362  19.554  0.00  0.00    +0.000 A 
BRANCH  22  29
ATOM     28  C   UNL     1      -6.499  12.316  17.507  0.00  0.00    +0.000 C 
ATOM     29  O   UNL     1      -5.754  11.438  18.355  0.00  0.00    +0.000 OA
ENDBRANCH  22  29
BRANCH  26  30
ATOM     30  O   UNL     1      -1.799  12.971  20.786  0.00  0.00    +0.000 OA
ATOM     31  C   UNL     1      -1.872  12.249  22.013  0.00  0.00    +0.000 C 
ENDBRANCH  26  30
BRANCH  27  32
ATOM     32  O   UNL     1      -4.636  12.847  20.590  0.00  0.00    +0.000 OA
ATOM     33  C   UNL     1      -5.135  14.176  20.540  0.00  0.00    +0.000 C 
ENDBRANCH  27  32
ENDBRANCH  21  25
ENDBRANCH   1  21
TORSDOF 7
ENDMDL
MODEL 5
REMARK VINA RESULT:      -7.6      1.163      2.324
REMARK  Name = 
REMARK  10 active torsions:
REMARK  status: ('A' for Active; 'I' for Inactive)
REMARK    1  A    between atoms: C_1  and  O_2
REMARK    2  A    between atoms: O_2  and  C_3
REMARK    3  A    between atoms: C_6  and  C_7
REMARK    4  A    between atoms: C_7  and  N_8
REMARK    5  A    between atoms: C_12  and  C_14
REMARK    6  A    between atoms: C_18  and  O_19
REMARK    7  A    between atoms: C_26  and  O_27
REMARK    8  A    between atoms: O_27  and  C_28
REMARK    9  A    between atoms: C_29  and  O_30
REMARK   10  A    between atoms: O_30  and  C_31
REMARK                            x       y       z     vdW  Elec       q    Type
REMARK                         _______ _______ _______ _____ _____    ______ ____
ROOT
ATOM      1  N   UNL     1       0.441  10.737  19.060  0.00  0.00    +0.000 NA
ATOM      2  C   UNL     1       0.712  10.428  20.474  0.00  0.00    +0.000 C 
ATOM      3  C   UNL     1       0.767   8.892  20.637  0.00  0.00    +0.000 C 
ATOM      4  N   UNL     1       1.727   8.270  19.714  0.00  0.00    +0.000 N 
ATOM      5  C   UNL     1       2.087   6.936  19.960  0.00  0.00    +0.000 C 
ATOM      6  O   UNL     1       1.527   6.249  20.813  0.00  0.00    +0.000 OA
ATOM      7  C   UNL     1       1.612   8.759  18.321  0.00  0.00    +0.000 C 
ATOM      8  C   UNL     1       1.569  10.295  18.242  0.00  0.00    +0.000 C 
ENDROOT
BRANCH   5   9
ATOM      9  C   UNL     1       3.181   6.408  19.174  0.00  0.00    +0.000 A 
ATOM     10  C   UNL     1       4.192   5.536  19.534  0.00  0.00    +0.000 A 
ATOM     11  C   UNL     1       5.067   5.375  18.439  0.00  0.00    +0.000 A 
ATOM     12  C   UNL     1       6.278   4.677  18.265  0.00  0.00    +0.000 A 
ATOM     13  C   UNL     1       6.913   4.743  17.024  0.00  0.00    +0.000 A 
ATOM     14  C   UNL     1       6.374   5.481  15.978  0.00  0.00    +0.000 A 
ATOM     15  C   UNL     1       5.164   6.174  16.129  0.00  0.00    +0.000 A 
ATOM     16  C   UNL     1       4.531   6.101  17.378  0.00  0.00    +0.000 A 
ATOM     17  N   UNL     1       3.346   6.658  17.833  0.00  0.00    +0.000 N 
ATOM     18  H   UNL     1       2.713   7.208  17.268  0.00  0.00    +0.000 HD
BRANCH  13  19
ATOM     19  O   UNL     1       8.087   4.081  16.810  0.00  0.00    +0.000 OA
ATOM     20  H   UNL     1       8.432   3.780  17.663  0.00  0.00    +0.000 HD
ENDBRANCH  13  19
ENDBRANCH   5   9
BRANCH   1  21
ATOM     21  C   UNL     1      -0.124  12.054  18.749  0.00  0.00    +0.000 C 
BRANCH  21  25
ATOM     22  C   UNL     1      -4.248  12.667  20.022  0.00  0.00    +0.000 A 
ATOM     23  C   UNL     1      -3.180  12.996  20.852  0.00  0.00    +0.000 A 
ATOM     24  C   UNL     1      -1.881  12.739  20.456  0.00  0.00    +0.000 A 
ATOM     25  C   UNL     1      -1.585  12.191  19.201  0.00  0.00    +0.000 A 
ATOM     26  C   UNL     1      -2.669  11.780  18.386  0.00  0.00    +0.000 A 
ATOM     27  C   UNL     1      -4.014  11.962  18.826  0.00  0.00    +0.000 A 
BRANCH  22  29
ATOM     28  C   UNL     1      -6.067  12.354  21.484  0.00  0.00    +0.000 C 
ATOM     29  O   UNL     1      -5.523  13.050  20.358  0.00  0.00    +0.000 OA
ENDBRANCH  22  29
BRANCH  26  30
ATOM     30  O   UNL     1      -2.292  11.172  17.205  0.00  0.00    +0.000 OA
ATOM     31  C   UNL     1      -2.363   9.750  17.154  0.00  0.00    +0.000 C 
ENDBRANCH  26  30
BRANCH  27  32
ATOM     32  O   UNL     1      -5.007  11.507  17.995  0.00  0.00    +0.000 OA
ATOM     33  C   UNL     1      -5.608  12.393  17.060  0.00  0.00    +0.000 C 
ENDBRANCH  27  32
ENDBRANCH  21  25
ENDBRANCH   1  21
TORSDOF 7
ENDMDL
MODEL 6
REMARK VINA RESULT:      -7.6      1.497      1.844
REMARK  Name = 
REMARK  10 active torsions:
REMARK  status: ('A' for Active; 'I' for Inactive)
REMARK    1  A    between atoms: C_1  and  O_2
REMARK    2  A    between atoms: O_2  and  C_3
REMARK    3  A    between atoms: C_6  and  C_7
REMARK    4  A    between atoms: C_7  and  N_8
REMARK    5  A    between atoms: C_12  and  C_14
REMARK    6  A    between atoms: C_18  and  O_19
REMARK    7  A    between atoms: C_26  and  O_27
REMARK    8  A    between atoms: O_27  and  C_28
REMARK    9  A    between atoms: C_29  and  O_30
REMARK   10  A    between atoms: O_30  and  C_31
REMARK                            x       y       z     vdW  Elec       q    Type
REMARK                         _______ _______ _______ _____ _____    ______ ____
ROOT
ATOM      1  N   UNL     1       0.746   9.365  19.929  0.00  0.00    +0.000 NA
ATOM      2  C   UNL     1       1.403   8.867  21.151  0.00  0.00    +0.000 C 
ATOM      3  C   UNL     1       1.605   7.341  21.010  0.00  0.00    +0.000 C 
ATOM      4  N   UNL     1       2.326   6.989  19.778  0.00  0.00    +0.000 N 
ATOM      5  C   UNL     1       2.830   5.682  19.678  0.00  0.00    +0.000 C 
ATOM      6  O   UNL     1       2.565   4.808  20.502  0.00  0.00    +0.000 OA
ATOM      7  C   UNL     1       1.813   7.677  18.572  0.00  0.00    +0.000 C 
ATOM      8  C   UNL     1       1.645   9.191  18.791  0.00  0.00    +0.000 C 
ENDROOT
BRANCH   5   9
ATOM      9  C   UNL     1       3.710   5.415  18.562  0.00  0.00    +0.000 A 
ATOM     10  C   UNL     1       3.482   4.694  17.403  0.00  0.00    +0.000 A 
ATOM     11  C   UNL     1       4.673   4.654  16.649  0.00  0.00    +0.000 A 
ATOM     12  C   UNL     1       5.034   4.015  15.446  0.00  0.00    +0.000 A 
ATOM     13  C   UNL     1       6.336   4.172  14.972  0.00  0.00    +0.000 A 
ATOM     14  C   UNL     1       7.266   4.937  15.664  0.00  0.00    +0.000 A 
ATOM     15  C   UNL     1       6.924   5.589  16.857  0.00  0.00    +0.000 A 
ATOM     16  C   UNL     1       5.613   5.428  17.325  0.00  0.00    +0.000 A 
ATOM     17  N   UNL     1       4.977   5.938  18.446  0.00  0.00    +0.000 N 
ATOM     18  H   UNL     1       5.399   6.572  19.111  0.00  0.00    +0.000 HD
BRANCH  13  19
ATOM     19  O   UNL     1       6.728   3.572  13.811  0.00  0.00    +0.000 OA
ATOM     20  H   UNL     1       6.630   2.615  13.909  0.00  0.00    +0.000 HD
ENDBRANCH  13  19
ENDBRANCH   5   9
BRANCH   1  21
ATOM     21  C   UNL     1       0.030  10.641  20.017  0.00  0.00    +0.000 C 
BRANCH  21  25
ATOM     22  C   UNL     1      -3.168  10.780  17.058  0.00  0.00    +0.000 A 
ATOM     23  C   UNL     1      -1.978  10.105  16.802  0.00  0.00    +0.000 A 
ATOM     24  C   UNL     1      -0.951  10.122  17.728  0.00  0.00    +0.000 A 
ATOM     25  C   UNL     1      -1.081  10.767  18.965  0.00  0.00    +0.000 A 
ATOM     26  C   UNL     1      -2.258  11.523  19.197  0.00  0.00    +0.000 A 
ATOM     27  C   UNL     1      -3.286  11.582  18.209  0.00  0.00    +0.000 A 
BRANCH  22  29
ATOM     28  C   UNL     1      -3.865  10.300  14.861  0.00  0.00    +0.000 C 
ATOM     29  O   UNL     1      -4.232  10.645  16.200  0.00  0.00    +0.000 OA
ENDBRANCH  22  29
BRANCH  26  30
ATOM     30  O   UNL     1      -2.271  12.197  20.401  0.00  0.00    +0.000 OA
ATOM     31  C   UNL     1      -1.946  13.584  20.375  0.00  0.00    +0.000 C 
ENDBRANCH  26  30
BRANCH  27  32
ATOM     32  O   UNL     1      -4.378  12.361  18.494  0.00  0.00    +0.000 OA
ATOM     33  C   UNL     1      -5.491  11.798  19.176  0.00  0.00    +0.000 C 
ENDBRANCH  27  32
ENDBRANCH  21  25
ENDBRANCH   1  21
TORSDOF 7
ENDMDL
MODEL 7
REMARK VINA RESULT:      -7.6      1.241      1.337
REMARK  Name = 
REMARK  10 active torsions:
REMARK  status: ('A' for Active; 'I' for Inactive)
REMARK    1  A    between atoms: C_1  and  O_2
REMARK    2  A    between atoms: O_2  and  C_3
REMARK    3  A    between atoms: C_6  and  C_7
REMARK    4  A    between atoms: C_7  and  N_8
REMARK    5  A    between atoms: C_12  and  C_14
REMARK    6  A    between atoms: C_18  and  O_19
REMARK    7  A    between atoms: C_26  and  O_27
REMARK    8  A    between atoms: O_27  and  C_28
REMARK    9  A    between atoms: C_29  and  O_30
REMARK   10  A    between atoms: O_30  and  C_31
REMARK                            x       y       z     vdW  Elec       q    Type
REMARK                         _______ _______ _______ _____ _____    ______ ____
ROOT
ATOM      1  N   UNL     1       0.875   9.808  20.432  0.00  0.00    +0.000 NA
ATOM      2  C   UNL     1       1.200   9.067  21.663  0.00  0.00    +0.000 C 
ATOM      3  C   UNL     1       1.126   7.554  21.357  0.00  0.00    +0.000 C 
ATOM      4  N   UNL     1       1.969   7.177  20.213  0.00  0.00    +0.000 N 
ATOM      5  C   UNL     1       2.221   5.810  20.021  0.00  0.00    +0.000 C 
ATOM      6  O   UNL     1       1.653   4.936  20.675  0.00  0.00    +0.000 OA
ATOM      7  C   UNL     1       1.816   8.072  19.043  0.00  0.00    +0.000 C 
ATOM      8  C   UNL     1       1.907   9.559  19.429  0.00  0.00    +0.000 C 
ENDROOT
BRANCH   5   9
ATOM      9  C   UNL     1       3.214   5.471  19.024  0.00  0.00    +0.000 A 
ATOM     10  C   UNL     1       3.052   5.015  17.728  0.00  0.00    +0.000 A 
ATOM     11  C   UNL     1       4.323   4.755  17.175  0.00  0.00    +0.000 A 
ATOM     12  C   UNL     1       4.748   4.219  15.943  0.00  0.00    +0.000 A 
ATOM     13  C   UNL     1       6.117   4.075  15.716  0.00  0.00    +0.000 A 
ATOM     14  C   UNL     1       7.049   4.445  16.677  0.00  0.00    +0.000 A 
ATOM     15  C   UNL     1       6.646   4.991  17.904  0.00  0.00    +0.000 A 
ATOM     16  C   UNL     1       5.269   5.134  18.124  0.00  0.00    +0.000 A 
ATOM     17  N   UNL     1       4.566   5.634  19.209  0.00  0.00    +0.000 N 
ATOM     18  H   UNL     1       4.990   6.025  20.040  0.00  0.00    +0.000 HD
BRANCH  13  19
ATOM     19  O   UNL     1       6.574   3.562  14.537  0.00  0.00    +0.000 OA
ATOM     20  H   UNL     1       6.079   3.968  13.811  0.00  0.00    +0.000 HD
ENDBRANCH  13  19
ENDBRANCH   5   9
BRANCH   1  21
ATOM     21  C   UNL     1       0.413  11.192  20.575  0.00  0.00    +0.000 C 
BRANCH  21  25
ATOM     22  C   UNL     1      -3.466  11.673  18.647  0.00  0.00    +0.000 A 
ATOM     23  C   UNL     1      -2.434  10.976  18.026  0.00  0.00    +0.000 A 
ATOM     24  C   UNL     1      -1.191  10.885  18.626  0.00  0.00    +0.000 A 
ATOM     25  C   UNL     1      -0.937  11.439  19.888  0.00  0.00    +0.000 A 
ATOM     26  C   UNL     1      -1.958  12.218  20.487  0.00  0.00    +0.000 A 
ATOM     27  C   UNL     1      -3.215  12.389  19.833  0.00  0.00    +0.000 A 
BRANCH  22  29
ATOM     28  C   UNL     1      -4.770  11.426  16.702  0.00  0.00    +0.000 C 
ATOM     29  O   UNL     1      -4.732  11.643  18.116  0.00  0.00    +0.000 OA
ENDBRANCH  22  29
BRANCH  26  30
ATOM     30  O   UNL     1      -1.598  12.799  21.686  0.00  0.00    +0.000 OA
ATOM     31  C   UNL     1      -1.917  12.085  22.877  0.00  0.00    +0.000 C 
ENDBRANCH  26  30
BRANCH  27  32
ATOM     32  O   UNL     1      -4.139  13.184  20.461  0.00  0.00    +0.000 OA
ATOM     33  C   UNL     1      -5.135  12.595  21.286  0.00  0.00    +0.000 C 
ENDBRANCH  27  32
ENDBRANCH  21  25
ENDBRANCH   1  21
TORSDOF 7
ENDMDL
MODEL 8
REMARK VINA RESULT:      -7.6      1.345      1.526
REMARK  Name = 
REMARK  10 active torsions:
REMARK  status: ('A' for Active; 'I' for Inactive)
REMARK    1  A    between atoms: C_1  and  O_2
REMARK    2  A    between atoms: O_2  and  C_3
REMARK    3  A    between atoms: C_6  and  C_7
REMARK    4  A    between atoms: C_7  and  N_8
REMARK    5  A    between atoms: C_12  and  C_14
REMARK    6  A    between atoms: C_18  and  O_19
REMARK    7  A    between atoms: C_26  and  O_27
REMARK    8  A    between atoms: O_27  and  C_28
REMARK    9  A    between atoms: C_29  and  O_30
REMARK   10  A    between atoms: O_30  and  C_31
REMARK                            x       y       z     vdW  Elec       q    Type
REMARK                         _______ _______ _______ _____ _____    ______ ____
ROOT
ATOM      1  N   UNL     1       1.079   9.629  19.837  0.00  0.00    +0.000 NA
ATOM      2  C   UNL     1       1.470   8.899  21.055  0.00  0.00    +0.000 C 
ATOM      3  C   UNL     1       1.502   7.388  20.730  0.00  0.00    +0.000 C 
ATOM      4  N   UNL     1       2.359   7.088  19.573  0.00  0.00    +0.000 N 
ATOM      5  C   UNL     1       2.707   5.745  19.360  0.00  0.00    +0.000 C 
ATOM      6  O   UNL     1       2.211   4.824  20.008  0.00  0.00    +0.000 OA
ATOM      7  C   UNL     1       2.129   7.984  18.417  0.00  0.00    +0.000 C 
ATOM      8  C   UNL     1       2.116   9.468  18.821  0.00  0.00    +0.000 C 
ENDROOT
BRANCH   5   9
ATOM      9  C   UNL     1       3.711   5.492  18.350  0.00  0.00    +0.000 A 
ATOM     10  C   UNL     1       4.872   6.185  18.059  0.00  0.00    +0.000 A 
ATOM     11  C   UNL     1       5.487   5.593  16.936  0.00  0.00    +0.000 A 
ATOM     12  C   UNL     1       6.627   5.919  16.176  0.00  0.00    +0.000 A 
ATOM     13  C   UNL     1       6.956   5.111  15.087  0.00  0.00    +0.000 A 
ATOM     14  C   UNL     1       6.180   4.010  14.748  0.00  0.00    +0.000 A 
ATOM     15  C   UNL     1       5.048   3.663  15.498  0.00  0.00    +0.000 A 
ATOM     16  C   UNL     1       4.726   4.478  16.592  0.00  0.00    +0.000 A 
ATOM     17  N   UNL     1       3.694   4.400  17.515  0.00  0.00    +0.000 N 
ATOM     18  H   UNL     1       3.000   3.665  17.543  0.00  0.00    +0.000 HD
BRANCH  13  19
ATOM     19  O   UNL     1       8.052   5.389  14.324  0.00  0.00    +0.000 OA
ATOM     20  H   UNL     1       8.119   6.348  14.215  0.00  0.00    +0.000 HD
ENDBRANCH  13  19
ENDBRANCH   5   9
BRANCH   1  21
ATOM     21  C   UNL     1       0.520  10.975  20.004  0.00  0.00    +0.000 C 
BRANCH  21  25
ATOM     22  C   UNL     1      -3.514  11.146  18.361  0.00  0.00    +0.000 A 
ATOM     23  C   UNL     1      -2.541  10.324  17.799  0.00  0.00    +0.000 A 
ATOM     24  C   UNL     1      -1.250  10.328  18.296  0.00  0.00    +0.000 A 
ATOM     25  C   UNL     1      -0.885  11.109  19.401  0.00  0.00    +0.000 A 
ATOM     26  C   UNL     1      -1.849  12.006  19.924  0.00  0.00    +0.000 A 
ATOM     27  C   UNL     1      -3.158  12.072  19.360  0.00  0.00    +0.000 A 
BRANCH  22  29
ATOM     28  C   UNL     1      -5.174  11.900  16.872  0.00  0.00    +0.000 C 
ATOM     29  O   UNL     1      -4.822  11.037  17.957  0.00  0.00    +0.000 OA
ENDBRANCH  22  29
BRANCH  26  30
ATOM     30  O   UNL     1      -1.384  12.800  20.954  0.00  0.00    +0.000 OA
ATOM     31  C   UNL     1      -1.005  14.134  20.627  0.00  0.00    +0.000 C 
ENDBRANCH  26  30
BRANCH  27  32
ATOM     32  O   UNL     1      -4.023  12.989  19.902  0.00  0.00    +0.000 OA
ATOM     33  C   UNL     1      -4.818  12.635  21.025  0.00  0.00    +0.000 C 
ENDBRANCH  27  32
ENDBRANCH  21  25
ENDBRANCH   1  21
TORSDOF 7
ENDMDL
MODEL 9
REMARK VINA RESULT:      -7.5      1.305      2.370
REMARK  Name = 
REMARK  10 active torsions:
REMARK  status: ('A' for Active; 'I' for Inactive)
REMARK    1  A    between atoms: C_1  and  O_2
REMARK    2  A    between atoms: O_2  and  C_3
REMARK    3  A    between atoms: C_6  and  C_7
REMARK    4  A    between atoms: C_7  and  N_8
REMARK    5  A    between atoms: C_12  and  C_14
REMARK    6  A    between atoms: C_18  and  O_19
REMARK    7  A    between atoms: C_26  and  O_27
REMARK    8  A    between atoms: O_27  and  C_28
REMARK    9  A    between atoms: C_29  and  O_30
REMARK   10  A    between atoms: O_30  and  C_31
REMARK                            x       y       z     vdW  Elec       q    Type
REMARK                         _______ _______ _______ _____ _____    ______ ____
ROOT
ATOM      1  N   UNL     1       0.780  10.430  19.740  0.00  0.00    +0.000 NA
ATOM      2  C   UNL     1       0.986   9.916  21.105  0.00  0.00    +0.000 C 
ATOM      3  C   UNL     1       0.888   8.373  21.066  0.00  0.00    +0.000 C 
ATOM      4  N   UNL     1       1.804   7.784  20.079  0.00  0.00    +0.000 N 
ATOM      5  C   UNL     1       2.027   6.400  20.152  0.00  0.00    +0.000 C 
ATOM      6  O   UNL     1       1.384   5.668  20.903  0.00  0.00    +0.000 OA
ATOM      7  C   UNL     1       1.770   8.458  18.761  0.00  0.00    +0.000 C 
ATOM      8  C   UNL     1       1.878   9.988  18.884  0.00  0.00    +0.000 C 
ENDROOT
BRANCH   5   9
ATOM      9  C   UNL     1       3.083   5.872  19.316  0.00  0.00    +0.000 A 
ATOM     10  C   UNL     1       4.456   5.996  19.434  0.00  0.00    +0.000 A 
ATOM     11  C   UNL     1       5.067   5.364  18.331  0.00  0.00    +0.000 A 
ATOM     12  C   UNL     1       6.405   5.246  17.906  0.00  0.00    +0.000 A 
ATOM     13  C   UNL     1       6.670   4.549  16.726  0.00  0.00    +0.000 A 
ATOM     14  C   UNL     1       5.645   3.986  15.978  0.00  0.00    +0.000 A 
ATOM     15  C   UNL     1       4.308   4.084  16.390  0.00  0.00    +0.000 A 
ATOM     16  C   UNL     1       4.050   4.783  17.577  0.00  0.00    +0.000 A 
ATOM     17  N   UNL     1       2.862   5.045  18.240  0.00  0.00    +0.000 N 
ATOM     18  H   UNL     1       1.953   4.712  17.949  0.00  0.00    +0.000 HD
BRANCH  13  19
ATOM     19  O   UNL     1       7.951   4.408  16.278  0.00  0.00    +0.000 OA
ATOM     20  H   UNL     1       7.927   4.048  15.380  0.00  0.00    +0.000 HD
ENDBRANCH  13  19
ENDBRANCH   5   9
BRANCH   1  21
ATOM     21  C   UNL     1       0.352  11.826  19.598  0.00  0.00    +0.000 C 
BRANCH  21  25
ATOM     22  C   UNL     1      -3.846  12.593  20.485  0.00  0.00    +0.000 A 
ATOM     23  C   UNL     1      -2.877  12.642  21.483  0.00  0.00    +0.000 A 
ATOM     24  C   UNL     1      -1.559  12.337  21.196  0.00  0.00    +0.000 A 
ATOM     25  C   UNL     1      -1.140  12.019  19.896  0.00  0.00    +0.000 A 
ATOM     26  C   UNL     1      -2.134  11.889  18.894  0.00  0.00    +0.000 A 
ATOM     27  C   UNL     1      -3.508  12.116  19.204  0.00  0.00    +0.000 A 
BRANCH  22  29
ATOM     28  C   UNL     1      -5.201  14.400  21.146  0.00  0.00    +0.000 C 
ATOM     29  O   UNL     1      -5.122  13.030  20.744  0.00  0.00    +0.000 OA
ENDBRANCH  22  29
BRANCH  26  30
ATOM     30  O   UNL     1      -1.650  11.489  17.665  0.00  0.00    +0.000 OA
ATOM     31  C   UNL     1      -1.779  10.110  17.331  0.00  0.00    +0.000 C 
ENDBRANCH  26  30
BRANCH  27  32
ATOM     32  O   UNL     1      -4.412  11.937  18.188  0.00  0.00    +0.000 OA
ATOM     33  C   UNL     1      -5.265  10.800  18.191  0.00  0.00    +0.000 C 
ENDBRANCH  27  32
ENDBRANCH  21  25
ENDBRANCH   1  21
TORSDOF 7
ENDMDL
