MODEL 1
REMARK VINA RESULT:      -6.7      0.000      0.000
REMARK  Name = 
REMARK  6 active torsions:
REMARK  status: ('A' for Active; 'I' for Inactive)
REMARK    1  A    between atoms: C_1  and  C_2
REMARK    2  A    between atoms: C_2  and  C_3
REMARK    3  A    between atoms: C_3  and  C_4
REMARK    4  A    between atoms: C_4  and  C_5
REMARK    5  A    between atoms: C_11  and  C_12
REMARK    6  A    between atoms: N_15  and  C_16
REMARK                            x       y       z     vdW  Elec       q    Type
REMARK                         _______ _______ _______ _____ _____    ______ ____
ROOT
ATOM      1  C   UNL     1       2.477   4.857  20.794  0.00  0.00    +0.000 A 
ATOM      2  C   UNL     1       1.556   5.882  21.071  0.00  0.00    +0.000 A 
ATOM      3  C   UNL     1       1.499   7.053  20.318  0.00  0.00    +0.000 A 
ATOM      4  C   UNL     1       2.378   7.166  19.237  0.00  0.00    +0.000 A 
ATOM      5  N   UNL     1       2.499   8.190  18.323  0.00  0.00    +0.000 N 
ATOM      6  C   UNL     1       3.450   7.890  17.396  0.00  0.00    +0.000 A 
ATOM      7  C   UNL     1       3.980   6.665  17.728  0.00  0.00    +0.000 A 
ATOM      8  C   UNL     1       3.327   6.191  18.915  0.00  0.00    +0.000 A 
ATOM      9  C   UNL     1       3.412   5.038  19.746  0.00  0.00    +0.000 A 
ATOM     10 BR   UNL     1       4.801   3.767  19.452  0.00  0.00    +0.000 Br
ATOM     11  H   UNL     1       1.930   9.027  18.327  0.00  0.00    +0.000 HD
ENDROOT
BRANCH   7  12
ATOM     12  C   UNL     1       4.974   6.013  16.933  0.00  0.00    +0.000 C 
ATOM     13  C   UNL     1       6.264   6.377  16.915  0.00  0.00    +0.000 C 
ATOM     14  C   UNL     1       7.326   5.655  16.154  0.00  0.00    +0.000 C 
ATOM     15  N   UNL     1       6.913   4.542  15.308  0.00  0.00    +0.000 NA
ATOM     16  C   UNL     1       7.207   4.731  13.900  0.00  0.00    +0.000 C 
ATOM     17  C   UNL     1       5.606   3.943  15.580  0.00  0.00    +0.000 C 
ATOM     18  C   UNL     1       4.486   4.834  16.145  0.00  0.00    +0.000 C 
ENDBRANCH   7  12
BRANCH   1  19
ATOM     19  C   UNL     1       2.361   3.578  21.604  0.00  0.00    +0.000 C 
BRANCH  19  20
ATOM     20  C   UNL     1       1.182   2.727  21.110  0.00  0.00    +0.000 C 
BRANCH  20  22
ATOM     21  C   UNL     1       0.722   2.646  18.641  0.00  0.00    +0.000 C 
ATOM     22  C   UNL     1       1.498   2.022  19.792  0.00  0.00    +0.000 C 
ENDBRANCH  20  22
ENDBRANCH  19  20
ENDBRANCH   1  19
TORSDOF 4
ENDMDL
MODEL 2
REMARK VINA RESULT:      -6.6      2.255      3.857
REMARK  Name = 
REMARK  6 active torsions:
REMARK  status: ('A' for Active; 'I' for Inactive)
REMARK    1  A    between atoms: C_1  and  C_2
REMARK    2  A    between atoms: C_2  and  C_3
REMARK    3  A    between atoms: C_3  and  C_4
REMARK    4  A    between atoms: C_4  and  C_5
REMARK    5  A    between atoms: C_11  and  C_12
REMARK    6  A    between atoms: N_15  and  C_16
REMARK                            x       y       z     vdW  Elec       q    Type
REMARK                         _______ _______ _______ _____ _____    ______ ____
ROOT
ATOM      1  C   UNL     1       2.040   6.573  20.023  0.00  0.00    +0.000 A 
ATOM      2  C   UNL     1       1.389   5.741  20.951  0.00  0.00    +0.000 A 
ATOM      3  C   UNL     1       1.659   4.378  21.042  0.00  0.00    +0.000 A 
ATOM      4  C   UNL     1       2.636   3.856  20.191  0.00  0.00    +0.000 A 
ATOM      5  N   UNL     1       3.112   2.565  20.106  0.00  0.00    +0.000 N 
ATOM      6  C   UNL     1       4.101   2.484  19.172  0.00  0.00    +0.000 A 
ATOM      7  C   UNL     1       4.250   3.733  18.618  0.00  0.00    +0.000 A 
ATOM      8  C   UNL     1       3.310   4.624  19.236  0.00  0.00    +0.000 A 
ATOM      9  C   UNL     1       2.962   6.000  19.116  0.00  0.00    +0.000 A 
ATOM     10 BR   UNL     1       3.726   7.044  17.716  0.00  0.00    +0.000 Br
ATOM     11  H   UNL     1       2.791   1.801  20.686  0.00  0.00    +0.000 HD
ENDROOT
BRANCH   7  12
ATOM     12  C   UNL     1       5.246   4.026  17.634  0.00  0.00    +0.000 C 
ATOM     13  C   UNL     1       6.455   4.524  17.929  0.00  0.00    +0.000 C 
ATOM     14  C   UNL     1       7.531   4.759  16.922  0.00  0.00    +0.000 C 
ATOM     15  N   UNL     1       7.211   4.515  15.521  0.00  0.00    +0.000 NA
ATOM     16  C   UNL     1       7.324   5.689  14.676  0.00  0.00    +0.000 C 
ATOM     17  C   UNL     1       6.049   3.672  15.237  0.00  0.00    +0.000 C 
ATOM     18  C   UNL     1       4.868   3.682  16.224  0.00  0.00    +0.000 C 
ENDBRANCH   7  12
BRANCH   1  19
ATOM     19  C   UNL     1       1.754   8.062  20.102  0.00  0.00    +0.000 C 
BRANCH  19  20
ATOM     20  C   UNL     1       1.305   8.455  21.517  0.00  0.00    +0.000 C 
BRANCH  20  22
ATOM     21  C   UNL     1      -0.443   9.629  22.887  0.00  0.00    +0.000 C 
ATOM     22  C   UNL     1      -0.112   9.023  21.532  0.00  0.00    +0.000 C 
ENDBRANCH  20  22
ENDBRANCH  19  20
ENDBRANCH   1  19
TORSDOF 4
ENDMDL
MODEL 3
REMARK VINA RESULT:      -6.4      2.418      6.665
REMARK  Name = 
REMARK  6 active torsions:
REMARK  status: ('A' for Active; 'I' for Inactive)
REMARK    1  A    between atoms: C_1  and  C_2
REMARK    2  A    between atoms: C_2  and  C_3
REMARK    3  A    between atoms: C_3  and  C_4
REMARK    4  A    between atoms: C_4  and  C_5
REMARK    5  A    between atoms: C_11  and  C_12
REMARK    6  A    between atoms: N_15  and  C_16
REMARK                            x       y       z     vdW  Elec       q    Type
REMARK                         _______ _______ _______ _____ _____    ______ ____
ROOT
ATOM      1  C   UNL     1       5.626   4.265  14.795  0.00  0.00    +0.000 A 
ATOM      2  C   UNL     1       6.895   4.849  14.630  0.00  0.00    +0.000 A 
ATOM      3  C   UNL     1       7.610   5.385  15.698  0.00  0.00    +0.000 A 
ATOM      4  C   UNL     1       7.034   5.295  16.968  0.00  0.00    +0.000 A 
ATOM      5  N   UNL     1       7.543   5.708  18.180  0.00  0.00    +0.000 N 
ATOM      6  C   UNL     1       6.682   5.395  19.189  0.00  0.00    +0.000 A 
ATOM      7  C   UNL     1       5.582   4.797  18.622  0.00  0.00    +0.000 A 
ATOM      8  C   UNL     1       5.772   4.742  17.200  0.00  0.00    +0.000 A 
ATOM      9  C   UNL     1       5.032   4.267  16.080  0.00  0.00    +0.000 A 
ATOM     10 BR   UNL     1       3.241   3.664  16.323  0.00  0.00    +0.000 Br
ATOM     11  H   UNL     1       8.446   6.148  18.299  0.00  0.00    +0.000 HD
ENDROOT
BRANCH   7  12
ATOM     12  C   UNL     1       4.495   4.286  19.399  0.00  0.00    +0.000 C 
ATOM     13  C   UNL     1       4.433   3.025  19.849  0.00  0.00    +0.000 C 
ATOM     14  C   UNL     1       3.346   2.502  20.727  0.00  0.00    +0.000 C 
ATOM     15  N   UNL     1       2.238   3.398  21.037  0.00  0.00    +0.000 NA
ATOM     16  C   UNL     1       0.948   2.921  20.577  0.00  0.00    +0.000 C 
ATOM     17  C   UNL     1       2.461   4.830  20.843  0.00  0.00    +0.000 C 
ATOM     18  C   UNL     1       3.429   5.286  19.736  0.00  0.00    +0.000 C 
ENDBRANCH   7  12
BRANCH   1  19
ATOM     19  C   UNL     1       5.000   3.605  13.581  0.00  0.00    +0.000 C 
BRANCH  19  20
ATOM     20  C   UNL     1       6.058   3.338  12.500  0.00  0.00    +0.000 C 
BRANCH  20  22
ATOM     21  C   UNL     1       6.780   1.399  11.076  0.00  0.00    +0.000 C 
ATOM     22  C   UNL     1       5.609   2.265  11.511  0.00  0.00    +0.000 C 
ENDBRANCH  20  22
ENDBRANCH  19  20
ENDBRANCH   1  19
TORSDOF 4
ENDMDL
MODEL 4
REMARK VINA RESULT:      -6.3      2.262      3.961
REMARK  Name = 
REMARK  6 active torsions:
REMARK  status: ('A' for Active; 'I' for Inactive)
REMARK    1  A    between atoms: C_1  and  C_2
REMARK    2  A    between atoms: C_2  and  C_3
REMARK    3  A    between atoms: C_3  and  C_4
REMARK    4  A    between atoms: C_4  and  C_5
REMARK    5  A    between atoms: C_11  and  C_12
REMARK    6  A    between atoms: N_15  and  C_16
REMARK                            x       y       z     vdW  Elec       q    Type
REMARK                         _______ _______ _______ _____ _____    ______ ____
ROOT
ATOM      1  C   UNL     1       2.010   6.569  20.145  0.00  0.00    +0.000 A 
ATOM      2  C   UNL     1       1.531   5.609  21.054  0.00  0.00    +0.000 A 
ATOM      3  C   UNL     1       1.857   4.259  20.949  0.00  0.00    +0.000 A 
ATOM      4  C   UNL     1       2.718   3.883  19.915  0.00  0.00    +0.000 A 
ATOM      5  N   UNL     1       3.221   2.635  19.616  0.00  0.00    +0.000 N 
ATOM      6  C   UNL     1       4.065   2.705  18.550  0.00  0.00    +0.000 A 
ATOM      7  C   UNL     1       4.089   4.013  18.126  0.00  0.00    +0.000 A 
ATOM      8  C   UNL     1       3.219   4.783  18.968  0.00  0.00    +0.000 A 
ATOM      9  C   UNL     1       2.810   6.144  19.057  0.00  0.00    +0.000 A 
ATOM     10 BR   UNL     1       3.326   7.371  17.693  0.00  0.00    +0.000 Br
ATOM     11  H   UNL     1       3.014   1.797  20.144  0.00  0.00    +0.000 HD
ENDROOT
BRANCH   7  12
ATOM     12  C   UNL     1       4.920   4.461  17.052  0.00  0.00    +0.000 C 
ATOM     13  C   UNL     1       4.537   4.457  15.767  0.00  0.00    +0.000 C 
ATOM     14  C   UNL     1       5.362   4.996  14.646  0.00  0.00    +0.000 C 
ATOM     15  N   UNL     1       6.703   5.473  14.963  0.00  0.00    +0.000 NA
ATOM     16  C   UNL     1       7.761   4.752  14.281  0.00  0.00    +0.000 C 
ATOM     17  C   UNL     1       6.988   5.790  16.362  0.00  0.00    +0.000 C 
ATOM     18  C   UNL     1       6.257   5.002  17.464  0.00  0.00    +0.000 C 
ENDBRANCH   7  12
BRANCH   1  19
ATOM     19  C   UNL     1       1.688   8.023  20.433  0.00  0.00    +0.000 C 
BRANCH  19  20
ATOM     20  C   UNL     1       0.529   8.135  21.435  0.00  0.00    +0.000 C 
BRANCH  20  22
ATOM     21  C   UNL     1      -0.318   9.667  23.237  0.00  0.00    +0.000 C 
ATOM     22  C   UNL     1       0.250   9.584  21.829  0.00  0.00    +0.000 C 
ENDBRANCH  20  22
ENDBRANCH  19  20
ENDBRANCH   1  19
TORSDOF 4
ENDMDL
MODEL 5
REMARK VINA RESULT:      -6.1      2.073      6.178
REMARK  Name = 
REMARK  6 active torsions:
REMARK  status: ('A' for Active; 'I' for Inactive)
REMARK    1  A    between atoms: C_1  and  C_2
REMARK    2  A    between atoms: C_2  and  C_3
REMARK    3  A    between atoms: C_3  and  C_4
REMARK    4  A    between atoms: C_4  and  C_5
REMARK    5  A    between atoms: C_11  and  C_12
REMARK    6  A    between atoms: N_15  and  C_16
REMARK                            x       y       z     vdW  Elec       q    Type
REMARK                         _______ _______ _______ _____ _____    ______ ____
ROOT
ATOM      1  C   UNL     1       5.334   4.760  15.569  0.00  0.00    +0.000 A 
ATOM      2  C   UNL     1       5.559   6.107  15.237  0.00  0.00    +0.000 A 
ATOM      3  C   UNL     1       4.952   7.154  15.926  0.00  0.00    +0.000 A 
ATOM      4  C   UNL     1       4.122   6.821  17.000  0.00  0.00    +0.000 A 
ATOM      5  N   UNL     1       3.440   7.657  17.858  0.00  0.00    +0.000 N 
ATOM      6  C   UNL     1       2.778   6.930  18.801  0.00  0.00    +0.000 A 
ATOM      7  C   UNL     1       3.005   5.601  18.535  0.00  0.00    +0.000 A 
ATOM      8  C   UNL     1       3.843   5.503  17.374  0.00  0.00    +0.000 A 
ATOM      9  C   UNL     1       4.420   4.452  16.606  0.00  0.00    +0.000 A 
ATOM     10 BR   UNL     1       3.933   2.646  16.969  0.00  0.00    +0.000 Br
ATOM     11  H   UNL     1       3.465   8.667  17.809  0.00  0.00    +0.000 HD
ENDROOT
BRANCH   7  12
ATOM     12  C   UNL     1       2.501   4.551  19.365  0.00  0.00    +0.000 C 
ATOM     13  C   UNL     1       1.258   4.057  19.262  0.00  0.00    +0.000 C 
ATOM     14  C   UNL     1       0.746   2.908  20.065  0.00  0.00    +0.000 C 
ATOM     15  N   UNL     1       1.625   2.351  21.086  0.00  0.00    +0.000 NA
ATOM     16  C   UNL     1       1.096   2.443  22.433  0.00  0.00    +0.000 C 
ATOM     17  C   UNL     1       3.054   2.647  20.973  0.00  0.00    +0.000 C 
ATOM     18  C   UNL     1       3.486   3.983  20.342  0.00  0.00    +0.000 C 
ENDBRANCH   7  12
BRANCH   1  19
ATOM     19  C   UNL     1       6.146   3.714  14.828  0.00  0.00    +0.000 C 
BRANCH  19  20
ATOM     20  C   UNL     1       6.628   4.258  13.475  0.00  0.00    +0.000 C 
BRANCH  20  22
ATOM     21  C   UNL     1       4.789   3.398  11.994  0.00  0.00    +0.000 C 
ATOM     22  C   UNL     1       6.273   3.321  12.322  0.00  0.00    +0.000 C 
ENDBRANCH  20  22
ENDBRANCH  19  20
ENDBRANCH   1  19
TORSDOF 4
ENDMDL
MODEL 6
REMARK VINA RESULT:      -6.1      2.423      6.659
REMARK  Name = 
REMARK  6 active torsions:
REMARK  status: ('A' for Active; 'I' for Inactive)
REMARK    1  A    between atoms: C_1  and  C_2
REMARK    2  A    between atoms: C_2  and  C_3
REMARK    3  A    between atoms: C_3  and  C_4
REMARK    4  A    between atoms: C_4  and  C_5
REMARK    5  A    between atoms: C_11  and  C_12
REMARK    6  A    between atoms: N_15  and  C_16
REMARK                            x       y       z     vdW  Elec       q    Type
REMARK                         _______ _______ _______ _____ _____    ______ ____
ROOT
ATOM      1  C   UNL     1       5.639   4.319  14.905  0.00  0.00    +0.000 A 
ATOM      2  C   UNL     1       6.930   4.873  14.852  0.00  0.00    +0.000 A 
ATOM      3  C   UNL     1       7.574   5.365  15.984  0.00  0.00    +0.000 A 
ATOM      4  C   UNL     1       6.901   5.261  17.204  0.00  0.00    +0.000 A 
ATOM      5  N   UNL     1       7.325   5.632  18.462  0.00  0.00    +0.000 N 
ATOM      6  C   UNL     1       6.382   5.317  19.393  0.00  0.00    +0.000 A 
ATOM      7  C   UNL     1       5.314   4.762  18.730  0.00  0.00    +0.000 A 
ATOM      8  C   UNL     1       5.611   4.735  17.326  0.00  0.00    +0.000 A 
ATOM      9  C   UNL     1       4.948   4.306  16.141  0.00  0.00    +0.000 A 
ATOM     10 BR   UNL     1       3.129   3.744  16.232  0.00  0.00    +0.000 Br
ATOM     11  H   UNL     1       8.227   6.045  18.659  0.00  0.00    +0.000 HD
ENDROOT
BRANCH   7  12
ATOM     12  C   UNL     1       4.159   4.262  19.409  0.00  0.00    +0.000 C 
ATOM     13  C   UNL     1       3.201   5.050  19.919  0.00  0.00    +0.000 C 
ATOM     14  C   UNL     1       1.952   4.541  20.558  0.00  0.00    +0.000 C 
ATOM     15  N   UNL     1       1.813   3.098  20.715  0.00  0.00    +0.000 NA
ATOM     16  C   UNL     1       1.697   2.664  22.094  0.00  0.00    +0.000 C 
ATOM     17  C   UNL     1       2.663   2.249  19.881  0.00  0.00    +0.000 C 
ATOM     18  C   UNL     1       4.052   2.768  19.468  0.00  0.00    +0.000 C 
ENDBRANCH   7  12
BRANCH   1  19
ATOM     19  C   UNL     1       5.091   3.703  13.631  0.00  0.00    +0.000 C 
BRANCH  19  20
ATOM     20  C   UNL     1       6.221   3.442  12.624  0.00  0.00    +0.000 C 
BRANCH  20  22
ATOM     21  C   UNL     1       7.007   1.567  11.148  0.00  0.00    +0.000 C 
ATOM     22  C   UNL     1       5.818   2.421  11.563  0.00  0.00    +0.000 C 
ENDBRANCH  20  22
ENDBRANCH  19  20
ENDBRANCH   1  19
TORSDOF 4
ENDMDL
MODEL 7
REMARK VINA RESULT:      -5.9      2.344      4.029
REMARK  Name = 
REMARK  6 active torsions:
REMARK  status: ('A' for Active; 'I' for Inactive)
REMARK    1  A    between atoms: C_1  and  C_2
REMARK    2  A    between atoms: C_2  and  C_3
REMARK    3  A    between atoms: C_3  and  C_4
REMARK    4  A    between atoms: C_4  and  C_5
REMARK    5  A    between atoms: C_11  and  C_12
REMARK    6  A    between atoms: N_15  and  C_16
REMARK                            x       y       z     vdW  Elec       q    Type
REMARK                         _______ _______ _______ _____ _____    ______ ____
ROOT
ATOM      1  C   UNL     1       2.096   7.575  19.505  0.00  0.00    +0.000 A 
ATOM      2  C   UNL     1       1.374   7.013  20.573  0.00  0.00    +0.000 A 
ATOM      3  C   UNL     1       1.542   5.687  20.966  0.00  0.00    +0.000 A 
ATOM      4  C   UNL     1       2.489   4.926  20.276  0.00  0.00    +0.000 A 
ATOM      5  N   UNL     1       2.870   3.618  20.487  0.00  0.00    +0.000 N 
ATOM      6  C   UNL     1       3.862   3.267  19.621  0.00  0.00    +0.000 A 
ATOM      7  C   UNL     1       4.110   4.351  18.813  0.00  0.00    +0.000 A 
ATOM      8  C   UNL     1       3.229   5.418  19.196  0.00  0.00    +0.000 A 
ATOM      9  C   UNL     1       2.985   6.755  18.770  0.00  0.00    +0.000 A 
ATOM     10 BR   UNL     1       3.841   7.413  17.200  0.00  0.00    +0.000 Br
ATOM     11  H   UNL     1       2.487   3.024  21.209  0.00  0.00    +0.000 HD
ENDROOT
BRANCH   7  12
ATOM     12  C   UNL     1       5.136   4.353  17.818  0.00  0.00    +0.000 C 
ATOM     13  C   UNL     1       6.408   4.701  18.065  0.00  0.00    +0.000 C 
ATOM     14  C   UNL     1       7.505   4.630  17.056  0.00  0.00    +0.000 C 
ATOM     15  N   UNL     1       7.149   4.245  15.696  0.00  0.00    +0.000 NA
ATOM     16  C   UNL     1       7.437   5.260  14.701  0.00  0.00    +0.000 C 
ATOM     17  C   UNL     1       5.873   3.554  15.508  0.00  0.00    +0.000 C 
ATOM     18  C   UNL     1       4.709   3.877  16.462  0.00  0.00    +0.000 C 
ENDBRANCH   7  12
BRANCH   1  19
ATOM     19  C   UNL     1       1.919   9.061  19.251  0.00  0.00    +0.000 C 
BRANCH  19  20
ATOM     20  C   UNL     1       0.852   9.304  18.173  0.00  0.00    +0.000 C 
BRANCH  20  22
ATOM     21  C   UNL     1      -1.458  10.223  18.532  0.00  0.00    +0.000 C 
ATOM     22  C   UNL     1       0.024  10.555  18.458  0.00  0.00    +0.000 C 
ENDBRANCH  20  22
ENDBRANCH  19  20
ENDBRANCH   1  19
TORSDOF 4
ENDMDL
MODEL 8
REMARK VINA RESULT:      -5.9      4.476      7.764
REMARK  Name = 
REMARK  6 active torsions:
REMARK  status: ('A' for Active; 'I' for Inactive)
REMARK    1  A    between atoms: C_1  and  C_2
REMARK    2  A    between atoms: C_2  and  C_3
REMARK    3  A    between atoms: C_3  and  C_4
REMARK    4  A    between atoms: C_4  and  C_5
REMARK    5  A    between atoms: C_11  and  C_12
REMARK    6  A    between atoms: N_15  and  C_16
REMARK                            x       y       z     vdW  Elec       q    Type
REMARK                         _______ _______ _______ _____ _____    ______ ____
ROOT
ATOM      1  C   UNL     1       1.719   7.409  19.953  0.00  0.00    +0.000 A 
ATOM      2  C   UNL     1       2.544   7.426  18.815  0.00  0.00    +0.000 A 
ATOM      3  C   UNL     1       2.644   8.540  17.986  0.00  0.00    +0.000 A 
ATOM      4  C   UNL     1       1.910   9.675  18.342  0.00  0.00    +0.000 A 
ATOM      5  N   UNL     1       1.861  10.905  17.721  0.00  0.00    +0.000 N 
ATOM      6  C   UNL     1       1.055  11.756  18.416  0.00  0.00    +0.000 A 
ATOM      7  C   UNL     1       0.546  11.061  19.487  0.00  0.00    +0.000 A 
ATOM      8  C   UNL     1       1.059   9.721  19.450  0.00  0.00    +0.000 A 
ATOM      9  C   UNL     1       0.921   8.544  20.239  0.00  0.00    +0.000 A 
ATOM     10 BR   UNL     1      -0.355   8.503  21.654  0.00  0.00    +0.000 Br
ATOM     11  H   UNL     1       2.384  11.143  16.889  0.00  0.00    +0.000 HD
ENDROOT
BRANCH   7  12
ATOM     12  C   UNL     1      -0.303  11.667  20.466  0.00  0.00    +0.000 C 
ATOM     13  C   UNL     1       0.146  12.178  21.622  0.00  0.00    +0.000 C 
ATOM     14  C   UNL     1      -0.716  12.884  22.615  0.00  0.00    +0.000 C 
ATOM     15  N   UNL     1      -2.149  12.938  22.349  0.00  0.00    +0.000 NA
ATOM     16  C   UNL     1      -2.961  12.290  23.361  0.00  0.00    +0.000 C 
ATOM     17  C   UNL     1      -2.584  12.695  20.973  0.00  0.00    +0.000 C 
ATOM     18  C   UNL     1      -1.752  11.748  20.089  0.00  0.00    +0.000 C 
ENDBRANCH   7  12
BRANCH   1  19
ATOM     19  C   UNL     1       1.788   6.185  20.847  0.00  0.00    +0.000 C 
BRANCH  19  20
ATOM     20  C   UNL     1       1.963   4.910  20.009  0.00  0.00    +0.000 C 
BRANCH  20  22
ATOM     21  C   UNL     1       1.675   2.928  21.527  0.00  0.00    +0.000 C 
ATOM     22  C   UNL     1       1.022   3.794  20.460  0.00  0.00    +0.000 C 
ENDBRANCH  20  22
ENDBRANCH  19  20
ENDBRANCH   1  19
TORSDOF 4
ENDMDL
MODEL 9
REMARK VINA RESULT:      -5.7      2.618      4.377
REMARK  Name = 
REMARK  6 active torsions:
REMARK  status: ('A' for Active; 'I' for Inactive)
REMARK    1  A    between atoms: C_1  and  C_2
REMARK    2  A    between atoms: C_2  and  C_3
REMARK    3  A    between atoms: C_3  and  C_4
REMARK    4  A    between atoms: C_4  and  C_5
REMARK    5  A    between atoms: C_11  and  C_12
REMARK    6  A    between atoms: N_15  and  C_16
REMARK                            x       y       z     vdW  Elec       q    Type
REMARK                         _______ _______ _______ _____ _____    ______ ____
ROOT
ATOM      1  C   UNL     1       1.619   8.653  19.377  0.00  0.00    +0.000 A 
ATOM      2  C   UNL     1       0.866   8.380  20.532  0.00  0.00    +0.000 A 
ATOM      3  C   UNL     1       0.961   7.168  21.212  0.00  0.00    +0.000 A 
ATOM      4  C   UNL     1       1.868   6.225  20.721  0.00  0.00    +0.000 A 
ATOM      5  N   UNL     1       2.177   4.979  21.223  0.00  0.00    +0.000 N 
ATOM      6  C   UNL     1       3.151   4.393  20.471  0.00  0.00    +0.000 A 
ATOM      7  C   UNL     1       3.458   5.256  19.446  0.00  0.00    +0.000 A 
ATOM      8  C   UNL     1       2.636   6.425  19.570  0.00  0.00    +0.000 A 
ATOM      9  C   UNL     1       2.465   7.645  18.855  0.00  0.00    +0.000 A 
ATOM     10 BR   UNL     1       3.359   7.891  17.190  0.00  0.00    +0.000 Br
ATOM     11  H   UNL     1       1.761   4.580  22.054  0.00  0.00    +0.000 HD
ENDROOT
BRANCH   7  12
ATOM     12  C   UNL     1       4.486   4.983  18.490  0.00  0.00    +0.000 C 
ATOM     13  C   UNL     1       5.782   5.261  18.694  0.00  0.00    +0.000 C 
ATOM     14  C   UNL     1       6.873   4.908  17.740  0.00  0.00    +0.000 C 
ATOM     15  N   UNL     1       6.491   4.306  16.468  0.00  0.00    +0.000 NA
ATOM     16  C   UNL     1       6.872   5.088  15.307  0.00  0.00    +0.000 C 
ATOM     17  C   UNL     1       5.160   3.704  16.386  0.00  0.00    +0.000 C 
ATOM     18  C   UNL     1       4.024   4.299  17.238  0.00  0.00    +0.000 C 
ENDBRANCH   7  12
BRANCH   1  19
ATOM     19  C   UNL     1       1.523  10.052  18.796  0.00  0.00    +0.000 C 
BRANCH  19  20
ATOM     20  C   UNL     1       0.408  10.851  19.486  0.00  0.00    +0.000 C 
BRANCH  20  22
ATOM     21  C   UNL     1      -1.486  10.234  17.954  0.00  0.00    +0.000 C 
ATOM     22  C   UNL     1      -0.626  11.370  18.488  0.00  0.00    +0.000 C 
ENDBRANCH  20  22
ENDBRANCH  19  20
ENDBRANCH   1  19
TORSDOF 4
ENDMDL
