MODEL 1
REMARK VINA RESULT:      -6.4      0.000      0.000
REMARK  Name = 
REMARK  6 active torsions:
REMARK  status: ('A' for Active; 'I' for Inactive)
REMARK    1  A    between atoms: C_1  and  C_2
REMARK    2  A    between atoms: C_2  and  C_3
REMARK    3  A    between atoms: C_3  and  N_4
REMARK    4  A    between atoms: C_3  and  C_13
REMARK    5  A    between atoms: N_4  and  S_5
REMARK    6  A    between atoms: S_5  and  N_8
REMARK                            x       y       z     vdW  Elec       q    Type
REMARK                         _______ _______ _______ _____ _____    ______ ____
ROOT
ATOM      1  N   UNL     1       4.095   4.155  18.024  0.00  0.00    +0.000 NA
ATOM      2  H   UNL     1       4.364   4.172  19.008  0.00  0.00    +0.000 HD
ENDROOT
BRANCH   1   3
ATOM      3  S   UNL     1       3.120   2.796  17.804  0.00  0.00    +0.000 S 
ATOM      4  O   UNL     1       2.110   3.105  16.822  0.00  0.00    +0.000 OA
ATOM      5  O   UNL     1       4.016   1.673  17.670  0.00  0.00    +0.000 OA
BRANCH   3   6
ATOM      6  N   UNL     1       2.365   2.709  19.265  0.00  0.00    +0.000 NA
ATOM      7  C   UNL     1       0.969   3.107  19.442  0.00  0.00    +0.000 C 
ATOM      8  C   UNL     1       1.007   3.982  20.681  0.00  0.00    +0.000 C 
ATOM      9  C   UNL     1       2.118   3.384  21.528  0.00  0.00    +0.000 C 
ATOM     10  C   UNL     1       3.086   2.740  20.536  0.00  0.00    +0.000 C 
ENDBRANCH   3   6
ENDBRANCH   1   3
BRANCH   1  11
ATOM     11  C   UNL     1       5.370   4.176  17.208  0.00  0.00    +0.000 C 
BRANCH  11  12
ATOM     12  C   UNL     1       6.390   5.083  17.900  0.00  0.00    +0.000 A 
ATOM     13  N   UNL     1       7.007   4.761  19.027  0.00  0.00    +0.000 NA
ATOM     14  C   UNL     1       7.919   5.743  19.368  0.00  0.00    +0.000 A 
ATOM     15  C   UNL     1       7.972   6.826  18.518  0.00  0.00    +0.000 A 
ATOM     16  S   UNL     1       6.852   6.610  17.238  0.00  0.00    +0.000 S 
ENDBRANCH  11  12
BRANCH  11  18
ATOM     17  C   UNL     1       6.056   3.898  14.743  0.00  0.00    +0.000 C 
ATOM     18  C   UNL     1       5.148   4.598  15.746  0.00  0.00    +0.000 C 
ENDBRANCH  11  18
ENDBRANCH   1  11
TORSDOF 5
ENDMDL
MODEL 2
REMARK VINA RESULT:      -6.4      1.198      1.698
REMARK  Name = 
REMARK  6 active torsions:
REMARK  status: ('A' for Active; 'I' for Inactive)
REMARK    1  A    between atoms: C_1  and  C_2
REMARK    2  A    between atoms: C_2  and  C_3
REMARK    3  A    between atoms: C_3  and  N_4
REMARK    4  A    between atoms: C_3  and  C_13
REMARK    5  A    between atoms: N_4  and  S_5
REMARK    6  A    between atoms: S_5  and  N_8
REMARK                            x       y       z     vdW  Elec       q    Type
REMARK                         _______ _______ _______ _____ _____    ______ ____
ROOT
ATOM      1  N   UNL     1       4.577   3.224  18.518  0.00  0.00    +0.000 NA
ATOM      2  H   UNL     1       5.444   2.742  18.276  0.00  0.00    +0.000 HD
ENDROOT
BRANCH   1   3
ATOM      3  S   UNL     1       3.312   2.166  18.167  0.00  0.00    +0.000 S 
ATOM      4  O   UNL     1       2.573   2.686  17.043  0.00  0.00    +0.000 OA
ATOM      5  O   UNL     1       3.877   0.838  18.179  0.00  0.00    +0.000 OA
BRANCH   3   6
ATOM      6  N   UNL     1       2.362   2.357  19.499  0.00  0.00    +0.000 NA
ATOM      7  C   UNL     1       0.948   2.717  19.400  0.00  0.00    +0.000 C 
ATOM      8  C   UNL     1       0.798   3.836  20.414  0.00  0.00    +0.000 C 
ATOM      9  C   UNL     1       1.791   3.484  21.509  0.00  0.00    +0.000 C 
ATOM     10  C   UNL     1       2.899   2.691  20.817  0.00  0.00    +0.000 C 
ENDBRANCH   3   6
ENDBRANCH   1   3
BRANCH   1  11
ATOM     11  C   UNL     1       4.561   4.529  17.751  0.00  0.00    +0.000 C 
BRANCH  11  12
ATOM     12  C   UNL     1       5.827   5.321  18.087  0.00  0.00    +0.000 A 
ATOM     13  N   UNL     1       6.654   4.992  19.068  0.00  0.00    +0.000 NA
ATOM     14  C   UNL     1       7.740   5.849  19.083  0.00  0.00    +0.000 A 
ATOM     15  C   UNL     1       7.723   6.846  18.132  0.00  0.00    +0.000 A 
ATOM     16  S   UNL     1       6.306   6.708  17.177  0.00  0.00    +0.000 S 
ENDBRANCH  11  12
BRANCH  11  18
ATOM     17  C   UNL     1       3.300   6.132  19.323  0.00  0.00    +0.000 C 
ATOM     18  C   UNL     1       3.296   5.366  18.005  0.00  0.00    +0.000 C 
ENDBRANCH  11  18
ENDBRANCH   1  11
TORSDOF 5
ENDMDL
MODEL 3
REMARK VINA RESULT:      -6.4      0.826      1.275
REMARK  Name = 
REMARK  6 active torsions:
REMARK  status: ('A' for Active; 'I' for Inactive)
REMARK    1  A    between atoms: C_1  and  C_2
REMARK    2  A    between atoms: C_2  and  C_3
REMARK    3  A    between atoms: C_3  and  N_4
REMARK    4  A    between atoms: C_3  and  C_13
REMARK    5  A    between atoms: N_4  and  S_5
REMARK    6  A    between atoms: S_5  and  N_8
REMARK                            x       y       z     vdW  Elec       q    Type
REMARK                         _______ _______ _______ _____ _____    ______ ____
ROOT
ATOM      1  N   UNL     1       3.539   4.904  17.433  0.00  0.00    +0.000 NA
ATOM      2  H   UNL     1       3.720   5.388  18.313  0.00  0.00    +0.000 HD
ENDROOT
BRANCH   1   3
ATOM      3  S   UNL     1       2.395   3.708  17.756  0.00  0.00    +0.000 S 
ATOM      4  O   UNL     1       1.123   4.129  17.223  0.00  0.00    +0.000 OA
ATOM      5  O   UNL     1       3.010   2.452  17.398  0.00  0.00    +0.000 OA
BRANCH   3   6
ATOM      6  N   UNL     1       2.290   3.805  19.396  0.00  0.00    +0.000 NA
ATOM      7  C   UNL     1       3.404   3.437  20.269  0.00  0.00    +0.000 C 
ATOM      8  C   UNL     1       2.753   2.557  21.319  0.00  0.00    +0.000 C 
ATOM      9  C   UNL     1       1.352   3.128  21.470  0.00  0.00    +0.000 C 
ATOM     10  C   UNL     1       1.019   3.754  20.116  0.00  0.00    +0.000 C 
ENDBRANCH   3   6
ENDBRANCH   1   3
BRANCH   1  11
ATOM     11  C   UNL     1       4.870   4.404  16.914  0.00  0.00    +0.000 C 
BRANCH  11  12
ATOM     12  C   UNL     1       5.998   5.135  17.644  0.00  0.00    +0.000 A 
ATOM     13  N   UNL     1       6.715   4.587  18.614  0.00  0.00    +0.000 NA
ATOM     14  C   UNL     1       7.702   5.462  19.030  0.00  0.00    +0.000 A 
ATOM     15  C   UNL     1       7.715   6.686  18.398  0.00  0.00    +0.000 A 
ATOM     16  S   UNL     1       6.457   6.749  17.235  0.00  0.00    +0.000 S 
ENDBRANCH  11  12
BRANCH  11  18
ATOM     17  C   UNL     1       6.240   3.840  14.808  0.00  0.00    +0.000 C 
ATOM     18  C   UNL     1       5.014   4.537  15.388  0.00  0.00    +0.000 C 
ENDBRANCH  11  18
ENDBRANCH   1  11
TORSDOF 5
ENDMDL
MODEL 4
REMARK VINA RESULT:      -6.4      1.940      2.841
REMARK  Name = 
REMARK  6 active torsions:
REMARK  status: ('A' for Active; 'I' for Inactive)
REMARK    1  A    between atoms: C_1  and  C_2
REMARK    2  A    between atoms: C_2  and  C_3
REMARK    3  A    between atoms: C_3  and  N_4
REMARK    4  A    between atoms: C_3  and  C_13
REMARK    5  A    between atoms: N_4  and  S_5
REMARK    6  A    between atoms: S_5  and  N_8
REMARK                            x       y       z     vdW  Elec       q    Type
REMARK                         _______ _______ _______ _____ _____    ______ ____
ROOT
ATOM      1  N   UNL     1       4.684   3.636  18.962  0.00  0.00    +0.000 NA
ATOM      2  H   UNL     1       5.699   3.631  18.861  0.00  0.00    +0.000 HD
ENDROOT
BRANCH   1   3
ATOM      3  S   UNL     1       4.237   2.100  19.498  0.00  0.00    +0.000 S 
ATOM      4  O   UNL     1       4.068   1.242  18.352  0.00  0.00    +0.000 OA
ATOM      5  O   UNL     1       5.127   1.776  20.587  0.00  0.00    +0.000 OA
BRANCH   3   6
ATOM      6  N   UNL     1       2.736   2.401  20.103  0.00  0.00    +0.000 NA
ATOM      7  C   UNL     1       1.519   2.057  19.369  0.00  0.00    +0.000 C 
ATOM      8  C   UNL     1       0.676   3.314  19.472  0.00  0.00    +0.000 C 
ATOM      9  C   UNL     1       1.040   3.898  20.827  0.00  0.00    +0.000 C 
ATOM     10  C   UNL     1       2.472   3.439  21.099  0.00  0.00    +0.000 C 
ENDBRANCH   3   6
ENDBRANCH   1   3
BRANCH   1  11
ATOM     11  C   UNL     1       4.101   4.051  17.629  0.00  0.00    +0.000 C 
BRANCH  11  12
ATOM     12  C   UNL     1       5.241   4.276  16.633  0.00  0.00    +0.000 A 
ATOM     13  N   UNL     1       5.096   4.167  15.321  0.00  0.00    +0.000 NA
ATOM     14  C   UNL     1       6.278   4.496  14.682  0.00  0.00    +0.000 A 
ATOM     15  C   UNL     1       7.329   4.825  15.510  0.00  0.00    +0.000 A 
ATOM     16  S   UNL     1       6.826   4.731  17.146  0.00  0.00    +0.000 S 
ENDBRANCH  11  12
BRANCH  11  18
ATOM     17  C   UNL     1       3.431   6.154  18.954  0.00  0.00    +0.000 C 
ATOM     18  C   UNL     1       3.191   5.287  17.723  0.00  0.00    +0.000 C 
ENDBRANCH  11  18
ENDBRANCH   1  11
TORSDOF 5
ENDMDL
MODEL 5
REMARK VINA RESULT:      -6.3      1.950      2.617
REMARK  Name = 
REMARK  6 active torsions:
REMARK  status: ('A' for Active; 'I' for Inactive)
REMARK    1  A    between atoms: C_1  and  C_2
REMARK    2  A    between atoms: C_2  and  C_3
REMARK    3  A    between atoms: C_3  and  N_4
REMARK    4  A    between atoms: C_3  and  C_13
REMARK    5  A    between atoms: N_4  and  S_5
REMARK    6  A    between atoms: S_5  and  N_8
REMARK                            x       y       z     vdW  Elec       q    Type
REMARK                         _______ _______ _______ _____ _____    ______ ____
ROOT
ATOM      1  N   UNL     1       4.792   3.518  18.921  0.00  0.00    +0.000 NA
ATOM      2  H   UNL     1       5.808   3.438  18.861  0.00  0.00    +0.000 HD
ENDROOT
BRANCH   1   3
ATOM      3  S   UNL     1       4.222   2.064  19.557  0.00  0.00    +0.000 S 
ATOM      4  O   UNL     1       3.931   1.165  18.467  0.00  0.00    +0.000 OA
ATOM      5  O   UNL     1       5.116   1.714  20.635  0.00  0.00    +0.000 OA
BRANCH   3   6
ATOM      6  N   UNL     1       2.779   2.541  20.190  0.00  0.00    +0.000 NA
ATOM      7  C   UNL     1       1.501   2.120  19.615  0.00  0.00    +0.000 C 
ATOM      8  C   UNL     1       0.709   3.412  19.532  0.00  0.00    +0.000 C 
ATOM      9  C   UNL     1       1.189   4.222  20.726  0.00  0.00    +0.000 C 
ATOM     10  C   UNL     1       2.622   3.757  20.986  0.00  0.00    +0.000 C 
ENDBRANCH   3   6
ENDBRANCH   1   3
BRANCH   1  11
ATOM     11  C   UNL     1       4.286   3.862  17.536  0.00  0.00    +0.000 C 
BRANCH  11  12
ATOM     12  C   UNL     1       5.470   4.276  16.660  0.00  0.00    +0.000 A 
ATOM     13  N   UNL     1       6.682   4.517  17.138  0.00  0.00    +0.000 NA
ATOM     14  C   UNL     1       7.554   4.799  16.103  0.00  0.00    +0.000 A 
ATOM     15  C   UNL     1       6.999   4.802  14.842  0.00  0.00    +0.000 A 
ATOM     16  S   UNL     1       5.328   4.430  14.946  0.00  0.00    +0.000 S 
ENDBRANCH  11  12
BRANCH  11  18
ATOM     17  C   UNL     1       3.545   6.194  18.338  0.00  0.00    +0.000 C 
ATOM     18  C   UNL     1       3.191   4.942  17.542  0.00  0.00    +0.000 C 
ENDBRANCH  11  18
ENDBRANCH   1  11
TORSDOF 5
ENDMDL
MODEL 6
REMARK VINA RESULT:      -6.3      1.977      3.044
REMARK  Name = 
REMARK  6 active torsions:
REMARK  status: ('A' for Active; 'I' for Inactive)
REMARK    1  A    between atoms: C_1  and  C_2
REMARK    2  A    between atoms: C_2  and  C_3
REMARK    3  A    between atoms: C_3  and  N_4
REMARK    4  A    between atoms: C_3  and  C_13
REMARK    5  A    between atoms: N_4  and  S_5
REMARK    6  A    between atoms: S_5  and  N_8
REMARK                            x       y       z     vdW  Elec       q    Type
REMARK                         _______ _______ _______ _____ _____    ______ ____
ROOT
ATOM      1  N   UNL     1       5.355   3.375  19.138  0.00  0.00    +0.000 NA
ATOM      2  H   UNL     1       6.131   2.943  18.636  0.00  0.00    +0.000 HD
ENDROOT
BRANCH   1   3
ATOM      3  S   UNL     1       4.412   2.123  19.759  0.00  0.00    +0.000 S 
ATOM      4  O   UNL     1       4.135   1.184  18.700  0.00  0.00    +0.000 OA
ATOM      5  O   UNL     1       5.027   1.731  21.005  0.00  0.00    +0.000 OA
BRANCH   3   6
ATOM      6  N   UNL     1       3.006   2.917  20.082  0.00  0.00    +0.000 NA
ATOM      7  C   UNL     1       2.630   3.311  21.439  0.00  0.00    +0.000 C 
ATOM      8  C   UNL     1       1.187   2.857  21.552  0.00  0.00    +0.000 C 
ATOM      9  C   UNL     1       0.634   3.016  20.145  0.00  0.00    +0.000 C 
ATOM     10  C   UNL     1       1.832   2.842  19.213  0.00  0.00    +0.000 C 
ENDBRANCH   3   6
ENDBRANCH   1   3
BRANCH   1  11
ATOM     11  C   UNL     1       4.649   4.297  18.167  0.00  0.00    +0.000 C 
BRANCH  11  12
ATOM     12  C   UNL     1       5.454   4.364  16.868  0.00  0.00    +0.000 A 
ATOM     13  N   UNL     1       4.919   4.187  15.668  0.00  0.00    +0.000 NA
ATOM     14  C   UNL     1       5.875   4.377  14.687  0.00  0.00    +0.000 A 
ATOM     15  C   UNL     1       7.143   4.666  15.142  0.00  0.00    +0.000 A 
ATOM     16  S   UNL     1       7.145   4.715  16.856  0.00  0.00    +0.000 S 
ENDBRANCH  11  12
BRANCH  11  18
ATOM     17  C   UNL     1       3.046   6.302  18.364  0.00  0.00    +0.000 C 
ATOM     18  C   UNL     1       4.396   5.702  18.740  0.00  0.00    +0.000 C 
ENDBRANCH  11  18
ENDBRANCH   1  11
TORSDOF 5
ENDMDL
MODEL 7
REMARK VINA RESULT:      -6.3      0.988      1.092
REMARK  Name = 
REMARK  6 active torsions:
REMARK  status: ('A' for Active; 'I' for Inactive)
REMARK    1  A    between atoms: C_1  and  C_2
REMARK    2  A    between atoms: C_2  and  C_3
REMARK    3  A    between atoms: C_3  and  N_4
REMARK    4  A    between atoms: C_3  and  C_13
REMARK    5  A    between atoms: N_4  and  S_5
REMARK    6  A    between atoms: S_5  and  N_8
REMARK                            x       y       z     vdW  Elec       q    Type
REMARK                         _______ _______ _______ _____ _____    ______ ____
ROOT
ATOM      1  N   UNL     1       4.013   4.908  17.052  0.00  0.00    +0.000 NA
ATOM      2  H   UNL     1       4.048   5.543  17.849  0.00  0.00    +0.000 HD
ENDROOT
BRANCH   1   3
ATOM      3  S   UNL     1       3.185   3.528  17.558  0.00  0.00    +0.000 S 
ATOM      4  O   UNL     1       1.897   3.499  16.911  0.00  0.00    +0.000 OA
ATOM      5  O   UNL     1       4.124   2.436  17.470  0.00  0.00    +0.000 OA
BRANCH   3   6
ATOM      6  N   UNL     1       2.922   3.883  19.145  0.00  0.00    +0.000 NA
ATOM      7  C   UNL     1       2.256   2.947  20.050  0.00  0.00    +0.000 C 
ATOM      8  C   UNL     1       1.233   3.812  20.762  0.00  0.00    +0.000 C 
ATOM      9  C   UNL     1       1.895   5.177  20.850  0.00  0.00    +0.000 C 
ATOM     10  C   UNL     1       2.840   5.252  19.651  0.00  0.00    +0.000 C 
ENDBRANCH   3   6
ENDBRANCH   1   3
BRANCH   1  11
ATOM     11  C   UNL     1       5.439   4.677  16.599  0.00  0.00    +0.000 C 
BRANCH  11  12
ATOM     12  C   UNL     1       6.392   5.342  17.594  0.00  0.00    +0.000 A 
ATOM     13  N   UNL     1       6.704   4.815  18.769  0.00  0.00    +0.000 NA
ATOM     14  C   UNL     1       7.638   5.606  19.413  0.00  0.00    +0.000 A 
ATOM     15  C   UNL     1       8.013   6.749  18.741  0.00  0.00    +0.000 A 
ATOM     16  S   UNL     1       7.179   6.839  17.245  0.00  0.00    +0.000 S 
ENDBRANCH  11  12
BRANCH  11  18
ATOM     17  C   UNL     1       5.949   4.040  14.157  0.00  0.00    +0.000 C 
ATOM     18  C   UNL     1       5.705   5.159  15.163  0.00  0.00    +0.000 C 
ENDBRANCH  11  18
ENDBRANCH   1  11
TORSDOF 5
ENDMDL
MODEL 8
REMARK VINA RESULT:      -6.3      1.710      2.381
REMARK  Name = 
REMARK  6 active torsions:
REMARK  status: ('A' for Active; 'I' for Inactive)
REMARK    1  A    between atoms: C_1  and  C_2
REMARK    2  A    between atoms: C_2  and  C_3
REMARK    3  A    between atoms: C_3  and  N_4
REMARK    4  A    between atoms: C_3  and  C_13
REMARK    5  A    between atoms: N_4  and  S_5
REMARK    6  A    between atoms: S_5  and  N_8
REMARK                            x       y       z     vdW  Elec       q    Type
REMARK                         _______ _______ _______ _____ _____    ______ ____
ROOT
ATOM      1  N   UNL     1       4.430   3.215  18.345  0.00  0.00    +0.000 NA
ATOM      2  H   UNL     1       5.275   2.781  17.972  0.00  0.00    +0.000 HD
ENDROOT
BRANCH   1   3
ATOM      3  S   UNL     1       3.204   2.061  18.253  0.00  0.00    +0.000 S 
ATOM      4  O   UNL     1       2.352   2.379  17.134  0.00  0.00    +0.000 OA
ATOM      5  O   UNL     1       3.844   0.776  18.402  0.00  0.00    +0.000 OA
BRANCH   3   6
ATOM      6  N   UNL     1       2.351   2.396  19.621  0.00  0.00    +0.000 NA
ATOM      7  C   UNL     1       0.986   2.920  19.576  0.00  0.00    +0.000 C 
ATOM      8  C   UNL     1       1.018   4.074  20.560  0.00  0.00    +0.000 C 
ATOM      9  C   UNL     1       2.016   3.635  21.619  0.00  0.00    +0.000 C 
ATOM     10  C   UNL     1       2.987   2.697  20.902  0.00  0.00    +0.000 C 
ENDBRANCH   3   6
ENDBRANCH   1   3
BRANCH   1  11
ATOM     11  C   UNL     1       4.188   4.481  17.551  0.00  0.00    +0.000 C 
BRANCH  11  12
ATOM     12  C   UNL     1       5.384   4.729  16.630  0.00  0.00    +0.000 A 
ATOM     13  N   UNL     1       6.543   5.211  17.055  0.00  0.00    +0.000 NA
ATOM     14  C   UNL     1       7.450   5.259  16.011  0.00  0.00    +0.000 A 
ATOM     15  C   UNL     1       6.970   4.843  14.788  0.00  0.00    +0.000 A 
ATOM     16  S   UNL     1       5.331   4.364  14.944  0.00  0.00    +0.000 S 
ENDBRANCH  11  12
BRANCH  11  18
ATOM     17  C   UNL     1       2.558   6.376  18.168  0.00  0.00    +0.000 C 
ATOM     18  C   UNL     1       3.900   5.705  18.436  0.00  0.00    +0.000 C 
ENDBRANCH  11  18
ENDBRANCH   1  11
TORSDOF 5
ENDMDL
MODEL 9
REMARK VINA RESULT:      -6.3      1.435      1.870
REMARK  Name = 
REMARK  6 active torsions:
REMARK  status: ('A' for Active; 'I' for Inactive)
REMARK    1  A    between atoms: C_1  and  C_2
REMARK    2  A    between atoms: C_2  and  C_3
REMARK    3  A    between atoms: C_3  and  N_4
REMARK    4  A    between atoms: C_3  and  C_13
REMARK    5  A    between atoms: N_4  and  S_5
REMARK    6  A    between atoms: S_5  and  N_8
REMARK                            x       y       z     vdW  Elec       q    Type
REMARK                         _______ _______ _______ _____ _____    ______ ____
ROOT
ATOM      1  N   UNL     1       4.505   4.916  17.998  0.00  0.00    +0.000 NA
ATOM      2  H   UNL     1       4.731   5.549  18.766  0.00  0.00    +0.000 HD
ENDROOT
BRANCH   1   3
ATOM      3  S   UNL     1       4.150   3.417  18.683  0.00  0.00    +0.000 S 
ATOM      4  O   UNL     1       3.898   2.472  17.623  0.00  0.00    +0.000 OA
ATOM      5  O   UNL     1       5.145   3.192  19.704  0.00  0.00    +0.000 OA
BRANCH   3   6
ATOM      6  N   UNL     1       2.704   3.733  19.404  0.00  0.00    +0.000 NA
ATOM      7  C   UNL     1       2.583   3.935  20.847  0.00  0.00    +0.000 C 
ATOM      8  C   UNL     1       1.403   3.061  21.228  0.00  0.00    +0.000 C 
ATOM      9  C   UNL     1       0.495   3.107  20.010  0.00  0.00    +0.000 C 
ATOM     10  C   UNL     1       1.422   3.346  18.818  0.00  0.00    +0.000 C 
ENDBRANCH   3   6
ENDBRANCH   1   3
BRANCH   1  11
ATOM     11  C   UNL     1       5.681   4.930  17.044  0.00  0.00    +0.000 C 
BRANCH  11  12
ATOM     12  C   UNL     1       6.668   6.014  17.484  0.00  0.00    +0.000 A 
ATOM     13  N   UNL     1       6.839   7.154  16.831  0.00  0.00    +0.000 NA
ATOM     14  C   UNL     1       7.740   7.958  17.504  0.00  0.00    +0.000 A 
ATOM     15  C   UNL     1       8.277   7.417  18.652  0.00  0.00    +0.000 A 
ATOM     16  S   UNL     1       7.629   5.850  18.909  0.00  0.00    +0.000 S 
ENDBRANCH  11  12
BRANCH  11  18
ATOM     17  C   UNL     1       5.931   4.145  14.605  0.00  0.00    +0.000 C 
ATOM     18  C   UNL     1       5.267   5.116  15.575  0.00  0.00    +0.000 C 
ENDBRANCH  11  18
ENDBRANCH   1  11
TORSDOF 5
ENDMDL
