MODEL 1
REMARK VINA RESULT:      -9.4      0.000      0.000
REMARK  Name = 
REMARK  8 active torsions:
REMARK  status: ('A' for Active; 'I' for Inactive)
REMARK    1  A    between atoms: C_1  and  N_2
REMARK    2  A    between atoms: N_2  and  C_3
REMARK    3  A    between atoms: C_3  and  C_4
REMARK    4  A    between atoms: C_9  and  C_11
REMARK    5  A    between atoms: C_11  and  C_12
REMARK    6  A    between atoms: C_12  and  C_13
REMARK    7  A    between atoms: C_16  and  C_17
REMARK    8  A    between atoms: N_28  and  C_29
REMARK                            x       y       z     vdW  Elec       q    Type
REMARK                         _______ _______ _______ _____ _____    ______ ____
ROOT
ATOM      1  C   UNL     1       2.986   5.090  19.066  0.00  0.00    +0.000 C 
ATOM      2  C   UNL     1       3.216   4.631  20.526  0.00  0.00    +0.000 C 
ATOM      3  C   UNL     1       2.134   3.627  20.801  0.00  0.00    +0.000 C 
ATOM      4  O   UNL     1       1.935   3.109  21.892  0.00  0.00    +0.000 OA
ATOM      5  N   UNL     1       1.440   3.393  19.655  0.00  0.00    +0.000 N 
ATOM      6  C   UNL     1       0.393   2.405  19.529  0.00  0.00    +0.000 C 
ATOM      7  C   UNL     1       1.830   4.192  18.615  0.00  0.00    +0.000 C 
ATOM      8  O   UNL     1       1.347   4.177  17.493  0.00  0.00    +0.000 OA
ENDROOT
BRANCH   1   9
ATOM      9  C   UNL     1       2.562   6.569  19.006  0.00  0.00    +0.000 A 
ATOM     10  C   UNL     1       1.976   7.230  20.093  0.00  0.00    +0.000 A 
ATOM     11  C   UNL     1       1.460   8.524  19.975  0.00  0.00    +0.000 A 
ATOM     12  C   UNL     1       1.571   9.254  18.788  0.00  0.00    +0.000 A 
ATOM     13  C   UNL     1       2.229   8.625  17.721  0.00  0.00    +0.000 A 
ATOM     14  C   UNL     1       2.711   7.311  17.824  0.00  0.00    +0.000 A 
BRANCH  12  15
ATOM     15  C   UNL     1       1.030  10.627  18.682  0.00  0.00    +0.000 A 
ATOM     16  C   UNL     1       1.886  11.738  18.542  0.00  0.00    +0.000 A 
ATOM     17  C   UNL     1       1.387  13.038  18.435  0.00  0.00    +0.000 A 
ATOM     18  C   UNL     1       0.015  13.256  18.457  0.00  0.00    +0.000 A 
ATOM     19  C   UNL     1      -0.856  12.179  18.599  0.00  0.00    +0.000 A 
ATOM     20  C   UNL     1      -0.352  10.881  18.718  0.00  0.00    +0.000 A 
ENDBRANCH  12  15
ENDBRANCH   1   9
BRANCH   1  21
ATOM     21  C   UNL     1       4.171   4.695  18.136  0.00  0.00    +0.000 C 
BRANCH  21  24
ATOM     22  C   UNL     1       7.534   6.515  18.423  0.00  0.00    +0.000 C 
ATOM     23  N   UNL     1       6.255   6.076  17.883  0.00  0.00    +0.000 N 
ATOM     24  C   UNL     1       5.541   5.142  18.631  0.00  0.00    +0.000 C 
ATOM     25  O   UNL     1       5.998   4.684  19.680  0.00  0.00    +0.000 OA
BRANCH  23  26
ATOM     26  C   UNL     1       5.879   6.578  16.556  0.00  0.00    +0.000 C 
BRANCH  26  27
ATOM     27  C   UNL     1       6.219   5.606  15.480  0.00  0.00    +0.000 A 
ATOM     28  C   UNL     1       5.410   4.590  14.918  0.00  0.00    +0.000 A 
ATOM     29  C   UNL     1       6.241   3.941  14.045  0.00  0.00    +0.000 A 
ATOM     30  O   UNL     1       7.463   4.527  14.062  0.00  0.00    +0.000 OA
ATOM     31  N   UNL     1       7.454   5.579  14.960  0.00  0.00    +0.000 NA
ENDBRANCH  26  27
ENDBRANCH  23  26
ENDBRANCH  21  24
ENDBRANCH   1  21
TORSDOF 6
ENDMDL
MODEL 2
REMARK VINA RESULT:      -9.3      1.940      2.450
REMARK  Name = 
REMARK  8 active torsions:
REMARK  status: ('A' for Active; 'I' for Inactive)
REMARK    1  A    between atoms: C_1  and  N_2
REMARK    2  A    between atoms: N_2  and  C_3
REMARK    3  A    between atoms: C_3  and  C_4
REMARK    4  A    between atoms: C_9  and  C_11
REMARK    5  A    between atoms: C_11  and  C_12
REMARK    6  A    between atoms: C_12  and  C_13
REMARK    7  A    between atoms: C_16  and  C_17
REMARK    8  A    between atoms: N_28  and  C_29
REMARK                            x       y       z     vdW  Elec       q    Type
REMARK                         _______ _______ _______ _____ _____    ______ ____
ROOT
ATOM      1  C   UNL     1       3.278   5.387  18.509  0.00  0.00    +0.000 C 
ATOM      2  C   UNL     1       4.239   4.708  19.514  0.00  0.00    +0.000 C 
ATOM      3  C   UNL     1       3.745   3.296  19.644  0.00  0.00    +0.000 C 
ATOM      4  O   UNL     1       4.201   2.476  20.428  0.00  0.00    +0.000 OA
ATOM      5  N   UNL     1       2.737   3.093  18.753  0.00  0.00    +0.000 N 
ATOM      6  C   UNL     1       2.096   1.816  18.533  0.00  0.00    +0.000 C 
ATOM      7  C   UNL     1       2.378   4.225  18.075  0.00  0.00    +0.000 C 
ATOM      8  O   UNL     1       1.492   4.296  17.237  0.00  0.00    +0.000 OA
ENDROOT
BRANCH   1   9
ATOM      9  C   UNL     1       2.437   6.482  19.191  0.00  0.00    +0.000 A 
ATOM     10  C   UNL     1       2.160   7.711  18.580  0.00  0.00    +0.000 A 
ATOM     11  C   UNL     1       1.526   8.749  19.269  0.00  0.00    +0.000 A 
ATOM     12  C   UNL     1       1.068   8.588  20.580  0.00  0.00    +0.000 A 
ATOM     13  C   UNL     1       1.274   7.332  21.170  0.00  0.00    +0.000 A 
ATOM     14  C   UNL     1       1.946   6.301  20.494  0.00  0.00    +0.000 A 
BRANCH  12  15
ATOM     15  C   UNL     1       0.389   9.692  21.293  0.00  0.00    +0.000 A 
ATOM     16  C   UNL     1      -0.352   9.453  22.468  0.00  0.00    +0.000 A 
ATOM     17  C   UNL     1      -0.991  10.489  23.153  0.00  0.00    +0.000 A 
ATOM     18  C   UNL     1      -0.897  11.792  22.681  0.00  0.00    +0.000 A 
ATOM     19  C   UNL     1      -0.177  12.059  21.520  0.00  0.00    +0.000 A 
ATOM     20  C   UNL     1       0.452  11.018  20.831  0.00  0.00    +0.000 A 
ENDBRANCH  12  15
ENDBRANCH   1   9
BRANCH   1  21
ATOM     21  C   UNL     1       4.009   5.820  17.203  0.00  0.00    +0.000 C 
BRANCH  21  24
ATOM     22  C   UNL     1       7.614   7.123  17.307  0.00  0.00    +0.000 C 
ATOM     23  N   UNL     1       6.490   6.214  17.134  0.00  0.00    +0.000 N 
ATOM     24  C   UNL     1       5.223   6.715  17.425  0.00  0.00    +0.000 C 
ATOM     25  O   UNL     1       5.074   7.863  17.849  0.00  0.00    +0.000 OA
BRANCH  23  26
ATOM     26  C   UNL     1       6.799   4.828  16.764  0.00  0.00    +0.000 C 
BRANCH  26  27
ATOM     27  C   UNL     1       6.741   4.622  15.290  0.00  0.00    +0.000 A 
ATOM     28  C   UNL     1       5.928   3.730  14.553  0.00  0.00    +0.000 A 
ATOM     29  C   UNL     1       6.345   3.885  13.258  0.00  0.00    +0.000 A 
ATOM     30  O   UNL     1       7.328   4.815  13.207  0.00  0.00    +0.000 OA
ATOM     31  N   UNL     1       7.580   5.286  14.483  0.00  0.00    +0.000 NA
ENDBRANCH  26  27
ENDBRANCH  23  26
ENDBRANCH  21  24
ENDBRANCH   1  21
TORSDOF 6
ENDMDL
MODEL 3
REMARK VINA RESULT:      -9.2      1.148      1.283
REMARK  Name = 
REMARK  8 active torsions:
REMARK  status: ('A' for Active; 'I' for Inactive)
REMARK    1  A    between atoms: C_1  and  N_2
REMARK    2  A    between atoms: N_2  and  C_3
REMARK    3  A    between atoms: C_3  and  C_4
REMARK    4  A    between atoms: C_9  and  C_11
REMARK    5  A    between atoms: C_11  and  C_12
REMARK    6  A    between atoms: C_12  and  C_13
REMARK    7  A    between atoms: C_16  and  C_17
REMARK    8  A    between atoms: N_28  and  C_29
REMARK                            x       y       z     vdW  Elec       q    Type
REMARK                         _______ _______ _______ _____ _____    ______ ____
ROOT
ATOM      1  C   UNL     1       3.003   5.549  18.631  0.00  0.00    +0.000 C 
ATOM      2  C   UNL     1       3.535   4.902  19.932  0.00  0.00    +0.000 C 
ATOM      3  C   UNL     1       2.638   3.725  20.185  0.00  0.00    +0.000 C 
ATOM      4  O   UNL     1       2.692   3.018  21.182  0.00  0.00    +0.000 OA
ATOM      5  N   UNL     1       1.786   3.579  19.134  0.00  0.00    +0.000 N 
ATOM      6  C   UNL     1       0.852   2.486  18.995  0.00  0.00    +0.000 C 
ATOM      7  C   UNL     1       1.895   4.579  18.207  0.00  0.00    +0.000 C 
ATOM      8  O   UNL     1       1.229   4.674  17.189  0.00  0.00    +0.000 OA
ENDROOT
BRANCH   1   9
ATOM      9  C   UNL     1       2.410   6.944  18.903  0.00  0.00    +0.000 A 
ATOM     10  C   UNL     1       1.918   7.323  20.158  0.00  0.00    +0.000 A 
ATOM     11  C   UNL     1       1.248   8.534  20.351  0.00  0.00    +0.000 A 
ATOM     12  C   UNL     1       1.099   9.464  19.318  0.00  0.00    +0.000 A 
ATOM     13  C   UNL     1       1.660   9.123  18.078  0.00  0.00    +0.000 A 
ATOM     14  C   UNL     1       2.298   7.890  17.871  0.00  0.00    +0.000 A 
BRANCH  12  15
ATOM     15  C   UNL     1       0.396  10.747  19.539  0.00  0.00    +0.000 A 
ATOM     16  C   UNL     1       1.027  11.817  20.206  0.00  0.00    +0.000 A 
ATOM     17  C   UNL     1       0.376  13.035  20.415  0.00  0.00    +0.000 A 
ATOM     18  C   UNL     1      -0.922  13.213  19.954  0.00  0.00    +0.000 A 
ATOM     19  C   UNL     1      -1.574  12.173  19.296  0.00  0.00    +0.000 A 
ATOM     20  C   UNL     1      -0.923  10.952  19.099  0.00  0.00    +0.000 A 
ENDBRANCH  12  15
ENDBRANCH   1   9
BRANCH   1  21
ATOM     21  C   UNL     1       4.044   5.478  17.475  0.00  0.00    +0.000 C 
BRANCH  21  24
ATOM     22  C   UNL     1       7.752   4.506  17.602  0.00  0.00    +0.000 C 
ATOM     23  N   UNL     1       6.368   4.577  17.153  0.00  0.00    +0.000 N 
ATOM     24  C   UNL     1       5.490   5.326  17.934  0.00  0.00    +0.000 C 
ATOM     25  O   UNL     1       5.867   5.865  18.977  0.00  0.00    +0.000 OA
BRANCH  23  26
ATOM     26  C   UNL     1       6.001   3.778  15.979  0.00  0.00    +0.000 C 
BRANCH  26  27
ATOM     27  C   UNL     1       6.590   4.331  14.727  0.00  0.00    +0.000 A 
ATOM     28  C   UNL     1       6.385   3.910  13.392  0.00  0.00    +0.000 A 
ATOM     29  C   UNL     1       7.232   4.695  12.657  0.00  0.00    +0.000 A 
ATOM     30  O   UNL     1       7.893   5.544  13.481  0.00  0.00    +0.000 OA
ATOM     31  N   UNL     1       7.489   5.323  14.785  0.00  0.00    +0.000 NA
ENDBRANCH  26  27
ENDBRANCH  23  26
ENDBRANCH  21  24
ENDBRANCH   1  21
TORSDOF 6
ENDMDL
MODEL 4
REMARK VINA RESULT:      -9.1      0.342      1.248
REMARK  Name = 
REMARK  8 active torsions:
REMARK  status: ('A' for Active; 'I' for Inactive)
REMARK    1  A    between atoms: C_1  and  N_2
REMARK    2  A    between atoms: N_2  and  C_3
REMARK    3  A    between atoms: C_3  and  C_4
REMARK    4  A    between atoms: C_9  and  C_11
REMARK    5  A    between atoms: C_11  and  C_12
REMARK    6  A    between atoms: C_12  and  C_13
REMARK    7  A    between atoms: C_16  and  C_17
REMARK    8  A    between atoms: N_28  and  C_29
REMARK                            x       y       z     vdW  Elec       q    Type
REMARK                         _______ _______ _______ _____ _____    ______ ____
ROOT
ATOM      1  C   UNL     1       2.975   4.980  18.988  0.00  0.00    +0.000 C 
ATOM      2  C   UNL     1       3.271   4.601  20.459  0.00  0.00    +0.000 C 
ATOM      3  C   UNL     1       2.252   3.556  20.812  0.00  0.00    +0.000 C 
ATOM      4  O   UNL     1       2.112   3.080  21.930  0.00  0.00    +0.000 OA
ATOM      5  N   UNL     1       1.539   3.233  19.699  0.00  0.00    +0.000 N 
ATOM      6  C   UNL     1       0.543   2.189  19.650  0.00  0.00    +0.000 C 
ATOM      7  C   UNL     1       1.856   4.003  18.613  0.00  0.00    +0.000 C 
ATOM      8  O   UNL     1       1.342   3.911  17.509  0.00  0.00    +0.000 OA
ENDROOT
BRANCH   1   9
ATOM      9  C   UNL     1       2.471   6.430  18.875  0.00  0.00    +0.000 A 
ATOM     10  C   UNL     1       2.526   7.157  17.679  0.00  0.00    +0.000 A 
ATOM     11  C   UNL     1       2.206   8.517  17.629  0.00  0.00    +0.000 A 
ATOM     12  C   UNL     1       1.742   9.204  18.755  0.00  0.00    +0.000 A 
ATOM     13  C   UNL     1       1.610   8.460  19.937  0.00  0.00    +0.000 A 
ATOM     14  C   UNL     1       1.969   7.105  19.999  0.00  0.00    +0.000 A 
BRANCH  12  15
ATOM     15  C   UNL     1       1.397  10.641  18.684  0.00  0.00    +0.000 A 
ATOM     16  C   UNL     1       0.126  11.105  19.082  0.00  0.00    +0.000 A 
ATOM     17  C   UNL     1      -0.208  12.460  19.026  0.00  0.00    +0.000 A 
ATOM     18  C   UNL     1       0.726  13.385  18.576  0.00  0.00    +0.000 A 
ATOM     19  C   UNL     1       1.988  12.956  18.172  0.00  0.00    +0.000 A 
ATOM     20  C   UNL     1       2.315  11.598  18.219  0.00  0.00    +0.000 A 
ENDBRANCH  12  15
ENDBRANCH   1   9
BRANCH   1  21
ATOM     21  C   UNL     1       4.152   4.604  18.040  0.00  0.00    +0.000 C 
BRANCH  21  24
ATOM     22  C   UNL     1       7.404   6.633  18.135  0.00  0.00    +0.000 C 
ATOM     23  N   UNL     1       6.137   6.097  17.659  0.00  0.00    +0.000 N 
ATOM     24  C   UNL     1       5.508   5.152  18.467  0.00  0.00    +0.000 C 
ATOM     25  O   UNL     1       6.030   4.763  19.514  0.00  0.00    +0.000 OA
BRANCH  23  26
ATOM     26  C   UNL     1       5.685   6.525  16.330  0.00  0.00    +0.000 C 
BRANCH  26  27
ATOM     27  C   UNL     1       6.093   5.561  15.270  0.00  0.00    +0.000 A 
ATOM     28  C   UNL     1       5.333   4.527  14.675  0.00  0.00    +0.000 A 
ATOM     29  C   UNL     1       6.216   3.897  13.840  0.00  0.00    +0.000 A 
ATOM     30  O   UNL     1       7.421   4.512  13.907  0.00  0.00    +0.000 OA
ATOM     31  N   UNL     1       7.349   5.563  14.804  0.00  0.00    +0.000 NA
ENDBRANCH  26  27
ENDBRANCH  23  26
ENDBRANCH  21  24
ENDBRANCH   1  21
TORSDOF 6
ENDMDL
MODEL 5
REMARK VINA RESULT:      -9.0      1.161      1.710
REMARK  Name = 
REMARK  8 active torsions:
REMARK  status: ('A' for Active; 'I' for Inactive)
REMARK    1  A    between atoms: C_1  and  N_2
REMARK    2  A    between atoms: N_2  and  C_3
REMARK    3  A    between atoms: C_3  and  C_4
REMARK    4  A    between atoms: C_9  and  C_11
REMARK    5  A    between atoms: C_11  and  C_12
REMARK    6  A    between atoms: C_12  and  C_13
REMARK    7  A    between atoms: C_16  and  C_17
REMARK    8  A    between atoms: N_28  and  C_29
REMARK                            x       y       z     vdW  Elec       q    Type
REMARK                         _______ _______ _______ _____ _____    ______ ____
ROOT
ATOM      1  C   UNL     1       2.899   5.355  18.634  0.00  0.00    +0.000 C 
ATOM      2  C   UNL     1       3.427   4.719  19.942  0.00  0.00    +0.000 C 
ATOM      3  C   UNL     1       2.551   3.524  20.184  0.00  0.00    +0.000 C 
ATOM      4  O   UNL     1       2.607   2.818  21.181  0.00  0.00    +0.000 OA
ATOM      5  N   UNL     1       1.716   3.361  19.122  0.00  0.00    +0.000 N 
ATOM      6  C   UNL     1       0.805   2.249  18.971  0.00  0.00    +0.000 C 
ATOM      7  C   UNL     1       1.816   4.364  18.197  0.00  0.00    +0.000 C 
ATOM      8  O   UNL     1       1.161   4.445  17.170  0.00  0.00    +0.000 OA
ENDROOT
BRANCH   1   9
ATOM      9  C   UNL     1       2.275   6.738  18.899  0.00  0.00    +0.000 A 
ATOM     10  C   UNL     1       2.150   7.713  17.901  0.00  0.00    +0.000 A 
ATOM     11  C   UNL     1       1.722   9.011  18.190  0.00  0.00    +0.000 A 
ATOM     12  C   UNL     1       1.324   9.383  19.478  0.00  0.00    +0.000 A 
ATOM     13  C   UNL     1       1.372   8.388  20.465  0.00  0.00    +0.000 A 
ATOM     14  C   UNL     1       1.840   7.095  20.185  0.00  0.00    +0.000 A 
BRANCH  12  15
ATOM     15  C   UNL     1       0.862  10.759  19.767  0.00  0.00    +0.000 A 
ATOM     16  C   UNL     1      -0.033  11.020  20.824  0.00  0.00    +0.000 A 
ATOM     17  C   UNL     1      -0.470  12.315  21.110  0.00  0.00    +0.000 A 
ATOM     18  C   UNL     1      -0.014  13.383  20.348  0.00  0.00    +0.000 A 
ATOM     19  C   UNL     1       0.867  13.157  19.294  0.00  0.00    +0.000 A 
ATOM     20  C   UNL     1       1.293  11.858  19.003  0.00  0.00    +0.000 A 
ENDBRANCH  12  15
ENDBRANCH   1   9
BRANCH   1  21
ATOM     21  C   UNL     1       3.956   5.305  17.492  0.00  0.00    +0.000 C 
BRANCH  21  24
ATOM     22  C   UNL     1       7.712   4.550  17.662  0.00  0.00    +0.000 C 
ATOM     23  N   UNL     1       6.333   4.545  17.195  0.00  0.00    +0.000 N 
ATOM     24  C   UNL     1       5.402   5.233  17.969  0.00  0.00    +0.000 C 
ATOM     25  O   UNL     1       5.732   5.784  19.022  0.00  0.00    +0.000 OA
BRANCH  23  26
ATOM     26  C   UNL     1       6.030   3.735  16.009  0.00  0.00    +0.000 C 
BRANCH  26  27
ATOM     27  C   UNL     1       6.613   4.326  14.772  0.00  0.00    +0.000 A 
ATOM     28  C   UNL     1       6.388   3.958  13.425  0.00  0.00    +0.000 A 
ATOM     29  C   UNL     1       7.240   4.757  12.710  0.00  0.00    +0.000 A 
ATOM     30  O   UNL     1       7.922   5.564  13.557  0.00  0.00    +0.000 OA
ATOM     31  N   UNL     1       7.529   5.301  14.857  0.00  0.00    +0.000 NA
ENDBRANCH  26  27
ENDBRANCH  23  26
ENDBRANCH  21  24
ENDBRANCH   1  21
TORSDOF 6
ENDMDL
MODEL 6
REMARK VINA RESULT:      -8.9      2.129      3.074
REMARK  Name = 
REMARK  8 active torsions:
REMARK  status: ('A' for Active; 'I' for Inactive)
REMARK    1  A    between atoms: C_1  and  N_2
REMARK    2  A    between atoms: N_2  and  C_3
REMARK    3  A    between atoms: C_3  and  C_4
REMARK    4  A    between atoms: C_9  and  C_11
REMARK    5  A    between atoms: C_11  and  C_12
REMARK    6  A    between atoms: C_12  and  C_13
REMARK    7  A    between atoms: C_16  and  C_17
REMARK    8  A    between atoms: N_28  and  C_29
REMARK                            x       y       z     vdW  Elec       q    Type
REMARK                         _______ _______ _______ _____ _____    ______ ____
ROOT
ATOM      1  C   UNL     1       3.231   5.110  18.522  0.00  0.00    +0.000 C 
ATOM      2  C   UNL     1       4.415   4.491  19.304  0.00  0.00    +0.000 C 
ATOM      3  C   UNL     1       3.964   3.109  19.677  0.00  0.00    +0.000 C 
ATOM      4  O   UNL     1       4.602   2.344  20.387  0.00  0.00    +0.000 OA
ATOM      5  N   UNL     1       2.760   2.859  19.095  0.00  0.00    +0.000 N 
ATOM      6  C   UNL     1       2.079   1.587  19.158  0.00  0.00    +0.000 C 
ATOM      7  C   UNL     1       2.244   3.941  18.435  0.00  0.00    +0.000 C 
ATOM      8  O   UNL     1       1.174   3.966  17.849  0.00  0.00    +0.000 OA
ENDROOT
BRANCH   1   9
ATOM      9  C   UNL     1       2.599   6.279  19.298  0.00  0.00    +0.000 A 
ATOM     10  C   UNL     1       2.048   6.126  20.577  0.00  0.00    +0.000 A 
ATOM     11  C   UNL     1       1.346   7.158  21.204  0.00  0.00    +0.000 A 
ATOM     12  C   UNL     1       1.222   8.423  20.620  0.00  0.00    +0.000 A 
ATOM     13  C   UNL     1       1.841   8.605  19.375  0.00  0.00    +0.000 A 
ATOM     14  C   UNL     1       2.512   7.558  18.725  0.00  0.00    +0.000 A 
BRANCH  12  15
ATOM     15  C   UNL     1       0.485   9.510  21.302  0.00  0.00    +0.000 A 
ATOM     16  C   UNL     1      -0.232   9.269  22.491  0.00  0.00    +0.000 A 
ATOM     17  C   UNL     1      -0.926  10.288  23.146  0.00  0.00    +0.000 A 
ATOM     18  C   UNL     1      -0.912  11.578  22.629  0.00  0.00    +0.000 A 
ATOM     19  C   UNL     1      -0.217  11.846  21.453  0.00  0.00    +0.000 A 
ATOM     20  C   UNL     1       0.467  10.821  20.794  0.00  0.00    +0.000 A 
ENDBRANCH  12  15
ENDBRANCH   1   9
BRANCH   1  21
ATOM     21  C   UNL     1       3.604   5.413  17.041  0.00  0.00    +0.000 C 
BRANCH  21  24
ATOM     22  C   UNL     1       6.991   4.251  15.668  0.00  0.00    +0.000 C 
ATOM     23  N   UNL     1       5.938   5.132  16.150  0.00  0.00    +0.000 N 
ATOM     24  C   UNL     1       4.719   4.541  16.477  0.00  0.00    +0.000 C 
ATOM     25  O   UNL     1       4.538   3.331  16.323  0.00  0.00    +0.000 OA
BRANCH  23  26
ATOM     26  C   UNL     1       6.219   6.573  16.155  0.00  0.00    +0.000 C 
BRANCH  26  27
ATOM     27  C   UNL     1       7.157   6.949  17.249  0.00  0.00    +0.000 A 
ATOM     28  C   UNL     1       7.564   6.184  18.367  0.00  0.00    +0.000 A 
ATOM     29  C   UNL     1       8.352   7.038  19.091  0.00  0.00    +0.000 A 
ATOM     30  O   UNL     1       8.433   8.231  18.454  0.00  0.00    +0.000 OA
ATOM     31  N   UNL     1       7.686   8.180  17.291  0.00  0.00    +0.000 NA
ENDBRANCH  26  27
ENDBRANCH  23  26
ENDBRANCH  21  24
ENDBRANCH   1  21
TORSDOF 6
ENDMDL
MODEL 7
REMARK VINA RESULT:      -8.8      1.492      1.755
REMARK  Name = 
REMARK  8 active torsions:
REMARK  status: ('A' for Active; 'I' for Inactive)
REMARK    1  A    between atoms: C_1  and  N_2
REMARK    2  A    between atoms: N_2  and  C_3
REMARK    3  A    between atoms: C_3  and  C_4
REMARK    4  A    between atoms: C_9  and  C_11
REMARK    5  A    between atoms: C_11  and  C_12
REMARK    6  A    between atoms: C_12  and  C_13
REMARK    7  A    between atoms: C_16  and  C_17
REMARK    8  A    between atoms: N_28  and  C_29
REMARK                            x       y       z     vdW  Elec       q    Type
REMARK                         _______ _______ _______ _____ _____    ______ ____
ROOT
ATOM      1  C   UNL     1       3.063   5.545  18.585  0.00  0.00    +0.000 C 
ATOM      2  C   UNL     1       3.799   4.834  19.746  0.00  0.00    +0.000 C 
ATOM      3  C   UNL     1       3.051   3.550  19.961  0.00  0.00    +0.000 C 
ATOM      4  O   UNL     1       3.285   2.759  20.865  0.00  0.00    +0.000 OA
ATOM      5  N   UNL     1       2.102   3.418  18.995  0.00  0.00    +0.000 N 
ATOM      6  C   UNL     1       1.265   2.252  18.836  0.00  0.00    +0.000 C 
ATOM      7  C   UNL     1       2.010   4.510  18.176  0.00  0.00    +0.000 C 
ATOM      8  O   UNL     1       1.225   4.633  17.249  0.00  0.00    +0.000 OA
ENDROOT
BRANCH   1   9
ATOM      9  C   UNL     1       2.378   6.837  19.067  0.00  0.00    +0.000 A 
ATOM     10  C   UNL     1       2.022   7.048  20.405  0.00  0.00    +0.000 A 
ATOM     11  C   UNL     1       1.267   8.156  20.800  0.00  0.00    +0.000 A 
ATOM     12  C   UNL     1       0.893   9.151  19.891  0.00  0.00    +0.000 A 
ATOM     13  C   UNL     1       1.314   8.983  18.564  0.00  0.00    +0.000 A 
ATOM     14  C   UNL     1       2.037   7.852  18.158  0.00  0.00    +0.000 A 
BRANCH  12  15
ATOM     15  C   UNL     1       0.103  10.324  20.326  0.00  0.00    +0.000 A 
ATOM     16  C   UNL     1      -0.681  11.055  19.409  0.00  0.00    +0.000 A 
ATOM     17  C   UNL     1      -1.435  12.159  19.809  0.00  0.00    +0.000 A 
ATOM     18  C   UNL     1      -1.431  12.555  21.140  0.00  0.00    +0.000 A 
ATOM     19  C   UNL     1      -0.663  11.856  22.069  0.00  0.00    +0.000 A 
ATOM     20  C   UNL     1       0.100  10.758  21.663  0.00  0.00    +0.000 A 
ENDBRANCH  12  15
ENDBRANCH   1   9
BRANCH   1  21
ATOM     21  C   UNL     1       3.968   5.697  17.326  0.00  0.00    +0.000 C 
BRANCH  21  24
ATOM     22  C   UNL     1       7.608   6.904  17.348  0.00  0.00    +0.000 C 
ATOM     23  N   UNL     1       6.454   6.032  17.178  0.00  0.00    +0.000 N 
ATOM     24  C   UNL     1       5.212   6.550  17.540  0.00  0.00    +0.000 C 
ATOM     25  O   UNL     1       5.111   7.682  18.020  0.00  0.00    +0.000 OA
BRANCH  23  26
ATOM     26  C   UNL     1       6.712   4.657  16.735  0.00  0.00    +0.000 C 
BRANCH  26  27
ATOM     27  C   UNL     1       6.706   4.544  15.250  0.00  0.00    +0.000 A 
ATOM     28  C   UNL     1       5.918   3.700  14.431  0.00  0.00    +0.000 A 
ATOM     29  C   UNL     1       6.380   3.935  13.163  0.00  0.00    +0.000 A 
ATOM     30  O   UNL     1       7.365   4.864  13.204  0.00  0.00    +0.000 OA
ATOM     31  N   UNL     1       7.572   5.254  14.515  0.00  0.00    +0.000 NA
ENDBRANCH  26  27
ENDBRANCH  23  26
ENDBRANCH  21  24
ENDBRANCH   1  21
TORSDOF 6
ENDMDL
MODEL 8
REMARK VINA RESULT:      -8.8      0.806      1.213
REMARK  Name = 
REMARK  8 active torsions:
REMARK  status: ('A' for Active; 'I' for Inactive)
REMARK    1  A    between atoms: C_1  and  N_2
REMARK    2  A    between atoms: N_2  and  C_3
REMARK    3  A    between atoms: C_3  and  C_4
REMARK    4  A    between atoms: C_9  and  C_11
REMARK    5  A    between atoms: C_11  and  C_12
REMARK    6  A    between atoms: C_12  and  C_13
REMARK    7  A    between atoms: C_16  and  C_17
REMARK    8  A    between atoms: N_28  and  C_29
REMARK                            x       y       z     vdW  Elec       q    Type
REMARK                         _______ _______ _______ _____ _____    ______ ____
ROOT
ATOM      1  C   UNL     1       2.910   5.176  19.073  0.00  0.00    +0.000 C 
ATOM      2  C   UNL     1       3.092   4.765  20.553  0.00  0.00    +0.000 C 
ATOM      3  C   UNL     1       2.056   3.707  20.801  0.00  0.00    +0.000 C 
ATOM      4  O   UNL     1       1.832   3.203  21.894  0.00  0.00    +0.000 OA
ATOM      5  N   UNL     1       1.435   3.406  19.628  0.00  0.00    +0.000 N 
ATOM      6  C   UNL     1       0.453   2.358  19.478  0.00  0.00    +0.000 C 
ATOM      7  C   UNL     1       1.830   4.202  18.589  0.00  0.00    +0.000 C 
ATOM      8  O   UNL     1       1.405   4.134  17.446  0.00  0.00    +0.000 OA
ENDROOT
BRANCH   1   9
ATOM      9  C   UNL     1       2.406   6.626  18.954  0.00  0.00    +0.000 A 
ATOM     10  C   UNL     1       2.563   7.386  17.788  0.00  0.00    +0.000 A 
ATOM     11  C   UNL     1       2.237   8.745  17.747  0.00  0.00    +0.000 A 
ATOM     12  C   UNL     1       1.668   9.398  18.844  0.00  0.00    +0.000 A 
ATOM     13  C   UNL     1       1.436   8.621  19.989  0.00  0.00    +0.000 A 
ATOM     14  C   UNL     1       1.799   7.267  20.046  0.00  0.00    +0.000 A 
BRANCH  12  15
ATOM     15  C   UNL     1       1.319  10.834  18.781  0.00  0.00    +0.000 A 
ATOM     16  C   UNL     1       2.223  11.781  18.258  0.00  0.00    +0.000 A 
ATOM     17  C   UNL     1       1.902  13.138  18.188  0.00  0.00    +0.000 A 
ATOM     18  C   UNL     1       0.662  13.580  18.633  0.00  0.00    +0.000 A 
ATOM     19  C   UNL     1      -0.250  12.669  19.160  0.00  0.00    +0.000 A 
ATOM     20  C   UNL     1       0.079  11.314  19.239  0.00  0.00    +0.000 A 
ENDBRANCH  12  15
ENDBRANCH   1   9
BRANCH   1  21
ATOM     21  C   UNL     1       4.160   4.829  18.212  0.00  0.00    +0.000 C 
BRANCH  21  24
ATOM     22  C   UNL     1       7.680   5.603  19.522  0.00  0.00    +0.000 C 
ATOM     23  N   UNL     1       6.473   5.677  18.712  0.00  0.00    +0.000 N 
ATOM     24  C   UNL     1       5.466   4.755  18.993  0.00  0.00    +0.000 C 
ATOM     25  O   UNL     1       5.618   3.894  19.862  0.00  0.00    +0.000 OA
BRANCH  23  26
ATOM     26  C   UNL     1       6.461   6.647  17.611  0.00  0.00    +0.000 C 
BRANCH  26  27
ATOM     27  C   UNL     1       6.435   5.975  16.282  0.00  0.00    +0.000 A 
ATOM     28  C   UNL     1       7.237   4.906  15.816  0.00  0.00    +0.000 A 
ATOM     29  C   UNL     1       6.862   4.749  14.508  0.00  0.00    +0.000 A 
ATOM     30  O   UNL     1       5.892   5.644  14.204  0.00  0.00    +0.000 OA
ATOM     31  N   UNL     1       5.616   6.417  15.318  0.00  0.00    +0.000 NA
ENDBRANCH  26  27
ENDBRANCH  23  26
ENDBRANCH  21  24
ENDBRANCH   1  21
TORSDOF 6
ENDMDL
MODEL 9
REMARK VINA RESULT:      -8.6      1.417      1.700
REMARK  Name = 
REMARK  8 active torsions:
REMARK  status: ('A' for Active; 'I' for Inactive)
REMARK    1  A    between atoms: C_1  and  N_2
REMARK    2  A    between atoms: N_2  and  C_3
REMARK    3  A    between atoms: C_3  and  C_4
REMARK    4  A    between atoms: C_9  and  C_11
REMARK    5  A    between atoms: C_11  and  C_12
REMARK    6  A    between atoms: C_12  and  C_13
REMARK    7  A    between atoms: C_16  and  C_17
REMARK    8  A    between atoms: N_28  and  C_29
REMARK                            x       y       z     vdW  Elec       q    Type
REMARK                         _______ _______ _______ _____ _____    ______ ____
ROOT
ATOM      1  C   UNL     1       2.892   5.324  18.982  0.00  0.00    +0.000 C 
ATOM      2  C   UNL     1       3.425   4.571  20.224  0.00  0.00    +0.000 C 
ATOM      3  C   UNL     1       2.605   3.316  20.308  0.00  0.00    +0.000 C 
ATOM      4  O   UNL     1       2.675   2.506  21.222  0.00  0.00    +0.000 OA
ATOM      5  N   UNL     1       1.800   3.234  19.214  0.00  0.00    +0.000 N 
ATOM      6  C   UNL     1       0.950   2.105  18.917  0.00  0.00    +0.000 C 
ATOM      7  C   UNL     1       1.869   4.338  18.409  0.00  0.00    +0.000 C 
ATOM      8  O   UNL     1       1.232   4.503  17.381  0.00  0.00    +0.000 OA
ENDROOT
BRANCH   1   9
ATOM      9  C   UNL     1       2.195   6.637  19.382  0.00  0.00    +0.000 A 
ATOM     10  C   UNL     1       2.131   7.747  18.531  0.00  0.00    +0.000 A 
ATOM     11  C   UNL     1       1.629   8.978  18.963  0.00  0.00    +0.000 A 
ATOM     12  C   UNL     1       1.095   9.144  20.244  0.00  0.00    +0.000 A 
ATOM     13  C   UNL     1       1.085   8.014  21.075  0.00  0.00    +0.000 A 
ATOM     14  C   UNL     1       1.625   6.788  20.657  0.00  0.00    +0.000 A 
BRANCH  12  15
ATOM     15  C   UNL     1       0.557  10.451  20.684  0.00  0.00    +0.000 A 
ATOM     16  C   UNL     1       0.691  11.601  19.880  0.00  0.00    +0.000 A 
ATOM     17  C   UNL     1       0.181  12.838  20.282  0.00  0.00    +0.000 A 
ATOM     18  C   UNL     1      -0.482  12.951  21.497  0.00  0.00    +0.000 A 
ATOM     19  C   UNL     1      -0.625  11.834  22.316  0.00  0.00    +0.000 A 
ATOM     20  C   UNL     1      -0.104  10.600  21.916  0.00  0.00    +0.000 A 
ENDBRANCH  12  15
ENDBRANCH   1   9
BRANCH   1  21
ATOM     21  C   UNL     1       3.973   5.453  17.868  0.00  0.00    +0.000 C 
BRANCH  21  24
ATOM     22  C   UNL     1       7.702   4.555  17.872  0.00  0.00    +0.000 C 
ATOM     23  N   UNL     1       6.440   5.167  17.480  0.00  0.00    +0.000 N 
ATOM     24  C   UNL     1       5.308   4.796  18.202  0.00  0.00    +0.000 C 
ATOM     25  O   UNL     1       5.374   3.956  19.103  0.00  0.00    +0.000 OA
BRANCH  23  26
ATOM     26  C   UNL     1       6.456   6.041  16.301  0.00  0.00    +0.000 C 
BRANCH  26  27
ATOM     27  C   UNL     1       6.488   5.259  15.034  0.00  0.00    +0.000 A 
ATOM     28  C   UNL     1       5.601   4.249  14.595  0.00  0.00    +0.000 A 
ATOM     29  C   UNL     1       6.145   3.809  13.418  0.00  0.00    +0.000 A 
ATOM     30  O   UNL     1       7.273   4.511  13.150  0.00  0.00    +0.000 OA
ATOM     31  N   UNL     1       7.492   5.429  14.162  0.00  0.00    +0.000 NA
ENDBRANCH  26  27
ENDBRANCH  23  26
ENDBRANCH  21  24
ENDBRANCH   1  21
TORSDOF 6
ENDMDL
