MODEL 1
REMARK VINA RESULT:      -9.1      0.000      0.000
REMARK  Name = 
REMARK  6 active torsions:
REMARK  status: ('A' for Active; 'I' for Inactive)
REMARK    1  A    between atoms: C_5  and  C_6
REMARK    2  A    between atoms: C_6  and  C_7
REMARK    3  A    between atoms: C_7  and  N_8
REMARK    4  A    between atoms: N_12  and  C_13
REMARK    5  A    between atoms: C_13  and  C_14
REMARK    6  A    between atoms: C_14  and  C_15
REMARK                            x       y       z     vdW  Elec       q    Type
REMARK                         _______ _______ _______ _____ _____    ______ ____
ROOT
ATOM      1  N   UNL     1       8.104   7.351  17.143  0.00  0.00    +0.000 NA
ATOM      2  C   UNL     1       7.060   6.614  17.015  0.00  0.00    +0.000 C 
ATOM      3  N   UNL     1       5.989   6.573  17.902  0.00  0.00    +0.000 NA
ATOM      4  C   UNL     1       5.141   5.694  17.443  0.00  0.00    +0.000 C 
ATOM      5  N   UNL     1       3.937   5.354  18.015  0.00  0.00    +0.000 N 
ATOM      6  C   UNL     1       5.615   5.099  16.191  0.00  0.00    +0.000 A 
ATOM      7  N   UNL     1       4.983   4.209  15.401  0.00  0.00    +0.000 NA
ATOM      8  C   UNL     1       5.708   3.938  14.277  0.00  0.00    +0.000 A 
ATOM      9  C   UNL     1       6.950   4.533  13.993  0.00  0.00    +0.000 A 
ATOM     10  N   UNL     1       7.546   5.440  14.811  0.00  0.00    +0.000 NA
ATOM     11  C   UNL     1       6.816   5.690  15.915  0.00  0.00    +0.000 A 
ATOM     12  H   UNL     1       3.362   4.717  17.468  0.00  0.00    +0.000 HD
ENDROOT
BRANCH   1  13
ATOM     13  C   UNL     1       8.186   8.194  18.339  0.00  0.00    +0.000 C 
BRANCH  13  14
ATOM     14  C   UNL     1       8.131   9.661  17.903  0.00  0.00    +0.000 C 
BRANCH  14  19
ATOM     15  F   UNL     1      12.266  12.751  20.177  0.00  0.00    +0.000 F 
ATOM     16  C   UNL     1      11.286  12.013  19.638  0.00  0.00    +0.000 A 
ATOM     17  C   UNL     1      11.229  11.856  18.258  0.00  0.00    +0.000 A 
ATOM     18  C   UNL     1      10.206  11.091  17.695  0.00  0.00    +0.000 A 
ATOM     19  C   UNL     1       9.238  10.488  18.513  0.00  0.00    +0.000 A 
ATOM     20  C   UNL     1       9.320  10.651  19.904  0.00  0.00    +0.000 A 
ATOM     21  C   UNL     1      10.344  11.417  20.465  0.00  0.00    +0.000 A 
ENDBRANCH  14  19
ENDBRANCH  13  14
ENDBRANCH   1  13
BRANCH   5  22
ATOM     22  C   UNL     1       3.209   6.322  18.832  0.00  0.00    +0.000 C 
BRANCH  22  23
ATOM     23  C   UNL     1       2.822   7.559  18.015  0.00  0.00    +0.000 C 
BRANCH  23  24
ATOM     24  C   UNL     1       1.824   8.440  18.736  0.00  0.00    +0.000 A 
ATOM     25  C   UNL     1       1.123   9.445  18.046  0.00  0.00    +0.000 A 
ATOM     26  C   UNL     1       0.207  10.257  18.720  0.00  0.00    +0.000 A 
ATOM     27  C   UNL     1      -0.004  10.070  20.077  0.00  0.00    +0.000 A 
ATOM     28  F   UNL     1      -0.887  10.851  20.724  0.00  0.00    +0.000 F 
ATOM     29  C   UNL     1       0.681   9.090  20.782  0.00  0.00    +0.000 A 
ATOM     30  C   UNL     1       1.598   8.276  20.110  0.00  0.00    +0.000 A 
ENDBRANCH  23  24
ENDBRANCH  22  23
ENDBRANCH   5  22
TORSDOF 6
ENDMDL
MODEL 2
REMARK VINA RESULT:      -9.1      0.954      1.453
REMARK  Name = 
REMARK  6 active torsions:
REMARK  status: ('A' for Active; 'I' for Inactive)
REMARK    1  A    between atoms: C_5  and  C_6
REMARK    2  A    between atoms: C_6  and  C_7
REMARK    3  A    between atoms: C_7  and  N_8
REMARK    4  A    between atoms: N_12  and  C_13
REMARK    5  A    between atoms: C_13  and  C_14
REMARK    6  A    between atoms: C_14  and  C_15
REMARK                            x       y       z     vdW  Elec       q    Type
REMARK                         _______ _______ _______ _____ _____    ______ ____
ROOT
ATOM      1  N   UNL     1       8.061   7.536  16.983  0.00  0.00    +0.000 NA
ATOM      2  C   UNL     1       7.228   6.562  17.070  0.00  0.00    +0.000 C 
ATOM      3  N   UNL     1       6.449   6.265  18.184  0.00  0.00    +0.000 NA
ATOM      4  C   UNL     1       5.754   5.199  17.896  0.00  0.00    +0.000 C 
ATOM      5  N   UNL     1       4.846   4.577  18.721  0.00  0.00    +0.000 N 
ATOM      6  C   UNL     1       6.040   4.726  16.540  0.00  0.00    +0.000 A 
ATOM      7  N   UNL     1       5.471   3.700  15.879  0.00  0.00    +0.000 NA
ATOM      8  C   UNL     1       5.944   3.604  14.602  0.00  0.00    +0.000 A 
ATOM      9  C   UNL     1       6.896   4.486  14.061  0.00  0.00    +0.000 A 
ATOM     10  N   UNL     1       7.435   5.522  14.757  0.00  0.00    +0.000 NA
ATOM     11  C   UNL     1       6.957   5.594  16.015  0.00  0.00    +0.000 A 
ATOM     12  H   UNL     1       4.328   3.811  18.295  0.00  0.00    +0.000 HD
ENDROOT
BRANCH   1  13
ATOM     13  C   UNL     1       8.224   8.386  18.165  0.00  0.00    +0.000 C 
BRANCH  13  14
ATOM     14  C   UNL     1       8.040   9.846  17.743  0.00  0.00    +0.000 C 
BRANCH  14  19
ATOM     15  F   UNL     1      11.572  13.335  20.420  0.00  0.00    +0.000 F 
ATOM     16  C   UNL     1      10.737  12.504  19.782  0.00  0.00    +0.000 A 
ATOM     17  C   UNL     1      10.294  12.826  18.505  0.00  0.00    +0.000 A 
ATOM     18  C   UNL     1       9.420  11.962  17.842  0.00  0.00    +0.000 A 
ATOM     19  C   UNL     1       8.986  10.780  18.460  0.00  0.00    +0.000 A 
ATOM     20  C   UNL     1       9.453  10.469  19.746  0.00  0.00    +0.000 A 
ATOM     21  C   UNL     1      10.328  11.333  20.408  0.00  0.00    +0.000 A 
ENDBRANCH  14  19
ENDBRANCH  13  14
ENDBRANCH   1  13
BRANCH   5  22
ATOM     22  C   UNL     1       4.126   5.342  19.735  0.00  0.00    +0.000 C 
BRANCH  22  23
ATOM     23  C   UNL     1       2.640   5.473  19.382  0.00  0.00    +0.000 C 
BRANCH  23  24
ATOM     24  C   UNL     1       2.202   6.915  19.245  0.00  0.00    +0.000 A 
ATOM     25  C   UNL     1       1.671   7.612  20.345  0.00  0.00    +0.000 A 
ATOM     26  C   UNL     1       1.264   8.943  20.209  0.00  0.00    +0.000 A 
ATOM     27  C   UNL     1       1.383   9.572  18.980  0.00  0.00    +0.000 A 
ATOM     28  F   UNL     1       0.993  10.852  18.851  0.00  0.00    +0.000 F 
ATOM     29  C   UNL     1       1.898   8.903  17.878  0.00  0.00    +0.000 A 
ATOM     30  C   UNL     1       2.306   7.573  18.011  0.00  0.00    +0.000 A 
ENDBRANCH  23  24
ENDBRANCH  22  23
ENDBRANCH   5  22
TORSDOF 6
ENDMDL
MODEL 3
REMARK VINA RESULT:      -9.1      0.231      1.290
REMARK  Name = 
REMARK  6 active torsions:
REMARK  status: ('A' for Active; 'I' for Inactive)
REMARK    1  A    between atoms: C_5  and  C_6
REMARK    2  A    between atoms: C_6  and  C_7
REMARK    3  A    between atoms: C_7  and  N_8
REMARK    4  A    between atoms: N_12  and  C_13
REMARK    5  A    between atoms: C_13  and  C_14
REMARK    6  A    between atoms: C_14  and  C_15
REMARK                            x       y       z     vdW  Elec       q    Type
REMARK                         _______ _______ _______ _____ _____    ______ ____
ROOT
ATOM      1  N   UNL     1       8.064   7.381  17.104  0.00  0.00    +0.000 NA
ATOM      2  C   UNL     1       7.052   6.595  17.007  0.00  0.00    +0.000 C 
ATOM      3  N   UNL     1       6.016   6.498  17.929  0.00  0.00    +0.000 NA
ATOM      4  C   UNL     1       5.195   5.582  17.494  0.00  0.00    +0.000 C 
ATOM      5  N   UNL     1       4.029   5.182  18.104  0.00  0.00    +0.000 N 
ATOM      6  C   UNL     1       5.655   5.015  16.224  0.00  0.00    +0.000 A 
ATOM      7  N   UNL     1       5.040   4.099  15.450  0.00  0.00    +0.000 NA
ATOM      8  C   UNL     1       5.738   3.867  14.301  0.00  0.00    +0.000 A 
ATOM      9  C   UNL     1       6.939   4.523  13.978  0.00  0.00    +0.000 A 
ATOM     10  N   UNL     1       7.519   5.454  14.781  0.00  0.00    +0.000 NA
ATOM     11  C   UNL     1       6.816   5.664  15.910  0.00  0.00    +0.000 A 
ATOM     12  H   UNL     1       3.467   4.520  17.573  0.00  0.00    +0.000 HD
ENDROOT
BRANCH   1  13
ATOM     13  C   UNL     1       8.146   8.221  18.301  0.00  0.00    +0.000 C 
BRANCH  13  14
ATOM     14  C   UNL     1       8.117   9.689  17.866  0.00  0.00    +0.000 C 
BRANCH  14  19
ATOM     15  F   UNL     1      12.271  12.716  20.189  0.00  0.00    +0.000 F 
ATOM     16  C   UNL     1      11.282  12.001  19.637  0.00  0.00    +0.000 A 
ATOM     17  C   UNL     1      10.349  11.377  20.456  0.00  0.00    +0.000 A 
ATOM     18  C   UNL     1       9.320  10.628  19.882  0.00  0.00    +0.000 A 
ATOM     19  C   UNL     1       9.230  10.500  18.488  0.00  0.00    +0.000 A 
ATOM     20  C   UNL     1      10.176  11.146  17.678  0.00  0.00    +0.000 A 
ATOM     21  C   UNL     1      11.204  11.895  18.254  0.00  0.00    +0.000 A 
ENDBRANCH  14  19
ENDBRANCH  13  14
ENDBRANCH   1  13
BRANCH   5  22
ATOM     22  C   UNL     1       3.284   6.110  18.950  0.00  0.00    +0.000 C 
BRANCH  22  23
ATOM     23  C   UNL     1       2.787   7.317  18.149  0.00  0.00    +0.000 C 
BRANCH  23  24
ATOM     24  C   UNL     1       1.885   8.221  18.961  0.00  0.00    +0.000 A 
ATOM     25  C   UNL     1       1.655   7.968  20.325  0.00  0.00    +0.000 A 
ATOM     26  C   UNL     1       0.817   8.805  21.067  0.00  0.00    +0.000 A 
ATOM     27  C   UNL     1       0.207   9.886  20.450  0.00  0.00    +0.000 A 
ATOM     28  F   UNL     1      -0.597  10.691  21.164  0.00  0.00    +0.000 F 
ATOM     29  C   UNL     1       0.413  10.152  19.102  0.00  0.00    +0.000 A 
ATOM     30  C   UNL     1       1.251   9.317  18.358  0.00  0.00    +0.000 A 
ENDBRANCH  23  24
ENDBRANCH  22  23
ENDBRANCH   5  22
TORSDOF 6
ENDMDL
MODEL 4
REMARK VINA RESULT:      -8.8      2.994      4.991
REMARK  Name = 
REMARK  6 active torsions:
REMARK  status: ('A' for Active; 'I' for Inactive)
REMARK    1  A    between atoms: C_5  and  C_6
REMARK    2  A    between atoms: C_6  and  C_7
REMARK    3  A    between atoms: C_7  and  N_8
REMARK    4  A    between atoms: N_12  and  C_13
REMARK    5  A    between atoms: C_13  and  C_14
REMARK    6  A    between atoms: C_14  and  C_15
REMARK                            x       y       z     vdW  Elec       q    Type
REMARK                         _______ _______ _______ _____ _____    ______ ____
ROOT
ATOM      1  N   UNL     1       4.194   3.652  16.851  0.00  0.00    +0.000 NA
ATOM      2  C   UNL     1       3.561   4.415  17.668  0.00  0.00    +0.000 C 
ATOM      3  N   UNL     1       3.536   5.805  17.618  0.00  0.00    +0.000 NA
ATOM      4  C   UNL     1       2.810   6.216  18.621  0.00  0.00    +0.000 C 
ATOM      5  N   UNL     1       2.521   7.524  18.930  0.00  0.00    +0.000 N 
ATOM      6  C   UNL     1       2.297   5.089  19.404  0.00  0.00    +0.000 A 
ATOM      7  N   UNL     1       1.468   5.121  20.464  0.00  0.00    +0.000 NA
ATOM      8  C   UNL     1       1.151   3.864  20.889  0.00  0.00    +0.000 A 
ATOM      9  C   UNL     1       1.631   2.694  20.274  0.00  0.00    +0.000 A 
ATOM     10  N   UNL     1       2.456   2.705  19.193  0.00  0.00    +0.000 NA
ATOM     11  C   UNL     1       2.758   3.955  18.794  0.00  0.00    +0.000 A 
ATOM     12  H   UNL     1       1.861   7.653  19.695  0.00  0.00    +0.000 HD
ENDROOT
BRANCH   1  13
ATOM     13  C   UNL     1       4.979   4.303  15.799  0.00  0.00    +0.000 C 
BRANCH  13  14
ATOM     14  C   UNL     1       6.465   4.103  16.108  0.00  0.00    +0.000 C 
BRANCH  14  19
ATOM     15  F   UNL     1       8.625   8.321  19.167  0.00  0.00    +0.000 F 
ATOM     16  C   UNL     1       8.108   7.320  18.442  0.00  0.00    +0.000 A 
ATOM     17  C   UNL     1       8.124   6.027  18.952  0.00  0.00    +0.000 A 
ATOM     18  C   UNL     1       7.589   4.983  18.195  0.00  0.00    +0.000 A 
ATOM     19  C   UNL     1       7.044   5.233  16.927  0.00  0.00    +0.000 A 
ATOM     20  C   UNL     1       7.028   6.547  16.436  0.00  0.00    +0.000 A 
ATOM     21  C   UNL     1       7.563   7.590  17.194  0.00  0.00    +0.000 A 
ENDBRANCH  14  19
ENDBRANCH  13  14
ENDBRANCH   1  13
BRANCH   5  22
ATOM     22  C   UNL     1       2.479   8.538  17.880  0.00  0.00    +0.000 C 
BRANCH  22  23
ATOM     23  C   UNL     1       1.104   9.212  17.811  0.00  0.00    +0.000 C 
BRANCH  23  24
ATOM     24  C   UNL     1       0.920  10.264  18.883  0.00  0.00    +0.000 A 
ATOM     25  C   UNL     1       1.567  11.509  18.787  0.00  0.00    +0.000 A 
ATOM     26  C   UNL     1       1.395  12.473  19.784  0.00  0.00    +0.000 A 
ATOM     27  C   UNL     1       0.585  12.194  20.874  0.00  0.00    +0.000 A 
ATOM     28  F   UNL     1       0.419  13.123  21.831  0.00  0.00    +0.000 F 
ATOM     29  C   UNL     1      -0.059  10.969  20.995  0.00  0.00    +0.000 A 
ATOM     30  C   UNL     1       0.111  10.003  20.000  0.00  0.00    +0.000 A 
ENDBRANCH  23  24
ENDBRANCH  22  23
ENDBRANCH   5  22
TORSDOF 6
ENDMDL
MODEL 5
REMARK VINA RESULT:      -8.8      2.998      7.548
REMARK  Name = 
REMARK  6 active torsions:
REMARK  status: ('A' for Active; 'I' for Inactive)
REMARK    1  A    between atoms: C_5  and  C_6
REMARK    2  A    between atoms: C_6  and  C_7
REMARK    3  A    between atoms: C_7  and  N_8
REMARK    4  A    between atoms: N_12  and  C_13
REMARK    5  A    between atoms: C_13  and  C_14
REMARK    6  A    between atoms: C_14  and  C_15
REMARK                            x       y       z     vdW  Elec       q    Type
REMARK                         _______ _______ _______ _____ _____    ______ ____
ROOT
ATOM      1  N   UNL     1       2.315   7.393  19.225  0.00  0.00    +0.000 NA
ATOM      2  C   UNL     1       2.667   6.193  18.934  0.00  0.00    +0.000 C 
ATOM      3  N   UNL     1       3.247   5.791  17.735  0.00  0.00    +0.000 NA
ATOM      4  C   UNL     1       3.438   4.503  17.811  0.00  0.00    +0.000 C 
ATOM      5  N   UNL     1       4.001   3.708  16.839  0.00  0.00    +0.000 N 
ATOM      6  C   UNL     1       2.989   3.972  19.101  0.00  0.00    +0.000 A 
ATOM      7  N   UNL     1       3.084   2.709  19.559  0.00  0.00    +0.000 NA
ATOM      8  C   UNL     1       2.622   2.607  20.839  0.00  0.00    +0.000 A 
ATOM      9  C   UNL     1       2.125   3.699  21.573  0.00  0.00    +0.000 A 
ATOM     10  N   UNL     1       2.061   4.963  21.078  0.00  0.00    +0.000 NA
ATOM     11  C   UNL     1       2.518   5.039  19.813  0.00  0.00    +0.000 A 
ATOM     12  H   UNL     1       4.157   2.739  17.108  0.00  0.00    +0.000 HD
ENDROOT
BRANCH   1  13
ATOM     13  C   UNL     1       2.513   8.417  18.196  0.00  0.00    +0.000 C 
BRANCH  13  14
ATOM     14  C   UNL     1       1.187   9.154  17.983  0.00  0.00    +0.000 C 
BRANCH  14  19
ATOM     15  F   UNL     1       0.247  13.091  21.911  0.00  0.00    +0.000 F 
ATOM     16  C   UNL     1       0.466  12.157  20.976  0.00  0.00    +0.000 A 
ATOM     17  C   UNL     1      -0.099  10.896  21.122  0.00  0.00    +0.000 A 
ATOM     18  C   UNL     1       0.134   9.921  20.150  0.00  0.00    +0.000 A 
ATOM     19  C   UNL     1       0.935  10.208  19.035  0.00  0.00    +0.000 A 
ATOM     20  C   UNL     1       1.488  11.491  18.901  0.00  0.00    +0.000 A 
ATOM     21  C   UNL     1       1.254  12.465  19.875  0.00  0.00    +0.000 A 
ENDBRANCH  14  19
ENDBRANCH  13  14
ENDBRANCH   1  13
BRANCH   5  22
ATOM     22  C   UNL     1       4.968   4.268  15.899  0.00  0.00    +0.000 C 
BRANCH  22  23
ATOM     23  C   UNL     1       6.406   4.014  16.363  0.00  0.00    +0.000 C 
BRANCH  23  24
ATOM     24  C   UNL     1       7.001   5.206  17.082  0.00  0.00    +0.000 A 
ATOM     25  C   UNL     1       6.999   6.479  16.486  0.00  0.00    +0.000 A 
ATOM     26  C   UNL     1       7.555   7.573  17.155  0.00  0.00    +0.000 A 
ATOM     27  C   UNL     1       8.115   7.396  18.410  0.00  0.00    +0.000 A 
ATOM     28  F   UNL     1       8.648   8.449  19.053  0.00  0.00    +0.000 F 
ATOM     29  C   UNL     1       8.135   6.147  19.017  0.00  0.00    +0.000 A 
ATOM     30  C   UNL     1       7.580   5.051  18.350  0.00  0.00    +0.000 A 
ENDBRANCH  23  24
ENDBRANCH  22  23
ENDBRANCH   5  22
TORSDOF 6
ENDMDL
MODEL 6
REMARK VINA RESULT:      -8.7      3.089      5.020
REMARK  Name = 
REMARK  6 active torsions:
REMARK  status: ('A' for Active; 'I' for Inactive)
REMARK    1  A    between atoms: C_5  and  C_6
REMARK    2  A    between atoms: C_6  and  C_7
REMARK    3  A    between atoms: C_7  and  N_8
REMARK    4  A    between atoms: N_12  and  C_13
REMARK    5  A    between atoms: C_13  and  C_14
REMARK    6  A    between atoms: C_14  and  C_15
REMARK                            x       y       z     vdW  Elec       q    Type
REMARK                         _______ _______ _______ _____ _____    ______ ____
ROOT
ATOM      1  N   UNL     1       4.398   3.505  17.145  0.00  0.00    +0.000 NA
ATOM      2  C   UNL     1       3.763   4.274  17.954  0.00  0.00    +0.000 C 
ATOM      3  N   UNL     1       3.450   5.609  17.719  0.00  0.00    +0.000 NA
ATOM      4  C   UNL     1       2.826   6.052  18.775  0.00  0.00    +0.000 C 
ATOM      5  N   UNL     1       2.332   7.323  18.951  0.00  0.00    +0.000 N 
ATOM      6  C   UNL     1       2.683   5.003  19.789  0.00  0.00    +0.000 A 
ATOM      7  N   UNL     1       2.044   5.072  20.972  0.00  0.00    +0.000 NA
ATOM      8  C   UNL     1       2.059   3.870  21.618  0.00  0.00    +0.000 A 
ATOM      9  C   UNL     1       2.661   2.714  21.089  0.00  0.00    +0.000 A 
ATOM     10  N   UNL     1       3.283   2.683  19.881  0.00  0.00    +0.000 NA
ATOM     11  C   UNL     1       3.259   3.880  19.264  0.00  0.00    +0.000 A 
ATOM     12  H   UNL     1       1.790   7.464  19.801  0.00  0.00    +0.000 HD
ENDROOT
BRANCH   1  13
ATOM     13  C   UNL     1       4.857   4.092  15.884  0.00  0.00    +0.000 C 
BRANCH  13  14
ATOM     14  C   UNL     1       6.389   4.082  15.873  0.00  0.00    +0.000 C 
BRANCH  14  19
ATOM     15  F   UNL     1       8.603   8.017  19.253  0.00  0.00    +0.000 F 
ATOM     16  C   UNL     1       8.073   7.083  18.452  0.00  0.00    +0.000 A 
ATOM     17  C   UNL     1       8.078   5.754  18.855  0.00  0.00    +0.000 A 
ATOM     18  C   UNL     1       7.530   4.779  18.019  0.00  0.00    +0.000 A 
ATOM     19  C   UNL     1       6.981   5.136  16.778  0.00  0.00    +0.000 A 
ATOM     20  C   UNL     1       6.977   6.486  16.395  0.00  0.00    +0.000 A 
ATOM     21  C   UNL     1       7.526   7.459  17.233  0.00  0.00    +0.000 A 
ENDBRANCH  14  19
ENDBRANCH  13  14
ENDBRANCH   1  13
BRANCH   5  22
ATOM     22  C   UNL     1       1.919   8.120  17.799  0.00  0.00    +0.000 C 
BRANCH  22  23
ATOM     23  C   UNL     1       2.092   9.618  18.067  0.00  0.00    +0.000 C 
BRANCH  23  24
ATOM     24  C   UNL     1       0.907  10.218  18.793  0.00  0.00    +0.000 A 
ATOM     25  C   UNL     1      -0.308  10.444  18.121  0.00  0.00    +0.000 A 
ATOM     26  C   UNL     1      -1.396  11.003  18.798  0.00  0.00    +0.000 A 
ATOM     27  C   UNL     1      -1.271  11.338  20.136  0.00  0.00    +0.000 A 
ATOM     28  F   UNL     1      -2.319  11.872  20.787  0.00  0.00    +0.000 F 
ATOM     29  C   UNL     1      -0.080  11.130  20.820  0.00  0.00    +0.000 A 
ATOM     30  C   UNL     1       1.010  10.571  20.146  0.00  0.00    +0.000 A 
ENDBRANCH  23  24
ENDBRANCH  22  23
ENDBRANCH   5  22
TORSDOF 6
ENDMDL
MODEL 7
REMARK VINA RESULT:      -8.7      3.129      8.156
REMARK  Name = 
REMARK  6 active torsions:
REMARK  status: ('A' for Active; 'I' for Inactive)
REMARK    1  A    between atoms: C_5  and  C_6
REMARK    2  A    between atoms: C_6  and  C_7
REMARK    3  A    between atoms: C_7  and  N_8
REMARK    4  A    between atoms: N_12  and  C_13
REMARK    5  A    between atoms: C_13  and  C_14
REMARK    6  A    between atoms: C_14  and  C_15
REMARK                            x       y       z     vdW  Elec       q    Type
REMARK                         _______ _______ _______ _____ _____    ______ ____
ROOT
ATOM      1  N   UNL     1       2.052   7.368  19.105  0.00  0.00    +0.000 NA
ATOM      2  C   UNL     1       2.501   6.190  18.859  0.00  0.00    +0.000 C 
ATOM      3  N   UNL     1       3.085   5.783  17.664  0.00  0.00    +0.000 NA
ATOM      4  C   UNL     1       3.390   4.521  17.793  0.00  0.00    +0.000 C 
ATOM      5  N   UNL     1       3.997   3.734  16.843  0.00  0.00    +0.000 N 
ATOM      6  C   UNL     1       3.019   4.015  19.117  0.00  0.00    +0.000 A 
ATOM      7  N   UNL     1       3.235   2.789  19.629  0.00  0.00    +0.000 NA
ATOM      8  C   UNL     1       2.813   2.708  20.925  0.00  0.00    +0.000 A 
ATOM      9  C   UNL     1       2.240   3.786  21.622  0.00  0.00    +0.000 A 
ATOM     10  N   UNL     1       2.054   5.015  21.072  0.00  0.00    +0.000 NA
ATOM     11  C   UNL     1       2.473   5.071  19.793  0.00  0.00    +0.000 A 
ATOM     12  H   UNL     1       4.244   2.795  17.152  0.00  0.00    +0.000 HD
ENDROOT
BRANCH   1  13
ATOM     13  C   UNL     1       2.135   8.355  18.026  0.00  0.00    +0.000 C 
BRANCH  13  14
ATOM     14  C   UNL     1       1.975   9.752  18.632  0.00  0.00    +0.000 C 
BRANCH  14  19
ATOM     15  F   UNL     1      -3.209  11.849  17.899  0.00  0.00    +0.000 F 
ATOM     16  C   UNL     1      -1.980  11.349  18.076  0.00  0.00    +0.000 A 
ATOM     17  C   UNL     1      -1.050  12.067  18.818  0.00  0.00    +0.000 A 
ATOM     18  C   UNL     1       0.234  11.548  19.001  0.00  0.00    +0.000 A 
ATOM     19  C   UNL     1       0.586  10.314  18.435  0.00  0.00    +0.000 A 
ATOM     20  C   UNL     1      -0.370   9.599  17.698  0.00  0.00    +0.000 A 
ATOM     21  C   UNL     1      -1.654  10.120  17.517  0.00  0.00    +0.000 A 
ENDBRANCH  14  19
ENDBRANCH  13  14
ENDBRANCH   1  13
BRANCH   5  22
ATOM     22  C   UNL     1       4.890   4.329  15.852  0.00  0.00    +0.000 C 
BRANCH  22  23
ATOM     23  C   UNL     1       6.360   4.074  16.203  0.00  0.00    +0.000 C 
BRANCH  23  24
ATOM     24  C   UNL     1       6.972   5.210  16.993  0.00  0.00    +0.000 A 
ATOM     25  C   UNL     1       7.011   6.513  16.465  0.00  0.00    +0.000 A 
ATOM     26  C   UNL     1       7.584   7.556  17.200  0.00  0.00    +0.000 A 
ATOM     27  C   UNL     1       8.118   7.299  18.452  0.00  0.00    +0.000 A 
ATOM     28  F   UNL     1       8.666   8.302  19.159  0.00  0.00    +0.000 F 
ATOM     29  C   UNL     1       8.097   6.019  18.992  0.00  0.00    +0.000 A 
ATOM     30  C   UNL     1       7.526   4.975  18.260  0.00  0.00    +0.000 A 
ENDBRANCH  23  24
ENDBRANCH  22  23
ENDBRANCH   5  22
TORSDOF 6
ENDMDL
MODEL 8
REMARK VINA RESULT:      -8.6      4.215      5.780
REMARK  Name = 
REMARK  6 active torsions:
REMARK  status: ('A' for Active; 'I' for Inactive)
REMARK    1  A    between atoms: C_5  and  C_6
REMARK    2  A    between atoms: C_6  and  C_7
REMARK    3  A    between atoms: C_7  and  N_8
REMARK    4  A    between atoms: N_12  and  C_13
REMARK    5  A    between atoms: C_13  and  C_14
REMARK    6  A    between atoms: C_14  and  C_15
REMARK                            x       y       z     vdW  Elec       q    Type
REMARK                         _______ _______ _______ _____ _____    ______ ____
ROOT
ATOM      1  N   UNL     1       5.890   4.393  19.094  0.00  0.00    +0.000 NA
ATOM      2  C   UNL     1       4.633   4.525  19.325  0.00  0.00    +0.000 C 
ATOM      3  N   UNL     1       4.026   5.661  19.850  0.00  0.00    +0.000 NA
ATOM      4  C   UNL     1       2.751   5.403  19.956  0.00  0.00    +0.000 C 
ATOM      5  N   UNL     1       1.786   6.265  20.423  0.00  0.00    +0.000 N 
ATOM      6  C   UNL     1       2.440   4.050  19.489  0.00  0.00    +0.000 A 
ATOM      7  N   UNL     1       1.233   3.461  19.390  0.00  0.00    +0.000 NA
ATOM      8  C   UNL     1       1.329   2.215  18.842  0.00  0.00    +0.000 A 
ATOM      9  C   UNL     1       2.545   1.642  18.427  0.00  0.00    +0.000 A 
ATOM     10  N   UNL     1       3.742   2.278  18.530  0.00  0.00    +0.000 NA
ATOM     11  C   UNL     1       3.624   3.503  19.077  0.00  0.00    +0.000 A 
ATOM     12  H   UNL     1       0.829   5.926  20.348  0.00  0.00    +0.000 HD
ENDROOT
BRANCH   1  13
ATOM     13  C   UNL     1       6.757   5.522  19.442  0.00  0.00    +0.000 C 
BRANCH  13  14
ATOM     14  C   UNL     1       7.526   5.947  18.188  0.00  0.00    +0.000 C 
BRANCH  14  19
ATOM     15  F   UNL     1       4.981   4.311  13.429  0.00  0.00    +0.000 F 
ATOM     16  C   UNL     1       5.583   4.697  14.562  0.00  0.00    +0.000 A 
ATOM     17  C   UNL     1       5.182   5.874  15.181  0.00  0.00    +0.000 A 
ATOM     18  C   UNL     1       5.812   6.280  16.360  0.00  0.00    +0.000 A 
ATOM     19  C   UNL     1       6.845   5.509  16.914  0.00  0.00    +0.000 A 
ATOM     20  C   UNL     1       7.227   4.318  16.278  0.00  0.00    +0.000 A 
ATOM     21  C   UNL     1       6.596   3.914  15.099  0.00  0.00    +0.000 A 
ENDBRANCH  14  19
ENDBRANCH  13  14
ENDBRANCH   1  13
BRANCH   5  22
ATOM     22  C   UNL     1       1.959   7.709  20.287  0.00  0.00    +0.000 C 
BRANCH  22  23
ATOM     23  C   UNL     1       1.073   8.470  21.279  0.00  0.00    +0.000 C 
BRANCH  23  24
ATOM     24  C   UNL     1       0.340   9.626  20.632  0.00  0.00    +0.000 A 
ATOM     25  C   UNL     1      -0.392  10.539  21.412  0.00  0.00    +0.000 A 
ATOM     26  C   UNL     1      -1.070  11.600  20.805  0.00  0.00    +0.000 A 
ATOM     27  C   UNL     1      -1.022  11.746  19.428  0.00  0.00    +0.000 A 
ATOM     28  F   UNL     1      -1.672  12.769  18.846  0.00  0.00    +0.000 F 
ATOM     29  C   UNL     1      -0.311  10.853  18.636  0.00  0.00    +0.000 A 
ATOM     30  C   UNL     1       0.368   9.791  19.239  0.00  0.00    +0.000 A 
ENDBRANCH  23  24
ENDBRANCH  22  23
ENDBRANCH   5  22
TORSDOF 6
ENDMDL
MODEL 9
REMARK VINA RESULT:      -8.6      3.180      5.165
REMARK  Name = 
REMARK  6 active torsions:
REMARK  status: ('A' for Active; 'I' for Inactive)
REMARK    1  A    between atoms: C_5  and  C_6
REMARK    2  A    between atoms: C_6  and  C_7
REMARK    3  A    between atoms: C_7  and  N_8
REMARK    4  A    between atoms: N_12  and  C_13
REMARK    5  A    between atoms: C_13  and  C_14
REMARK    6  A    between atoms: C_14  and  C_15
REMARK                            x       y       z     vdW  Elec       q    Type
REMARK                         _______ _______ _______ _____ _____    ______ ____
ROOT
ATOM      1  N   UNL     1       4.160   3.573  16.907  0.00  0.00    +0.000 NA
ATOM      2  C   UNL     1       3.523   4.303  17.749  0.00  0.00    +0.000 C 
ATOM      3  N   UNL     1       3.456   5.692  17.724  0.00  0.00    +0.000 NA
ATOM      4  C   UNL     1       2.740   6.064  18.749  0.00  0.00    +0.000 C 
ATOM      5  N   UNL     1       2.419   7.358  19.087  0.00  0.00    +0.000 N 
ATOM      6  C   UNL     1       2.278   4.909  19.523  0.00  0.00    +0.000 A 
ATOM      7  N   UNL     1       1.471   4.900  20.601  0.00  0.00    +0.000 NA
ATOM      8  C   UNL     1       1.200   3.626  21.011  0.00  0.00    +0.000 A 
ATOM      9  C   UNL     1       1.702   2.482  20.366  0.00  0.00    +0.000 A 
ATOM     10  N   UNL     1       2.502   2.535  19.268  0.00  0.00    +0.000 NA
ATOM     11  C   UNL     1       2.758   3.800  18.885  0.00  0.00    +0.000 A 
ATOM     12  H   UNL     1       1.772   7.454  19.867  0.00  0.00    +0.000 HD
ENDROOT
BRANCH   1  13
ATOM     13  C   UNL     1       4.902   4.264  15.849  0.00  0.00    +0.000 C 
BRANCH  13  14
ATOM     14  C   UNL     1       6.400   4.066  16.099  0.00  0.00    +0.000 C 
BRANCH  14  19
ATOM     15  F   UNL     1       8.635   8.200  19.219  0.00  0.00    +0.000 F 
ATOM     16  C   UNL     1       8.109   7.217  18.476  0.00  0.00    +0.000 A 
ATOM     17  C   UNL     1       7.584   7.512  17.224  0.00  0.00    +0.000 A 
ATOM     18  C   UNL     1       7.031   6.489  16.451  0.00  0.00    +0.000 A 
ATOM     19  C   UNL     1       6.999   5.173  16.935  0.00  0.00    +0.000 A 
ATOM     20  C   UNL     1       7.543   4.894  18.198  0.00  0.00    +0.000 A 
ATOM     21  C   UNL     1       8.096   5.919  18.969  0.00  0.00    +0.000 A 
ENDBRANCH  14  19
ENDBRANCH  13  14
ENDBRANCH   1  13
BRANCH   5  22
ATOM     22  C   UNL     1       2.324   8.388  18.055  0.00  0.00    +0.000 C 
BRANCH  22  23
ATOM     23  C   UNL     1       0.959   9.082  18.086  0.00  0.00    +0.000 C 
BRANCH  23  24
ATOM     24  C   UNL     1       1.074  10.581  18.255  0.00  0.00    +0.000 A 
ATOM     25  C   UNL     1       2.311  11.229  18.089  0.00  0.00    +0.000 A 
ATOM     26  C   UNL     1       2.410  12.614  18.253  0.00  0.00    +0.000 A 
ATOM     27  C   UNL     1       1.281  13.347  18.585  0.00  0.00    +0.000 A 
ATOM     28  F   UNL     1       1.377  14.679  18.740  0.00  0.00    +0.000 F 
ATOM     29  C   UNL     1       0.050  12.728  18.761  0.00  0.00    +0.000 A 
ATOM     30  C   UNL     1      -0.052  11.344  18.598  0.00  0.00    +0.000 A 
ENDBRANCH  23  24
ENDBRANCH  22  23
ENDBRANCH   5  22
TORSDOF 6
ENDMDL
