MODEL 1
REMARK VINA RESULT:      -7.9      0.000      0.000
REMARK  Name = 
REMARK  4 active torsions:
REMARK  status: ('A' for Active; 'I' for Inactive)
REMARK    1  A    between atoms: O_1  and  C_2
REMARK    2  A    between atoms: C_4  and  N_5
REMARK    3  A    between atoms: N_5  and  C_6
REMARK    4  A    between atoms: C_14  and  O_15
REMARK                            x       y       z     vdW  Elec       q    Type
REMARK                         _______ _______ _______ _____ _____    ______ ____
ROOT
ATOM      1  C   UNL     1       7.287   6.534  17.610  0.00  0.00    +0.000 A 
ATOM      2  C   UNL     1       6.126   5.833  17.382  0.00  0.00    +0.000 A 
ATOM      3  C   UNL     1       5.675   5.029  18.416  0.00  0.00    +0.000 A 
ATOM      4  N   UNL     1       6.381   4.897  19.549  0.00  0.00    +0.000 NA
ATOM      5  C   UNL     1       7.508   5.609  19.626  0.00  0.00    +0.000 A 
ATOM      6  N   UNL     1       8.006   6.447  18.724  0.00  0.00    +0.000 NA
ENDROOT
BRANCH   1   7
ATOM      7  O   UNL     1       7.783   7.397  16.675  0.00  0.00    +0.000 OA
ATOM      8  H   UNL     1       7.215   8.180  16.637  0.00  0.00    +0.000 HD
ENDBRANCH   1   7
BRANCH   3   9
ATOM      9  N   UNL     1       4.505   4.281  18.219  0.00  0.00    +0.000 N 
ATOM     10  H   UNL     1       4.514   3.783  17.335  0.00  0.00    +0.000 HD
BRANCH   9  11
ATOM     11  C   UNL     1       3.215   4.962  18.446  0.00  0.00    +0.000 C 
ATOM     12  C   UNL     1       2.072   4.221  17.722  0.00  0.00    +0.000 C 
ATOM     13  C   UNL     1       1.688   2.849  18.278  0.00  0.00    +0.000 C 
ATOM     14  C   UNL     1       0.701   2.889  19.440  0.00  0.00    +0.000 C 
ATOM     15  C   UNL     1       1.194   3.574  20.708  0.00  0.00    +0.000 C 
ATOM     16  C   UNL     1       1.627   5.026  20.520  0.00  0.00    +0.000 C 
ATOM     17  C   UNL     1       3.044   5.148  19.965  0.00  0.00    +0.000 C 
ENDBRANCH   9  11
ENDBRANCH   3   9
BRANCH   5  18
ATOM     18  O   UNL     1       8.234   5.404  20.757  0.00  0.00    +0.000 OA
ATOM     19  H   UNL     1       8.144   4.439  20.817  0.00  0.00    +0.000 HD
ENDBRANCH   5  18
TORSDOF 4
ENDMDL
MODEL 2
REMARK VINA RESULT:      -7.6      1.923      2.390
REMARK  Name = 
REMARK  4 active torsions:
REMARK  status: ('A' for Active; 'I' for Inactive)
REMARK    1  A    between atoms: O_1  and  C_2
REMARK    2  A    between atoms: C_4  and  N_5
REMARK    3  A    between atoms: N_5  and  C_6
REMARK    4  A    between atoms: C_14  and  O_15
REMARK                            x       y       z     vdW  Elec       q    Type
REMARK                         _______ _______ _______ _____ _____    ______ ____
ROOT
ATOM      1  C   UNL     1       6.375   4.254  15.152  0.00  0.00    +0.000 A 
ATOM      2  C   UNL     1       5.503   3.781  16.104  0.00  0.00    +0.000 A 
ATOM      3  C   UNL     1       5.388   4.529  17.265  0.00  0.00    +0.000 A 
ATOM      4  N   UNL     1       6.145   5.618  17.464  0.00  0.00    +0.000 NA
ATOM      5  C   UNL     1       6.975   5.948  16.472  0.00  0.00    +0.000 A 
ATOM      6  N   UNL     1       7.129   5.339  15.302  0.00  0.00    +0.000 NA
ENDROOT
BRANCH   1   7
ATOM      7  O   UNL     1       6.517   3.621  13.951  0.00  0.00    +0.000 OA
ATOM      8  H   UNL     1       7.206   2.945  14.030  0.00  0.00    +0.000 HD
ENDBRANCH   1   7
BRANCH   3   9
ATOM      9  N   UNL     1       4.525   4.073  18.272  0.00  0.00    +0.000 N 
ATOM     10  H   UNL     1       4.376   3.070  18.221  0.00  0.00    +0.000 HD
BRANCH   9  11
ATOM     11  C   UNL     1       3.255   4.802  18.462  0.00  0.00    +0.000 C 
ATOM     12  C   UNL     1       2.099   4.081  17.739  0.00  0.00    +0.000 C 
ATOM     13  C   UNL     1       1.661   2.736  18.322  0.00  0.00    +0.000 C 
ATOM     14  C   UNL     1       0.660   2.837  19.468  0.00  0.00    +0.000 C 
ATOM     15  C   UNL     1       1.157   3.538  20.726  0.00  0.00    +0.000 C 
ATOM     16  C   UNL     1       1.640   4.969  20.509  0.00  0.00    +0.000 C 
ATOM     17  C   UNL     1       3.068   5.031  19.973  0.00  0.00    +0.000 C 
ENDBRANCH   9  11
ENDBRANCH   3   9
BRANCH   5  18
ATOM     18  O   UNL     1       7.775   7.017  16.730  0.00  0.00    +0.000 OA
ATOM     19  H   UNL     1       8.278   7.028  15.899  0.00  0.00    +0.000 HD
ENDBRANCH   5  18
TORSDOF 4
ENDMDL
MODEL 3
REMARK VINA RESULT:      -7.4      0.887      1.697
REMARK  Name = 
REMARK  4 active torsions:
REMARK  status: ('A' for Active; 'I' for Inactive)
REMARK    1  A    between atoms: O_1  and  C_2
REMARK    2  A    between atoms: C_4  and  N_5
REMARK    3  A    between atoms: N_5  and  C_6
REMARK    4  A    between atoms: C_14  and  O_15
REMARK                            x       y       z     vdW  Elec       q    Type
REMARK                         _______ _______ _______ _____ _____    ______ ____
ROOT
ATOM      1  C   UNL     1       7.302   6.970  17.810  0.00  0.00    +0.000 A 
ATOM      2  C   UNL     1       6.083   6.382  17.566  0.00  0.00    +0.000 A 
ATOM      3  C   UNL     1       5.652   5.443  18.489  0.00  0.00    +0.000 A 
ATOM      4  N   UNL     1       6.426   5.085  19.525  0.00  0.00    +0.000 NA
ATOM      5  C   UNL     1       7.601   5.711  19.625  0.00  0.00    +0.000 A 
ATOM      6  N   UNL     1       8.090   6.658  18.833  0.00  0.00    +0.000 NA
ENDROOT
BRANCH   1   7
ATOM      7  O   UNL     1       7.788   7.948  16.990  0.00  0.00    +0.000 OA
ATOM      8  H   UNL     1       8.499   8.418  17.449  0.00  0.00    +0.000 HD
ENDBRANCH   1   7
BRANCH   3   9
ATOM      9  N   UNL     1       4.424   4.803  18.269  0.00  0.00    +0.000 N 
ATOM     10  H   UNL     1       3.669   5.466  18.123  0.00  0.00    +0.000 HD
BRANCH   9  11
ATOM     11  C   UNL     1       4.034   3.736  19.212  0.00  0.00    +0.000 C 
ATOM     12  C   UNL     1       3.193   4.311  20.370  0.00  0.00    +0.000 C 
ATOM     13  C   UNL     1       1.788   4.804  20.015  0.00  0.00    +0.000 C 
ATOM     14  C   UNL     1       0.719   3.716  20.000  0.00  0.00    +0.000 C 
ATOM     15  C   UNL     1       0.901   2.620  18.959  0.00  0.00    +0.000 C 
ATOM     16  C   UNL     1       2.221   1.860  19.057  0.00  0.00    +0.000 C 
ATOM     17  C   UNL     1       3.378   2.607  18.397  0.00  0.00    +0.000 C 
ENDBRANCH   9  11
ENDBRANCH   3   9
BRANCH   5  18
ATOM     18  O   UNL     1       8.390   5.280  20.645  0.00  0.00    +0.000 OA
ATOM     19  H   UNL     1       8.949   6.069  20.743  0.00  0.00    +0.000 HD
ENDBRANCH   5  18
TORSDOF 4
ENDMDL
MODEL 4
REMARK VINA RESULT:      -7.4      1.599      2.340
REMARK  Name = 
REMARK  4 active torsions:
REMARK  status: ('A' for Active; 'I' for Inactive)
REMARK    1  A    between atoms: O_1  and  C_2
REMARK    2  A    between atoms: C_4  and  N_5
REMARK    3  A    between atoms: N_5  and  C_6
REMARK    4  A    between atoms: C_14  and  O_15
REMARK                            x       y       z     vdW  Elec       q    Type
REMARK                         _______ _______ _______ _____ _____    ______ ____
ROOT
ATOM      1  C   UNL     1       7.019   6.355  16.869  0.00  0.00    +0.000 A 
ATOM      2  C   UNL     1       6.159   5.886  17.835  0.00  0.00    +0.000 A 
ATOM      3  C   UNL     1       5.543   4.672  17.579  0.00  0.00    +0.000 A 
ATOM      4  N   UNL     1       5.731   4.031  16.416  0.00  0.00    +0.000 NA
ATOM      5  C   UNL     1       6.566   4.614  15.552  0.00  0.00    +0.000 A 
ATOM      6  N   UNL     1       7.248   5.742  15.712  0.00  0.00    +0.000 NA
ENDROOT
BRANCH   1   7
ATOM      7  O   UNL     1       7.718   7.513  17.052  0.00  0.00    +0.000 OA
ATOM      8  H   UNL     1       8.241   7.441  17.864  0.00  0.00    +0.000 HD
ENDBRANCH   1   7
BRANCH   3   9
ATOM      9  N   UNL     1       4.643   4.166  18.528  0.00  0.00    +0.000 N 
ATOM     10  H   UNL     1       4.544   3.158  18.462  0.00  0.00    +0.000 HD
BRANCH   9  11
ATOM     11  C   UNL     1       3.331   4.834  18.644  0.00  0.00    +0.000 C 
ATOM     12  C   UNL     1       2.289   4.152  17.734  0.00  0.00    +0.000 C 
ATOM     13  C   UNL     1       1.847   2.744  18.137  0.00  0.00    +0.000 C 
ATOM     14  C   UNL     1       0.726   2.702  19.169  0.00  0.00    +0.000 C 
ATOM     15  C   UNL     1       1.056   3.291  20.534  0.00  0.00    +0.000 C 
ATOM     16  C   UNL     1       1.501   4.751  20.508  0.00  0.00    +0.000 C 
ATOM     17  C   UNL     1       2.974   4.909  20.140  0.00  0.00    +0.000 C 
ENDBRANCH   9  11
ENDBRANCH   3   9
BRANCH   5  18
ATOM     18  O   UNL     1       6.686   3.975  14.357  0.00  0.00    +0.000 OA
ATOM     19  H   UNL     1       6.292   3.123  14.606  0.00  0.00    +0.000 HD
ENDBRANCH   5  18
TORSDOF 4
ENDMDL
MODEL 5
REMARK VINA RESULT:      -7.3      1.550      2.571
REMARK  Name = 
REMARK  4 active torsions:
REMARK  status: ('A' for Active; 'I' for Inactive)
REMARK    1  A    between atoms: O_1  and  C_2
REMARK    2  A    between atoms: C_4  and  N_5
REMARK    3  A    between atoms: N_5  and  C_6
REMARK    4  A    between atoms: C_14  and  O_15
REMARK                            x       y       z     vdW  Elec       q    Type
REMARK                         _______ _______ _______ _____ _____    ______ ____
ROOT
ATOM      1  C   UNL     1       7.184   5.265  19.344  0.00  0.00    +0.000 A 
ATOM      2  C   UNL     1       5.809   5.244  19.367  0.00  0.00    +0.000 A 
ATOM      3  C   UNL     1       5.176   4.849  18.199  0.00  0.00    +0.000 A 
ATOM      4  N   UNL     1       5.879   4.572  17.090  0.00  0.00    +0.000 NA
ATOM      5  C   UNL     1       7.207   4.664  17.197  0.00  0.00    +0.000 A 
ATOM      6  N   UNL     1       7.918   4.979  18.273  0.00  0.00    +0.000 NA
ENDROOT
BRANCH   1   7
ATOM      7  O   UNL     1       7.901   5.583  20.461  0.00  0.00    +0.000 OA
ATOM      8  H   UNL     1       8.270   6.473  20.356  0.00  0.00    +0.000 HD
ENDBRANCH   1   7
BRANCH   3   9
ATOM      9  N   UNL     1       3.774   4.833  18.170  0.00  0.00    +0.000 N 
ATOM     10  H   UNL     1       3.371   5.429  18.886  0.00  0.00    +0.000 HD
BRANCH   9  11
ATOM     11  C   UNL     1       3.110   3.515  18.122  0.00  0.00    +0.000 C 
ATOM     12  C   UNL     1       3.567   2.631  19.300  0.00  0.00    +0.000 C 
ATOM     13  C   UNL     1       3.100   3.054  20.695  0.00  0.00    +0.000 C 
ATOM     14  C   UNL     1       1.710   2.554  21.077  0.00  0.00    +0.000 C 
ATOM     15  C   UNL     1       0.559   3.076  20.227  0.00  0.00    +0.000 C 
ATOM     16  C   UNL     1       0.680   2.774  18.735  0.00  0.00    +0.000 C 
ATOM     17  C   UNL     1       1.594   3.759  18.010  0.00  0.00    +0.000 C 
ENDBRANCH   9  11
ENDBRANCH   3   9
BRANCH   5  18
ATOM     18  O   UNL     1       7.887   4.441  16.041  0.00  0.00    +0.000 OA
ATOM     19  H   UNL     1       7.137   4.450  15.424  0.00  0.00    +0.000 HD
ENDBRANCH   5  18
TORSDOF 4
ENDMDL
MODEL 6
REMARK VINA RESULT:      -7.3      1.539      1.878
REMARK  Name = 
REMARK  4 active torsions:
REMARK  status: ('A' for Active; 'I' for Inactive)
REMARK    1  A    between atoms: O_1  and  C_2
REMARK    2  A    between atoms: C_4  and  N_5
REMARK    3  A    between atoms: N_5  and  C_6
REMARK    4  A    between atoms: C_14  and  O_15
REMARK                            x       y       z     vdW  Elec       q    Type
REMARK                         _______ _______ _______ _____ _____    ______ ____
ROOT
ATOM      1  C   UNL     1       6.859   5.455  16.181  0.00  0.00    +0.000 A 
ATOM      2  C   UNL     1       6.095   4.472  16.763  0.00  0.00    +0.000 A 
ATOM      3  C   UNL     1       6.074   4.442  18.149  0.00  0.00    +0.000 A 
ATOM      4  N   UNL     1       6.821   5.290  18.870  0.00  0.00    +0.000 NA
ATOM      5  C   UNL     1       7.544   6.174  18.177  0.00  0.00    +0.000 A 
ATOM      6  N   UNL     1       7.598   6.327  16.859  0.00  0.00    +0.000 NA
ENDROOT
BRANCH   1   7
ATOM      7  O   UNL     1       6.899   5.604  14.825  0.00  0.00    +0.000 OA
ATOM      8  H   UNL     1       6.821   4.733  14.409  0.00  0.00    +0.000 HD
ENDBRANCH   1   7
BRANCH   3   9
ATOM      9  N   UNL     1       5.324   3.442  18.785  0.00  0.00    +0.000 N 
ATOM     10  H   UNL     1       5.041   2.710  18.142  0.00  0.00    +0.000 HD
BRANCH   9  11
ATOM     11  C   UNL     1       4.203   3.876  19.643  0.00  0.00    +0.000 C 
ATOM     12  C   UNL     1       3.274   4.841  18.880  0.00  0.00    +0.000 C 
ATOM     13  C   UNL     1       2.449   4.238  17.741  0.00  0.00    +0.000 C 
ATOM     14  C   UNL     1       1.140   3.590  18.180  0.00  0.00    +0.000 C 
ATOM     15  C   UNL     1       1.270   2.383  19.098  0.00  0.00    +0.000 C 
ATOM     16  C   UNL     1       2.023   2.650  20.399  0.00  0.00    +0.000 C 
ATOM     17  C   UNL     1       3.538   2.612  20.219  0.00  0.00    +0.000 C 
ENDBRANCH   9  11
ENDBRANCH   3   9
BRANCH   5  18
ATOM     18  O   UNL     1       8.339   6.977  18.933  0.00  0.00    +0.000 OA
ATOM     19  H   UNL     1       9.188   6.795  18.498  0.00  0.00    +0.000 HD
ENDBRANCH   5  18
TORSDOF 4
ENDMDL
MODEL 7
REMARK VINA RESULT:      -7.3      0.780      2.015
REMARK  Name = 
REMARK  4 active torsions:
REMARK  status: ('A' for Active; 'I' for Inactive)
REMARK    1  A    between atoms: O_1  and  C_2
REMARK    2  A    between atoms: C_4  and  N_5
REMARK    3  A    between atoms: N_5  and  C_6
REMARK    4  A    between atoms: C_14  and  O_15
REMARK                            x       y       z     vdW  Elec       q    Type
REMARK                         _______ _______ _______ _____ _____    ______ ____
ROOT
ATOM      1  C   UNL     1       7.386   5.631  19.478  0.00  0.00    +0.000 A 
ATOM      2  C   UNL     1       6.216   4.949  19.244  0.00  0.00    +0.000 A 
ATOM      3  C   UNL     1       5.537   5.263  18.078  0.00  0.00    +0.000 A 
ATOM      4  N   UNL     1       5.975   6.235  17.263  0.00  0.00    +0.000 NA
ATOM      5  C   UNL     1       7.108   6.841  17.626  0.00  0.00    +0.000 A 
ATOM      6  N   UNL     1       7.865   6.586  18.687  0.00  0.00    +0.000 NA
ENDROOT
BRANCH   1   7
ATOM      7  O   UNL     1       8.157   5.353  20.569  0.00  0.00    +0.000 OA
ATOM      8  H   UNL     1       7.681   5.622  21.368  0.00  0.00    +0.000 HD
ENDBRANCH   1   7
BRANCH   3   9
ATOM      9  N   UNL     1       4.328   4.606  17.809  0.00  0.00    +0.000 N 
ATOM     10  H   UNL     1       4.280   4.270  16.853  0.00  0.00    +0.000 HD
BRANCH   9  11
ATOM     11  C   UNL     1       3.080   5.288  18.209  0.00  0.00    +0.000 C 
ATOM     12  C   UNL     1       1.848   4.500  17.719  0.00  0.00    +0.000 C 
ATOM     13  C   UNL     1       1.582   3.155  18.397  0.00  0.00    +0.000 C 
ATOM     14  C   UNL     1       0.796   3.247  19.701  0.00  0.00    +0.000 C 
ATOM     15  C   UNL     1       1.477   4.001  20.836  0.00  0.00    +0.000 C 
ATOM     16  C   UNL     1       1.849   5.445  20.508  0.00  0.00    +0.000 C 
ATOM     17  C   UNL     1       3.154   5.551  19.724  0.00  0.00    +0.000 C 
ENDBRANCH   9  11
ENDBRANCH   3   9
BRANCH   5  18
ATOM     18  O   UNL     1       7.491   7.864  16.816  0.00  0.00    +0.000 OA
ATOM     19  H   UNL     1       7.803   8.482  17.497  0.00  0.00    +0.000 HD
ENDBRANCH   5  18
TORSDOF 4
ENDMDL
MODEL 8
REMARK VINA RESULT:      -7.3      1.575      2.488
REMARK  Name = 
REMARK  4 active torsions:
REMARK  status: ('A' for Active; 'I' for Inactive)
REMARK    1  A    between atoms: O_1  and  C_2
REMARK    2  A    between atoms: C_4  and  N_5
REMARK    3  A    between atoms: N_5  and  C_6
REMARK    4  A    between atoms: C_14  and  O_15
REMARK                            x       y       z     vdW  Elec       q    Type
REMARK                         _______ _______ _______ _____ _____    ______ ____
ROOT
ATOM      1  C   UNL     1       7.568   6.336  18.131  0.00  0.00    +0.000 A 
ATOM      2  C   UNL     1       6.858   5.384  18.823  0.00  0.00    +0.000 A 
ATOM      3  C   UNL     1       6.143   4.471  18.064  0.00  0.00    +0.000 A 
ATOM      4  N   UNL     1       6.100   4.567  16.726  0.00  0.00    +0.000 NA
ATOM      5  C   UNL     1       6.809   5.559  16.184  0.00  0.00    +0.000 A 
ATOM      6  N   UNL     1       7.568   6.454  16.807  0.00  0.00    +0.000 NA
ENDROOT
BRANCH   1   7
ATOM      7  O   UNL     1       8.350   7.244  18.786  0.00  0.00    +0.000 OA
ATOM      8  H   UNL     1       9.113   7.462  18.231  0.00  0.00    +0.000 HD
ENDBRANCH   1   7
BRANCH   3   9
ATOM      9  N   UNL     1       5.387   3.495  18.728  0.00  0.00    +0.000 N 
ATOM     10  H   UNL     1       5.103   2.744  18.108  0.00  0.00    +0.000 HD
BRANCH   9  11
ATOM     11  C   UNL     1       4.265   3.958  19.569  0.00  0.00    +0.000 C 
ATOM     12  C   UNL     1       3.296   4.836  18.749  0.00  0.00    +0.000 C 
ATOM     13  C   UNL     1       2.475   4.125  17.672  0.00  0.00    +0.000 C 
ATOM     14  C   UNL     1       1.192   3.474  18.178  0.00  0.00    +0.000 C 
ATOM     15  C   UNL     1       1.372   2.343  19.183  0.00  0.00    +0.000 C 
ATOM     16  C   UNL     1       2.133   2.730  20.448  0.00  0.00    +0.000 C 
ATOM     17  C   UNL     1       3.646   2.723  20.248  0.00  0.00    +0.000 C 
ENDBRANCH   9  11
ENDBRANCH   3   9
BRANCH   5  18
ATOM     18  O   UNL     1       6.694   5.670  14.834  0.00  0.00    +0.000 OA
ATOM     19  H   UNL     1       5.962   6.308  14.801  0.00  0.00    +0.000 HD
ENDBRANCH   5  18
TORSDOF 4
ENDMDL
MODEL 9
REMARK VINA RESULT:      -7.3      1.427      1.952
REMARK  Name = 
REMARK  4 active torsions:
REMARK  status: ('A' for Active; 'I' for Inactive)
REMARK    1  A    between atoms: O_1  and  C_2
REMARK    2  A    between atoms: C_4  and  N_5
REMARK    3  A    between atoms: N_5  and  C_6
REMARK    4  A    between atoms: C_14  and  O_15
REMARK                            x       y       z     vdW  Elec       q    Type
REMARK                         _______ _______ _______ _____ _____    ______ ____
ROOT
ATOM      1  C   UNL     1       7.124   4.823  16.984  0.00  0.00    +0.000 A 
ATOM      2  C   UNL     1       5.780   4.705  17.247  0.00  0.00    +0.000 A 
ATOM      3  C   UNL     1       5.380   4.948  18.551  0.00  0.00    +0.000 A 
ATOM      4  N   UNL     1       6.277   5.216  19.511  0.00  0.00    +0.000 NA
ATOM      5  C   UNL     1       7.554   5.268  19.126  0.00  0.00    +0.000 A 
ATOM      6  N   UNL     1       8.043   5.105  17.902  0.00  0.00    +0.000 NA
ENDROOT
BRANCH   1   7
ATOM      7  O   UNL     1       7.611   4.659  15.719  0.00  0.00    +0.000 OA
ATOM      8  H   UNL     1       8.424   4.136  15.759  0.00  0.00    +0.000 HD
ENDBRANCH   1   7
BRANCH   3   9
ATOM      9  N   UNL     1       4.020   4.819  18.869  0.00  0.00    +0.000 N 
ATOM     10  H   UNL     1       3.790   5.261  19.752  0.00  0.00    +0.000 HD
BRANCH   9  11
ATOM     11  C   UNL     1       3.422   3.473  18.763  0.00  0.00    +0.000 C 
ATOM     12  C   UNL     1       3.583   2.700  20.088  0.00  0.00    +0.000 C 
ATOM     13  C   UNL     1       2.765   3.204  21.278  0.00  0.00    +0.000 C 
ATOM     14  C   UNL     1       1.336   2.672  21.336  0.00  0.00    +0.000 C 
ATOM     15  C   UNL     1       0.429   3.077  20.182  0.00  0.00    +0.000 C 
ATOM     16  C   UNL     1       0.935   2.672  18.801  0.00  0.00    +0.000 C 
ATOM     17  C   UNL     1       1.979   3.640  18.251  0.00  0.00    +0.000 C 
ENDBRANCH   9  11
ENDBRANCH   3   9
BRANCH   5  18
ATOM     18  O   UNL     1       8.444   5.477  20.132  0.00  0.00    +0.000 OA
ATOM     19  H   UNL     1       8.074   4.862  20.786  0.00  0.00    +0.000 HD
ENDBRANCH   5  18
TORSDOF 4
ENDMDL
