MODEL 1
REMARK VINA RESULT:      -7.8      0.000      0.000
REMARK  Name = 
REMARK  10 active torsions:
REMARK  status: ('A' for Active; 'I' for Inactive)
REMARK    1  A    between atoms: C_1  and  C_2
REMARK    2  A    between atoms: C_2  and  C_3
REMARK    3  A    between atoms: C_2  and  C_17
REMARK    4  A    between atoms: N_5  and  C_6
REMARK    5  A    between atoms: C_6  and  C_7
REMARK    6  A    between atoms: C_10  and  C_11
REMARK    7  A    between atoms: C_11  and  C_12
REMARK    8  A    between atoms: C_11  and  C_13
REMARK    9  A    between atoms: C_11  and  C_14
REMARK   10  A    between atoms: C_20  and  O_21
REMARK                            x       y       z     vdW  Elec       q    Type
REMARK                         _______ _______ _______ _____ _____    ______ ____
ROOT
ATOM      1  C   UNL     1       5.894   5.017  18.000  0.00  0.00    +0.000 C 
ATOM      2  O   UNL     1       6.966   4.901  18.595  0.00  0.00    +0.000 OA
ATOM      3  N   UNL     1       5.397   6.267  17.785  0.00  0.00    +0.000 N 
ATOM      4  H   UNL     1       5.956   7.009  18.186  0.00  0.00    +0.000 HD
ENDROOT
BRANCH   1   6
ATOM      5  C   UNL     1       4.887   3.958  15.952  0.00  0.00    +0.000 C 
ATOM      6  C   UNL     1       5.112   3.816  17.455  0.00  0.00    +0.000 C 
BRANCH   6   7
ATOM      7  C   UNL     1       3.802   3.578  18.196  0.00  0.00    +0.000 A 
ATOM      8  C   UNL     1       2.562   3.571  17.533  0.00  0.00    +0.000 A 
ATOM      9  C   UNL     1       1.369   3.373  18.239  0.00  0.00    +0.000 A 
ATOM     10  C   UNL     1       1.407   3.172  19.614  0.00  0.00    +0.000 A 
ATOM     11  C   UNL     1       2.629   3.162  20.281  0.00  0.00    +0.000 A 
ATOM     12  F   UNL     1       2.680   2.970  21.606  0.00  0.00    +0.000 F 
ATOM     13  C   UNL     1       3.819   3.360  19.584  0.00  0.00    +0.000 A 
BRANCH  10  14
ATOM     14  O   UNL     1       0.258   2.986  20.327  0.00  0.00    +0.000 OA
ATOM     15  H   UNL     1      -0.321   2.376  19.843  0.00  0.00    +0.000 HD
ENDBRANCH  10  14
ENDBRANCH   6   7
ENDBRANCH   1   6
BRANCH   3  16
ATOM     16  C   UNL     1       4.182   6.640  17.097  0.00  0.00    +0.000 C 
BRANCH  16  17
ATOM     17  C   UNL     1       3.258   7.397  18.006  0.00  0.00    +0.000 A 
ATOM     18  C   UNL     1       2.738   8.620  17.586  0.00  0.00    +0.000 A 
ATOM     19  C   UNL     1       1.816   9.309  18.373  0.00  0.00    +0.000 A 
ATOM     20  C   UNL     1       1.383   8.805  19.608  0.00  0.00    +0.000 A 
ATOM     21  C   UNL     1       1.961   7.600  20.052  0.00  0.00    +0.000 A 
ATOM     22  C   UNL     1       2.888   6.905  19.262  0.00  0.00    +0.000 A 
BRANCH  20  23
ATOM     23  C   UNL     1       0.290   9.504  20.432  0.00  0.00    +0.000 C 
ATOM     24  C   UNL     1      -0.362   8.572  21.481  0.00  0.00    +0.000 C 
ATOM     25  C   UNL     1       0.906  10.694  21.199  0.00  0.00    +0.000 C 
ATOM     26  C   UNL     1      -0.834  10.022  19.513  0.00  0.00    +0.000 C 
ENDBRANCH  20  23
ENDBRANCH  16  17
ENDBRANCH   3  16
TORSDOF 6
ENDMDL
MODEL 2
REMARK VINA RESULT:      -7.8      2.318      4.335
REMARK  Name = 
REMARK  10 active torsions:
REMARK  status: ('A' for Active; 'I' for Inactive)
REMARK    1  A    between atoms: C_1  and  C_2
REMARK    2  A    between atoms: C_2  and  C_3
REMARK    3  A    between atoms: C_2  and  C_17
REMARK    4  A    between atoms: N_5  and  C_6
REMARK    5  A    between atoms: C_6  and  C_7
REMARK    6  A    between atoms: C_10  and  C_11
REMARK    7  A    between atoms: C_11  and  C_12
REMARK    8  A    between atoms: C_11  and  C_13
REMARK    9  A    between atoms: C_11  and  C_14
REMARK   10  A    between atoms: C_20  and  O_21
REMARK                            x       y       z     vdW  Elec       q    Type
REMARK                         _______ _______ _______ _____ _____    ______ ____
ROOT
ATOM      1  C   UNL     1       2.159   5.481  20.151  0.00  0.00    +0.000 C 
ATOM      2  O   UNL     1       2.159   4.595  21.007  0.00  0.00    +0.000 OA
ATOM      3  N   UNL     1       2.001   6.775  20.548  0.00  0.00    +0.000 N 
ATOM      4  H   UNL     1       1.854   6.887  21.543  0.00  0.00    +0.000 HD
ENDROOT
BRANCH   1   6
ATOM      5  C   UNL     1       1.497   4.020  18.212  0.00  0.00    +0.000 C 
ATOM      6  C   UNL     1       2.365   5.195  18.658  0.00  0.00    +0.000 C 
BRANCH   6   7
ATOM      7  C   UNL     1       3.828   4.979  18.294  0.00  0.00    +0.000 A 
ATOM      8  C   UNL     1       4.213   4.402  17.071  0.00  0.00    +0.000 A 
ATOM      9  C   UNL     1       5.563   4.192  16.767  0.00  0.00    +0.000 A 
ATOM     10  C   UNL     1       6.542   4.565  17.682  0.00  0.00    +0.000 A 
ATOM     11  C   UNL     1       6.175   5.152  18.890  0.00  0.00    +0.000 A 
ATOM     12  F   UNL     1       7.107   5.515  19.780  0.00  0.00    +0.000 F 
ATOM     13  C   UNL     1       4.833   5.362  19.198  0.00  0.00    +0.000 A 
BRANCH  10  14
ATOM     14  O   UNL     1       7.865   4.364  17.414  0.00  0.00    +0.000 OA
ATOM     15  H   UNL     1       8.309   5.224  17.341  0.00  0.00    +0.000 HD
ENDBRANCH  10  14
ENDBRANCH   6   7
ENDBRANCH   1   6
BRANCH   3  16
ATOM     16  C   UNL     1       1.992   7.966  19.730  0.00  0.00    +0.000 C 
BRANCH  16  17
ATOM     17  C   UNL     1       1.035   8.987  20.274  0.00  0.00    +0.000 A 
ATOM     18  C   UNL     1       0.764   9.009  21.641  0.00  0.00    +0.000 A 
ATOM     19  C   UNL     1      -0.058   9.994  22.188  0.00  0.00    +0.000 A 
ATOM     20  C   UNL     1      -0.641  10.989  21.390  0.00  0.00    +0.000 A 
ATOM     21  C   UNL     1      -0.411  10.922  20.002  0.00  0.00    +0.000 A 
ATOM     22  C   UNL     1       0.415   9.932  19.450  0.00  0.00    +0.000 A 
BRANCH  20  23
ATOM     23  C   UNL     1      -1.461  12.139  21.997  0.00  0.00    +0.000 C 
ATOM     24  C   UNL     1      -2.576  12.647  21.054  0.00  0.00    +0.000 C 
ATOM     25  C   UNL     1      -2.145  11.653  23.294  0.00  0.00    +0.000 C 
ATOM     26  C   UNL     1      -0.552  13.340  22.325  0.00  0.00    +0.000 C 
ENDBRANCH  20  23
ENDBRANCH  16  17
ENDBRANCH   3  16
TORSDOF 6
ENDMDL
MODEL 3
REMARK VINA RESULT:      -7.8      2.229      4.099
REMARK  Name = 
REMARK  10 active torsions:
REMARK  status: ('A' for Active; 'I' for Inactive)
REMARK    1  A    between atoms: C_1  and  C_2
REMARK    2  A    between atoms: C_2  and  C_3
REMARK    3  A    between atoms: C_2  and  C_17
REMARK    4  A    between atoms: N_5  and  C_6
REMARK    5  A    between atoms: C_6  and  C_7
REMARK    6  A    between atoms: C_10  and  C_11
REMARK    7  A    between atoms: C_11  and  C_12
REMARK    8  A    between atoms: C_11  and  C_13
REMARK    9  A    between atoms: C_11  and  C_14
REMARK   10  A    between atoms: C_20  and  O_21
REMARK                            x       y       z     vdW  Elec       q    Type
REMARK                         _______ _______ _______ _____ _____    ______ ____
ROOT
ATOM      1  C   UNL     1       2.737   3.721  17.941  0.00  0.00    +0.000 C 
ATOM      2  O   UNL     1       2.054   3.114  17.115  0.00  0.00    +0.000 OA
ATOM      3  N   UNL     1       2.136   4.666  18.719  0.00  0.00    +0.000 N 
ATOM      4  H   UNL     1       1.158   4.813  18.509  0.00  0.00    +0.000 HD
ENDROOT
BRANCH   1   6
ATOM      5  C   UNL     1       4.473   2.917  19.575  0.00  0.00    +0.000 C 
ATOM      6  C   UNL     1       4.228   3.435  18.160  0.00  0.00    +0.000 C 
BRANCH   6   7
ATOM      7  C   UNL     1       5.113   4.632  17.841  0.00  0.00    +0.000 A 
ATOM      8  C   UNL     1       4.853   5.481  16.750  0.00  0.00    +0.000 A 
ATOM      9  C   UNL     1       5.695   6.562  16.462  0.00  0.00    +0.000 A 
ATOM     10  C   UNL     1       6.800   6.809  17.269  0.00  0.00    +0.000 A 
ATOM     11  C   UNL     1       7.060   5.986  18.361  0.00  0.00    +0.000 A 
ATOM     12  F   UNL     1       8.122   6.212  19.145  0.00  0.00    +0.000 F 
ATOM     13  C   UNL     1       6.227   4.907  18.651  0.00  0.00    +0.000 A 
BRANCH  10  14
ATOM     14  O   UNL     1       7.641   7.851  17.005  0.00  0.00    +0.000 OA
ATOM     15  H   UNL     1       8.007   8.184  17.840  0.00  0.00    +0.000 HD
ENDBRANCH  10  14
ENDBRANCH   6   7
ENDBRANCH   1   6
BRANCH   3  16
ATOM     16  C   UNL     1       2.729   5.476  19.757  0.00  0.00    +0.000 C 
BRANCH  16  17
ATOM     17  C   UNL     1       2.213   6.885  19.703  0.00  0.00    +0.000 A 
ATOM     18  C   UNL     1       2.348   7.617  18.525  0.00  0.00    +0.000 A 
ATOM     19  C   UNL     1       1.809   8.899  18.418  0.00  0.00    +0.000 A 
ATOM     20  C   UNL     1       1.121   9.497  19.483  0.00  0.00    +0.000 A 
ATOM     21  C   UNL     1       1.044   8.774  20.689  0.00  0.00    +0.000 A 
ATOM     22  C   UNL     1       1.584   7.485  20.799  0.00  0.00    +0.000 A 
BRANCH  20  23
ATOM     23  C   UNL     1       0.433  10.864  19.339  0.00  0.00    +0.000 C 
ATOM     24  C   UNL     1       1.363  11.946  18.742  0.00  0.00    +0.000 C 
ATOM     25  C   UNL     1      -0.780  10.731  18.392  0.00  0.00    +0.000 C 
ATOM     26  C   UNL     1      -0.050  11.376  20.710  0.00  0.00    +0.000 C 
ENDBRANCH  20  23
ENDBRANCH  16  17
ENDBRANCH   3  16
TORSDOF 6
ENDMDL
MODEL 4
REMARK VINA RESULT:      -7.8      0.309      1.025
REMARK  Name = 
REMARK  10 active torsions:
REMARK  status: ('A' for Active; 'I' for Inactive)
REMARK    1  A    between atoms: C_1  and  C_2
REMARK    2  A    between atoms: C_2  and  C_3
REMARK    3  A    between atoms: C_2  and  C_17
REMARK    4  A    between atoms: N_5  and  C_6
REMARK    5  A    between atoms: C_6  and  C_7
REMARK    6  A    between atoms: C_10  and  C_11
REMARK    7  A    between atoms: C_11  and  C_12
REMARK    8  A    between atoms: C_11  and  C_13
REMARK    9  A    between atoms: C_11  and  C_14
REMARK   10  A    between atoms: C_20  and  O_21
REMARK                            x       y       z     vdW  Elec       q    Type
REMARK                         _______ _______ _______ _____ _____    ______ ____
ROOT
ATOM      1  C   UNL     1       5.790   4.965  18.298  0.00  0.00    +0.000 C 
ATOM      2  O   UNL     1       6.752   4.784  19.046  0.00  0.00    +0.000 OA
ATOM      3  N   UNL     1       5.367   6.240  18.072  0.00  0.00    +0.000 N 
ATOM      4  H   UNL     1       5.878   6.943  18.590  0.00  0.00    +0.000 HD
ENDROOT
BRANCH   1   6
ATOM      5  C   UNL     1       4.988   4.089  16.080  0.00  0.00    +0.000 C 
ATOM      6  C   UNL     1       5.068   3.817  17.580  0.00  0.00    +0.000 C 
BRANCH   6   7
ATOM      7  C   UNL     1       3.695   3.522  18.169  0.00  0.00    +0.000 A 
ATOM      8  C   UNL     1       2.522   3.602  17.399  0.00  0.00    +0.000 A 
ATOM      9  C   UNL     1       1.268   3.349  17.968  0.00  0.00    +0.000 A 
ATOM     10  C   UNL     1       1.178   3.004  19.312  0.00  0.00    +0.000 A 
ATOM     11  C   UNL     1       2.333   2.905  20.082  0.00  0.00    +0.000 A 
ATOM     12  F   UNL     1       2.261   2.574  21.378  0.00  0.00    +0.000 F 
ATOM     13  C   UNL     1       3.583   3.158  19.522  0.00  0.00    +0.000 A 
BRANCH  10  14
ATOM     14  O   UNL     1      -0.033   2.760  19.894  0.00  0.00    +0.000 OA
ATOM     15  H   UNL     1      -0.645   3.479  19.669  0.00  0.00    +0.000 HD
ENDBRANCH  10  14
ENDBRANCH   6   7
ENDBRANCH   1   6
BRANCH   3  16
ATOM     16  C   UNL     1       4.285   6.686  17.224  0.00  0.00    +0.000 C 
BRANCH  16  17
ATOM     17  C   UNL     1       3.209   7.354  18.029  0.00  0.00    +0.000 A 
ATOM     18  C   UNL     1       2.903   6.867  19.298  0.00  0.00    +0.000 A 
ATOM     19  C   UNL     1       1.964   7.513  20.101  0.00  0.00    +0.000 A 
ATOM     20  C   UNL     1       1.295   8.666  19.665  0.00  0.00    +0.000 A 
ATOM     21  C   UNL     1       1.565   9.114  18.358  0.00  0.00    +0.000 A 
ATOM     22  C   UNL     1       2.509   8.466  17.549  0.00  0.00    +0.000 A 
BRANCH  20  23
ATOM     23  C   UNL     1       0.339   9.445  20.583  0.00  0.00    +0.000 C 
ATOM     24  C   UNL     1      -0.356   8.545  21.632  0.00  0.00    +0.000 C 
ATOM     25  C   UNL     1       1.132  10.521  21.357  0.00  0.00    +0.000 C 
ATOM     26  C   UNL     1      -0.769  10.130  19.758  0.00  0.00    +0.000 C 
ENDBRANCH  20  23
ENDBRANCH  16  17
ENDBRANCH   3  16
TORSDOF 6
ENDMDL
MODEL 5
REMARK VINA RESULT:      -7.7      2.389      4.423
REMARK  Name = 
REMARK  10 active torsions:
REMARK  status: ('A' for Active; 'I' for Inactive)
REMARK    1  A    between atoms: C_1  and  C_2
REMARK    2  A    between atoms: C_2  and  C_3
REMARK    3  A    between atoms: C_2  and  C_17
REMARK    4  A    between atoms: N_5  and  C_6
REMARK    5  A    between atoms: C_6  and  C_7
REMARK    6  A    between atoms: C_10  and  C_11
REMARK    7  A    between atoms: C_11  and  C_12
REMARK    8  A    between atoms: C_11  and  C_13
REMARK    9  A    between atoms: C_11  and  C_14
REMARK   10  A    between atoms: C_20  and  O_21
REMARK                            x       y       z     vdW  Elec       q    Type
REMARK                         _______ _______ _______ _____ _____    ______ ____
ROOT
ATOM      1  C   UNL     1       2.312   5.242  20.110  0.00  0.00    +0.000 C 
ATOM      2  O   UNL     1       2.304   4.376  20.986  0.00  0.00    +0.000 OA
ATOM      3  N   UNL     1       2.148   6.544  20.475  0.00  0.00    +0.000 N 
ATOM      4  H   UNL     1       1.990   6.680  21.465  0.00  0.00    +0.000 HD
ENDROOT
BRANCH   1   6
ATOM      5  C   UNL     1       1.740   3.682  18.220  0.00  0.00    +0.000 C 
ATOM      6  C   UNL     1       2.535   4.921  18.627  0.00  0.00    +0.000 C 
BRANCH   6   7
ATOM      7  C   UNL     1       4.008   4.784  18.266  0.00  0.00    +0.000 A 
ATOM      8  C   UNL     1       5.029   5.240  19.119  0.00  0.00    +0.000 A 
ATOM      9  C   UNL     1       6.376   5.124  18.756  0.00  0.00    +0.000 A 
ATOM     10  C   UNL     1       6.714   4.543  17.538  0.00  0.00    +0.000 A 
ATOM     11  C   UNL     1       5.714   4.074  16.692  0.00  0.00    +0.000 A 
ATOM     12  F   UNL     1       6.027   3.513  15.516  0.00  0.00    +0.000 F 
ATOM     13  C   UNL     1       4.372   4.188  17.047  0.00  0.00    +0.000 A 
BRANCH  10  14
ATOM     14  O   UNL     1       8.020   4.426  17.157  0.00  0.00    +0.000 OA
ATOM     15  H   UNL     1       8.588   4.813  17.842  0.00  0.00    +0.000 HD
ENDBRANCH  10  14
ENDBRANCH   6   7
ENDBRANCH   1   6
BRANCH   3  16
ATOM     16  C   UNL     1       2.145   7.716  19.629  0.00  0.00    +0.000 C 
BRANCH  16  17
ATOM     17  C   UNL     1       1.213   8.764  20.163  0.00  0.00    +0.000 A 
ATOM     18  C   UNL     1       0.848   8.734  21.507  0.00  0.00    +0.000 A 
ATOM     19  C   UNL     1       0.048   9.739  22.050  0.00  0.00    +0.000 A 
ATOM     20  C   UNL     1      -0.420  10.807  21.270  0.00  0.00    +0.000 A 
ATOM     21  C   UNL     1      -0.097  10.795  19.900  0.00  0.00    +0.000 A 
ATOM     22  C   UNL     1       0.708   9.786  19.352  0.00  0.00    +0.000 A 
BRANCH  20  23
ATOM     23  C   UNL     1      -1.213  11.973  21.883  0.00  0.00    +0.000 C 
ATOM     24  C   UNL     1      -2.379  12.446  20.984  0.00  0.00    +0.000 C 
ATOM     25  C   UNL     1      -1.825  11.526  23.229  0.00  0.00    +0.000 C 
ATOM     26  C   UNL     1      -0.294  13.187  22.124  0.00  0.00    +0.000 C 
ENDBRANCH  20  23
ENDBRANCH  16  17
ENDBRANCH   3  16
TORSDOF 6
ENDMDL
MODEL 6
REMARK VINA RESULT:      -7.7      5.931      7.470
REMARK  Name = 
REMARK  10 active torsions:
REMARK  status: ('A' for Active; 'I' for Inactive)
REMARK    1  A    between atoms: C_1  and  C_2
REMARK    2  A    between atoms: C_2  and  C_3
REMARK    3  A    between atoms: C_2  and  C_17
REMARK    4  A    between atoms: N_5  and  C_6
REMARK    5  A    between atoms: C_6  and  C_7
REMARK    6  A    between atoms: C_10  and  C_11
REMARK    7  A    between atoms: C_11  and  C_12
REMARK    8  A    between atoms: C_11  and  C_13
REMARK    9  A    between atoms: C_11  and  C_14
REMARK   10  A    between atoms: C_20  and  O_21
REMARK                            x       y       z     vdW  Elec       q    Type
REMARK                         _______ _______ _______ _____ _____    ______ ____
ROOT
ATOM      1  C   UNL     1       7.629   6.163  18.778  0.00  0.00    +0.000 C 
ATOM      2  O   UNL     1       8.213   5.285  19.414  0.00  0.00    +0.000 OA
ATOM      3  N   UNL     1       8.275   7.338  18.538  0.00  0.00    +0.000 N 
ATOM      4  H   UNL     1       9.195   7.397  18.954  0.00  0.00    +0.000 HD
ENDROOT
BRANCH   1   6
ATOM      5  C   UNL     1       5.307   5.310  19.241  0.00  0.00    +0.000 C 
ATOM      6  C   UNL     1       6.215   5.977  18.211  0.00  0.00    +0.000 C 
BRANCH   6   7
ATOM      7  C   UNL     1       6.203   5.226  16.886  0.00  0.00    +0.000 A 
ATOM      8  C   UNL     1       5.357   4.126  16.661  0.00  0.00    +0.000 A 
ATOM      9  C   UNL     1       5.380   3.437  15.443  0.00  0.00    +0.000 A 
ATOM     10  C   UNL     1       6.244   3.848  14.434  0.00  0.00    +0.000 A 
ATOM     11  C   UNL     1       7.076   4.945  14.638  0.00  0.00    +0.000 A 
ATOM     12  F   UNL     1       7.915   5.351  13.675  0.00  0.00    +0.000 F 
ATOM     13  C   UNL     1       7.059   5.634  15.849  0.00  0.00    +0.000 A 
BRANCH  10  14
ATOM     14  O   UNL     1       6.292   3.188  13.240  0.00  0.00    +0.000 OA
ATOM     15  H   UNL     1       6.750   3.743  12.588  0.00  0.00    +0.000 HD
ENDBRANCH  10  14
ENDBRANCH   6   7
ENDBRANCH   1   6
BRANCH   3  16
ATOM     16  C   UNL     1       7.797   8.486  17.802  0.00  0.00    +0.000 C 
BRANCH  16  17
ATOM     17  C   UNL     1       8.482   9.742  18.258  0.00  0.00    +0.000 A 
ATOM     18  C   UNL     1       9.321   9.698  19.370  0.00  0.00    +0.000 A 
ATOM     19  C   UNL     1      10.032  10.828  19.771  0.00  0.00    +0.000 A 
ATOM     20  C   UNL     1       9.928  12.044  19.078  0.00  0.00    +0.000 A 
ATOM     21  C   UNL     1       9.031  12.095  17.995  0.00  0.00    +0.000 A 
ATOM     22  C   UNL     1       8.315  10.960  17.590  0.00  0.00    +0.000 A 
BRANCH  20  23
ATOM     23  C   UNL     1      10.788  13.264  19.448  0.00  0.00    +0.000 C 
ATOM     24  C   UNL     1      12.296  12.930  19.545  0.00  0.00    +0.000 C 
ATOM     25  C   UNL     1      10.630  14.351  18.363  0.00  0.00    +0.000 C 
ATOM     26  C   UNL     1      10.355  13.841  20.809  0.00  0.00    +0.000 C 
ENDBRANCH  20  23
ENDBRANCH  16  17
ENDBRANCH   3  16
TORSDOF 6
ENDMDL
MODEL 7
REMARK VINA RESULT:      -7.7      2.562      4.524
REMARK  Name = 
REMARK  10 active torsions:
REMARK  status: ('A' for Active; 'I' for Inactive)
REMARK    1  A    between atoms: C_1  and  C_2
REMARK    2  A    between atoms: C_2  and  C_3
REMARK    3  A    between atoms: C_2  and  C_17
REMARK    4  A    between atoms: N_5  and  C_6
REMARK    5  A    between atoms: C_6  and  C_7
REMARK    6  A    between atoms: C_10  and  C_11
REMARK    7  A    between atoms: C_11  and  C_12
REMARK    8  A    between atoms: C_11  and  C_13
REMARK    9  A    between atoms: C_11  and  C_14
REMARK   10  A    between atoms: C_20  and  O_21
REMARK                            x       y       z     vdW  Elec       q    Type
REMARK                         _______ _______ _______ _____ _____    ______ ____
ROOT
ATOM      1  C   UNL     1       2.475   5.760  19.658  0.00  0.00    +0.000 C 
ATOM      2  O   UNL     1       2.725   4.920  20.523  0.00  0.00    +0.000 OA
ATOM      3  N   UNL     1       2.299   7.057  20.036  0.00  0.00    +0.000 N 
ATOM      4  H   UNL     1       2.352   7.207  21.036  0.00  0.00    +0.000 HD
ENDROOT
BRANCH   1   6
ATOM      5  C   UNL     1       1.522   4.180  17.948  0.00  0.00    +0.000 C 
ATOM      6  C   UNL     1       2.390   5.416  18.166  0.00  0.00    +0.000 C 
BRANCH   6   7
ATOM      7  C   UNL     1       3.759   5.259  17.516  0.00  0.00    +0.000 A 
ATOM      8  C   UNL     1       4.155   4.062  16.894  0.00  0.00    +0.000 A 
ATOM      9  C   UNL     1       5.427   3.933  16.324  0.00  0.00    +0.000 A 
ATOM     10  C   UNL     1       6.312   5.005  16.364  0.00  0.00    +0.000 A 
ATOM     11  C   UNL     1       5.927   6.201  16.963  0.00  0.00    +0.000 A 
ATOM     12  F   UNL     1       6.771   7.240  17.009  0.00  0.00    +0.000 F 
ATOM     13  C   UNL     1       4.664   6.334  17.533  0.00  0.00    +0.000 A 
BRANCH  10  14
ATOM     14  O   UNL     1       7.561   4.902  15.823  0.00  0.00    +0.000 OA
ATOM     15  H   UNL     1       8.119   4.364  16.408  0.00  0.00    +0.000 HD
ENDBRANCH  10  14
ENDBRANCH   6   7
ENDBRANCH   1   6
BRANCH   3  16
ATOM     16  C   UNL     1       2.023   8.202  19.200  0.00  0.00    +0.000 C 
BRANCH  16  17
ATOM     17  C   UNL     1       1.073   9.148  19.875  0.00  0.00    +0.000 A 
ATOM     18  C   UNL     1       0.950   9.117  21.263  0.00  0.00    +0.000 A 
ATOM     19  C   UNL     1       0.136  10.036  21.925  0.00  0.00    +0.000 A 
ATOM     20  C   UNL     1      -0.587  11.014  21.226  0.00  0.00    +0.000 A 
ATOM     21  C   UNL     1      -0.504  10.997  19.821  0.00  0.00    +0.000 A 
ATOM     22  C   UNL     1       0.314  10.075  19.153  0.00  0.00    +0.000 A 
BRANCH  20  23
ATOM     23  C   UNL     1      -1.402  12.095  21.955  0.00  0.00    +0.000 C 
ATOM     24  C   UNL     1      -0.564  13.349  22.302  0.00  0.00    +0.000 C 
ATOM     25  C   UNL     1      -2.564  12.559  21.050  0.00  0.00    +0.000 C 
ATOM     26  C   UNL     1      -1.977  11.545  23.274  0.00  0.00    +0.000 C 
ENDBRANCH  20  23
ENDBRANCH  16  17
ENDBRANCH   3  16
TORSDOF 6
ENDMDL
MODEL 8
REMARK VINA RESULT:      -7.7      2.316      4.160
REMARK  Name = 
REMARK  10 active torsions:
REMARK  status: ('A' for Active; 'I' for Inactive)
REMARK    1  A    between atoms: C_1  and  C_2
REMARK    2  A    between atoms: C_2  and  C_3
REMARK    3  A    between atoms: C_2  and  C_17
REMARK    4  A    between atoms: N_5  and  C_6
REMARK    5  A    between atoms: C_6  and  C_7
REMARK    6  A    between atoms: C_10  and  C_11
REMARK    7  A    between atoms: C_11  and  C_12
REMARK    8  A    between atoms: C_11  and  C_13
REMARK    9  A    between atoms: C_11  and  C_14
REMARK   10  A    between atoms: C_20  and  O_21
REMARK                            x       y       z     vdW  Elec       q    Type
REMARK                         _______ _______ _______ _____ _____    ______ ____
ROOT
ATOM      1  C   UNL     1       2.555   3.199  18.238  0.00  0.00    +0.000 C 
ATOM      2  O   UNL     1       1.870   2.574  17.427  0.00  0.00    +0.000 OA
ATOM      3  N   UNL     1       1.943   4.103  19.053  0.00  0.00    +0.000 N 
ATOM      4  H   UNL     1       0.952   4.210  18.882  0.00  0.00    +0.000 HD
ENDROOT
BRANCH   1   6
ATOM      5  C   UNL     1       4.397   2.545  19.823  0.00  0.00    +0.000 C 
ATOM      6  C   UNL     1       4.065   2.976  18.397  0.00  0.00    +0.000 C 
BRANCH   6   7
ATOM      7  C   UNL     1       4.889   4.184  17.971  0.00  0.00    +0.000 A 
ATOM      8  C   UNL     1       5.886   4.733  18.796  0.00  0.00    +0.000 A 
ATOM      9  C   UNL     1       6.615   5.858  18.394  0.00  0.00    +0.000 A 
ATOM     10  C   UNL     1       6.359   6.440  17.157  0.00  0.00    +0.000 A 
ATOM     11  C   UNL     1       5.385   5.897  16.324  0.00  0.00    +0.000 A 
ATOM     12  F   UNL     1       5.127   6.448  15.130  0.00  0.00    +0.000 F 
ATOM     13  C   UNL     1       4.655   4.778  16.720  0.00  0.00    +0.000 A 
BRANCH  10  14
ATOM     14  O   UNL     1       7.049   7.542  16.744  0.00  0.00    +0.000 OA
ATOM     15  H   UNL     1       7.936   7.273  16.457  0.00  0.00    +0.000 HD
ENDBRANCH  10  14
ENDBRANCH   6   7
ENDBRANCH   1   6
BRANCH   3  16
ATOM     16  C   UNL     1       2.538   4.923  20.083  0.00  0.00    +0.000 C 
BRANCH  16  17
ATOM     17  C   UNL     1       2.212   6.374  19.873  0.00  0.00    +0.000 A 
ATOM     18  C   UNL     1       2.518   6.973  18.653  0.00  0.00    +0.000 A 
ATOM     19  C   UNL     1       2.155   8.296  18.399  0.00  0.00    +0.000 A 
ATOM     20  C   UNL     1       1.480   9.068  19.356  0.00  0.00    +0.000 A 
ATOM     21  C   UNL     1       1.231   8.473  20.607  0.00  0.00    +0.000 A 
ATOM     22  C   UNL     1       1.593   7.143  20.864  0.00  0.00    +0.000 A 
BRANCH  20  23
ATOM     23  C   UNL     1       0.984  10.490  19.047  0.00  0.00    +0.000 C 
ATOM     24  C   UNL     1       0.844  11.367  20.313  0.00  0.00    +0.000 C 
ATOM     25  C   UNL     1       1.992  11.194  18.113  0.00  0.00    +0.000 C 
ATOM     26  C   UNL     1      -0.396  10.447  18.361  0.00  0.00    +0.000 C 
ENDBRANCH  20  23
ENDBRANCH  16  17
ENDBRANCH   3  16
TORSDOF 6
ENDMDL
MODEL 9
REMARK VINA RESULT:      -7.7      2.382      4.214
REMARK  Name = 
REMARK  10 active torsions:
REMARK  status: ('A' for Active; 'I' for Inactive)
REMARK    1  A    between atoms: C_1  and  C_2
REMARK    2  A    between atoms: C_2  and  C_3
REMARK    3  A    between atoms: C_2  and  C_17
REMARK    4  A    between atoms: N_5  and  C_6
REMARK    5  A    between atoms: C_6  and  C_7
REMARK    6  A    between atoms: C_10  and  C_11
REMARK    7  A    between atoms: C_11  and  C_12
REMARK    8  A    between atoms: C_11  and  C_13
REMARK    9  A    between atoms: C_11  and  C_14
REMARK   10  A    between atoms: C_20  and  O_21
REMARK                            x       y       z     vdW  Elec       q    Type
REMARK                         _______ _______ _______ _____ _____    ______ ____
ROOT
ATOM      1  C   UNL     1       2.333   5.157  20.152  0.00  0.00    +0.000 C 
ATOM      2  O   UNL     1       2.376   4.322  21.056  0.00  0.00    +0.000 OA
ATOM      3  N   UNL     1       2.161   6.469  20.479  0.00  0.00    +0.000 N 
ATOM      4  H   UNL     1       2.040   6.635  21.469  0.00  0.00    +0.000 HD
ENDROOT
BRANCH   1   6
ATOM      5  C   UNL     1       1.745   3.503  18.349  0.00  0.00    +0.000 C 
ATOM      6  C   UNL     1       2.502   4.789  18.672  0.00  0.00    +0.000 C 
BRANCH   6   7
ATOM      7  C   UNL     1       3.963   4.700  18.248  0.00  0.00    +0.000 A 
ATOM      8  C   UNL     1       5.001   5.224  19.038  0.00  0.00    +0.000 A 
ATOM      9  C   UNL     1       6.334   5.152  18.616  0.00  0.00    +0.000 A 
ATOM     10  C   UNL     1       6.641   4.546  17.403  0.00  0.00    +0.000 A 
ATOM     11  C   UNL     1       5.624   4.009  16.618  0.00  0.00    +0.000 A 
ATOM     12  F   UNL     1       5.907   3.423  15.447  0.00  0.00    +0.000 F 
ATOM     13  C   UNL     1       4.296   4.080  17.032  0.00  0.00    +0.000 A 
BRANCH  10  14
ATOM     14  O   UNL     1       7.932   4.469  16.965  0.00  0.00    +0.000 OA
ATOM     15  H   UNL     1       8.022   3.707  16.372  0.00  0.00    +0.000 HD
ENDBRANCH  10  14
ENDBRANCH   6   7
ENDBRANCH   1   6
BRANCH   3  16
ATOM     16  C   UNL     1       2.104   7.610  19.594  0.00  0.00    +0.000 C 
BRANCH  16  17
ATOM     17  C   UNL     1       1.345   8.742  20.224  0.00  0.00    +0.000 A 
ATOM     18  C   UNL     1       0.965   9.829  19.439  0.00  0.00    +0.000 A 
ATOM     19  C   UNL     1       0.192  10.859  19.976  0.00  0.00    +0.000 A 
ATOM     20  C   UNL     1      -0.225  10.841  21.315  0.00  0.00    +0.000 A 
ATOM     21  C   UNL     1       0.217   9.771  22.115  0.00  0.00    +0.000 A 
ATOM     22  C   UNL     1       0.993   8.734  21.578  0.00  0.00    +0.000 A 
BRANCH  20  23
ATOM     23  C   UNL     1      -1.164  11.917  21.886  0.00  0.00    +0.000 C 
ATOM     24  C   UNL     1      -1.841  11.484  23.208  0.00  0.00    +0.000 C 
ATOM     25  C   UNL     1      -0.356  13.198  22.185  0.00  0.00    +0.000 C 
ATOM     26  C   UNL     1      -2.284  12.248  20.881  0.00  0.00    +0.000 C 
ENDBRANCH  20  23
ENDBRANCH  16  17
ENDBRANCH   3  16
TORSDOF 6
ENDMDL
