MODEL 1
REMARK VINA RESULT:      -6.3      0.000      0.000
REMARK  Name = 
REMARK  5 active torsions:
REMARK  status: ('A' for Active; 'I' for Inactive)
REMARK    1  A    between atoms: C_1  and  C_2
REMARK    2  A    between atoms: C_2  and  O_3
REMARK    3  A    between atoms: O_3  and  C_4
REMARK    4  A    between atoms: C_4  and  C_6
REMARK    5  A    between atoms: N_11  and  N_12
REMARK                            x       y       z     vdW  Elec       q    Type
REMARK                         _______ _______ _______ _____ _____    ______ ____
ROOT
ATOM      1  C   UNL     1       6.648   5.631  16.669  0.00  0.00    +0.000 C 
ATOM      2  C   UNL     1       7.129   4.963  15.375  0.00  0.00    +0.000 C 
ATOM      3  C   UNL     1       5.848   4.556  14.656  0.00  0.00    +0.000 C 
ATOM      4  C   UNL     1       4.961   4.001  15.761  0.00  0.00    +0.000 C 
ATOM      5  C   UNL     1       5.355   4.883  16.913  0.00  0.00    +0.000 C 
ATOM      6  N   UNL     1       4.785   4.993  18.058  0.00  0.00    +0.000 NA
ENDROOT
BRANCH   6   7
ATOM      7  N   UNL     1       3.738   4.197  18.376  0.00  0.00    +0.000 N 
ATOM      8  C   UNL     1       3.945   3.099  19.158  0.00  0.00    +0.000 C 
ATOM      9  N   UNL     1       5.086   2.756  19.651  0.00  0.00    +0.000 NA
ATOM     10  N   UNL     1       2.848   2.356  19.407  0.00  0.00    +0.000 N 
ATOM     11  H   UNL     1       2.968   4.084  17.724  0.00  0.00    +0.000 HD
ATOM     12  H   UNL     1       5.729   3.497  19.314  0.00  0.00    +0.000 HD
ATOM     13  H   UNL     1       2.075   2.917  19.744  0.00  0.00    +0.000 HD
ATOM     14  H   UNL     1       3.098   1.662  20.108  0.00  0.00    +0.000 HD
ENDBRANCH   6   7
BRANCH   1  15
ATOM     15  C   UNL     1       7.524   5.475  17.898  0.00  0.00    +0.000 C 
ATOM     16  O   UNL     1       8.037   4.424  18.267  0.00  0.00    +0.000 OA
BRANCH  15  17
ATOM     17  O   UNL     1       7.837   6.698  18.405  0.00  0.00    +0.000 OA
BRANCH  17  19
ATOM     18  C   UNL     1       8.354   8.962  18.130  0.00  0.00    +0.000 C 
ATOM     19  C   UNL     1       7.588   7.800  17.528  0.00  0.00    +0.000 C 
ENDBRANCH  17  19
ENDBRANCH  15  17
ENDBRANCH   1  15
TORSDOF 4
ENDMDL
MODEL 2
REMARK VINA RESULT:      -6.3      2.096      3.663
REMARK  Name = 
REMARK  5 active torsions:
REMARK  status: ('A' for Active; 'I' for Inactive)
REMARK    1  A    between atoms: C_1  and  C_2
REMARK    2  A    between atoms: C_2  and  O_3
REMARK    3  A    between atoms: O_3  and  C_4
REMARK    4  A    between atoms: C_4  and  C_6
REMARK    5  A    between atoms: N_11  and  N_12
REMARK                            x       y       z     vdW  Elec       q    Type
REMARK                         _______ _______ _______ _____ _____    ______ ____
ROOT
ATOM      1  C   UNL     1       6.694   4.837  16.947  0.00  0.00    +0.000 C 
ATOM      2  C   UNL     1       7.196   5.956  17.867  0.00  0.00    +0.000 C 
ATOM      3  C   UNL     1       6.815   5.496  19.270  0.00  0.00    +0.000 C 
ATOM      4  C   UNL     1       5.412   4.931  19.108  0.00  0.00    +0.000 C 
ATOM      5  C   UNL     1       5.501   4.335  17.732  0.00  0.00    +0.000 C 
ATOM      6  N   UNL     1       4.665   3.553  17.150  0.00  0.00    +0.000 NA
ENDROOT
BRANCH   6   7
ATOM      7  N   UNL     1       3.495   3.238  17.754  0.00  0.00    +0.000 N 
ATOM      8  C   UNL     1       3.294   1.967  18.204  0.00  0.00    +0.000 C 
ATOM      9  N   UNL     1       4.160   1.015  18.117  0.00  0.00    +0.000 NA
ATOM     10  N   UNL     1       2.094   1.742  18.776  0.00  0.00    +0.000 N 
ATOM     11  H   UNL     1       2.637   3.704  17.476  0.00  0.00    +0.000 HD
ATOM     12  H   UNL     1       4.972   1.466  17.657  0.00  0.00    +0.000 HD
ATOM     13  H   UNL     1       1.874   2.430  19.485  0.00  0.00    +0.000 HD
ATOM     14  H   UNL     1       2.121   0.815  19.196  0.00  0.00    +0.000 HD
ENDBRANCH   6   7
BRANCH   1  15
ATOM     15  C   UNL     1       6.216   5.236  15.564  0.00  0.00    +0.000 C 
ATOM     16  O   UNL     1       5.561   6.242  15.310  0.00  0.00    +0.000 OA
BRANCH  15  17
ATOM     17  O   UNL     1       6.799   4.446  14.622  0.00  0.00    +0.000 OA
BRANCH  17  19
ATOM     18  C   UNL     1       6.628   3.704  12.411  0.00  0.00    +0.000 C 
ATOM     19  C   UNL     1       5.890   3.792  13.733  0.00  0.00    +0.000 C 
ENDBRANCH  17  19
ENDBRANCH  15  17
ENDBRANCH   1  15
TORSDOF 4
ENDMDL
MODEL 3
REMARK VINA RESULT:      -6.2      2.815      5.256
REMARK  Name = 
REMARK  5 active torsions:
REMARK  status: ('A' for Active; 'I' for Inactive)
REMARK    1  A    between atoms: C_1  and  C_2
REMARK    2  A    between atoms: C_2  and  O_3
REMARK    3  A    between atoms: O_3  and  C_4
REMARK    4  A    between atoms: C_4  and  C_6
REMARK    5  A    between atoms: N_11  and  N_12
REMARK                            x       y       z     vdW  Elec       q    Type
REMARK                         _______ _______ _______ _____ _____    ______ ____
ROOT
ATOM      1  C   UNL     1       3.192   4.520  18.584  0.00  0.00    +0.000 C 
ATOM      2  C   UNL     1       2.979   5.777  19.436  0.00  0.00    +0.000 C 
ATOM      3  C   UNL     1       2.933   6.919  18.427  0.00  0.00    +0.000 C 
ATOM      4  C   UNL     1       4.047   6.592  17.444  0.00  0.00    +0.000 C 
ATOM      5  C   UNL     1       3.978   5.091  17.424  0.00  0.00    +0.000 C 
ATOM      6  N   UNL     1       4.563   4.281  16.617  0.00  0.00    +0.000 NA
ENDROOT
BRANCH   6   7
ATOM      7  N   UNL     1       5.426   4.752  15.687  0.00  0.00    +0.000 N 
ATOM      8  C   UNL     1       6.764   4.744  15.949  0.00  0.00    +0.000 C 
ATOM      9  N   UNL     1       7.294   4.293  17.035  0.00  0.00    +0.000 NA
ATOM     10  N   UNL     1       7.545   5.249  14.973  0.00  0.00    +0.000 N 
ATOM     11  H   UNL     1       5.145   5.506  15.067  0.00  0.00    +0.000 HD
ATOM     12  H   UNL     1       6.479   3.965  17.585  0.00  0.00    +0.000 HD
ATOM     13  H   UNL     1       7.337   4.842  14.069  0.00  0.00    +0.000 HD
ATOM     14  H   UNL     1       8.513   5.055  15.220  0.00  0.00    +0.000 HD
ENDBRANCH   6   7
BRANCH   1  15
ATOM     15  C   UNL     1       4.002   3.394  19.197  0.00  0.00    +0.000 C 
ATOM     16  O   UNL     1       5.165   3.490  19.574  0.00  0.00    +0.000 OA
BRANCH  15  17
ATOM     17  O   UNL     1       3.195   2.333  19.470  0.00  0.00    +0.000 OA
BRANCH  17  19
ATOM     18  C   UNL     1       2.191   2.733  21.543  0.00  0.00    +0.000 C 
ATOM     19  C   UNL     1       1.932   2.667  20.051  0.00  0.00    +0.000 C 
ENDBRANCH  17  19
ENDBRANCH  15  17
ENDBRANCH   1  15
TORSDOF 4
ENDMDL
MODEL 4
REMARK VINA RESULT:      -6.2      2.721      5.090
REMARK  Name = 
REMARK  5 active torsions:
REMARK  status: ('A' for Active; 'I' for Inactive)
REMARK    1  A    between atoms: C_1  and  C_2
REMARK    2  A    between atoms: C_2  and  O_3
REMARK    3  A    between atoms: O_3  and  C_4
REMARK    4  A    between atoms: C_4  and  C_6
REMARK    5  A    between atoms: N_11  and  N_12
REMARK                            x       y       z     vdW  Elec       q    Type
REMARK                         _______ _______ _______ _____ _____    ______ ____
ROOT
ATOM      1  C   UNL     1       3.507   4.890  18.554  0.00  0.00    +0.000 C 
ATOM      2  C   UNL     1       3.201   6.216  19.262  0.00  0.00    +0.000 C 
ATOM      3  C   UNL     1       3.028   7.223  18.130  0.00  0.00    +0.000 C 
ATOM      4  C   UNL     1       4.145   6.880  17.154  0.00  0.00    +0.000 C 
ATOM      5  C   UNL     1       4.212   5.387  17.311  0.00  0.00    +0.000 C 
ATOM      6  N   UNL     1       4.849   4.541  16.584  0.00  0.00    +0.000 NA
ENDROOT
BRANCH   6   7
ATOM      7  N   UNL     1       5.644   4.973  15.577  0.00  0.00    +0.000 N 
ATOM      8  C   UNL     1       6.997   4.854  15.694  0.00  0.00    +0.000 C 
ATOM      9  N   UNL     1       7.600   4.331  16.707  0.00  0.00    +0.000 NA
ATOM     10  N   UNL     1       7.709   5.327  14.651  0.00  0.00    +0.000 N 
ATOM     11  H   UNL     1       5.360   5.765  15.008  0.00  0.00    +0.000 HD
ATOM     12  H   UNL     1       6.825   4.050  17.334  0.00  0.00    +0.000 HD
ATOM     13  H   UNL     1       7.375   4.965  13.766  0.00  0.00    +0.000 HD
ATOM     14  H   UNL     1       8.679   5.053  14.789  0.00  0.00    +0.000 HD
ENDBRANCH   6   7
BRANCH   1  15
ATOM     15  C   UNL     1       4.429   3.919  19.266  0.00  0.00    +0.000 C 
ATOM     16  O   UNL     1       5.647   4.038  19.345  0.00  0.00    +0.000 OA
BRANCH  15  17
ATOM     17  O   UNL     1       3.700   3.025  19.985  0.00  0.00    +0.000 OA
BRANCH  17  19
ATOM     18  C   UNL     1       3.560   1.376  18.333  0.00  0.00    +0.000 C 
ATOM     19  C   UNL     1       2.739   2.281  19.231  0.00  0.00    +0.000 C 
ENDBRANCH  17  19
ENDBRANCH  15  17
ENDBRANCH   1  15
TORSDOF 4
ENDMDL
MODEL 5
REMARK VINA RESULT:      -6.2      3.041      5.463
REMARK  Name = 
REMARK  5 active torsions:
REMARK  status: ('A' for Active; 'I' for Inactive)
REMARK    1  A    between atoms: C_1  and  C_2
REMARK    2  A    between atoms: C_2  and  O_3
REMARK    3  A    between atoms: O_3  and  C_4
REMARK    4  A    between atoms: C_4  and  C_6
REMARK    5  A    between atoms: N_11  and  N_12
REMARK                            x       y       z     vdW  Elec       q    Type
REMARK                         _______ _______ _______ _____ _____    ______ ____
ROOT
ATOM      1  C   UNL     1       3.446   4.656  17.815  0.00  0.00    +0.000 C 
ATOM      2  C   UNL     1       2.992   5.766  18.771  0.00  0.00    +0.000 C 
ATOM      3  C   UNL     1       3.078   7.042  17.942  0.00  0.00    +0.000 C 
ATOM      4  C   UNL     1       4.384   6.899  17.174  0.00  0.00    +0.000 C 
ATOM      5  C   UNL     1       4.412   5.416  16.933  0.00  0.00    +0.000 C 
ATOM      6  N   UNL     1       5.194   4.753  16.161  0.00  0.00    +0.000 NA
ENDROOT
BRANCH   6   7
ATOM      7  N   UNL     1       6.195   5.383  15.503  0.00  0.00    +0.000 N 
ATOM      8  C   UNL     1       6.765   4.785  14.418  0.00  0.00    +0.000 C 
ATOM      9  N   UNL     1       6.407   3.642  13.941  0.00  0.00    +0.000 NA
ATOM     10  N   UNL     1       7.765   5.478  13.837  0.00  0.00    +0.000 N 
ATOM     11  H   UNL     1       6.836   5.988  16.008  0.00  0.00    +0.000 HD
ATOM     12  H   UNL     1       5.629   3.352  14.562  0.00  0.00    +0.000 HD
ATOM     13  H   UNL     1       7.502   6.437  13.643  0.00  0.00    +0.000 HD
ATOM     14  H   UNL     1       8.005   5.006  12.968  0.00  0.00    +0.000 HD
ENDBRANCH   6   7
BRANCH   1  15
ATOM     15  C   UNL     1       4.185   3.477  18.421  0.00  0.00    +0.000 C 
ATOM     16  O   UNL     1       5.011   3.555  19.324  0.00  0.00    +0.000 OA
BRANCH  15  17
ATOM     17  O   UNL     1       3.645   2.310  17.978  0.00  0.00    +0.000 OA
BRANCH  17  19
ATOM     18  C   UNL     1       1.709   1.998  19.251  0.00  0.00    +0.000 C 
ATOM     19  C   UNL     1       2.220   2.309  17.858  0.00  0.00    +0.000 C 
ENDBRANCH  17  19
ENDBRANCH  15  17
ENDBRANCH   1  15
TORSDOF 4
ENDMDL
MODEL 6
REMARK VINA RESULT:      -6.2      3.359      5.333
REMARK  Name = 
REMARK  5 active torsions:
REMARK  status: ('A' for Active; 'I' for Inactive)
REMARK    1  A    between atoms: C_1  and  C_2
REMARK    2  A    between atoms: C_2  and  O_3
REMARK    3  A    between atoms: O_3  and  C_4
REMARK    4  A    between atoms: C_4  and  C_6
REMARK    5  A    between atoms: N_11  and  N_12
REMARK                            x       y       z     vdW  Elec       q    Type
REMARK                         _______ _______ _______ _____ _____    ______ ____
ROOT
ATOM      1  C   UNL     1       2.903   3.617  17.789  0.00  0.00    +0.000 C 
ATOM      2  C   UNL     1       1.661   4.509  17.916  0.00  0.00    +0.000 C 
ATOM      3  C   UNL     1       2.200   5.931  17.806  0.00  0.00    +0.000 C 
ATOM      4  C   UNL     1       3.470   5.913  18.644  0.00  0.00    +0.000 C 
ATOM      5  C   UNL     1       3.963   4.518  18.385  0.00  0.00    +0.000 C 
ATOM      6  N   UNL     1       5.105   4.011  18.685  0.00  0.00    +0.000 NA
ENDROOT
BRANCH   6   7
ATOM      7  N   UNL     1       6.005   4.736  19.390  0.00  0.00    +0.000 N 
ATOM      8  C   UNL     1       7.277   4.866  18.917  0.00  0.00    +0.000 C 
ATOM      9  N   UNL     1       7.702   4.357  17.810  0.00  0.00    +0.000 NA
ATOM     10  N   UNL     1       8.109   5.589  19.693  0.00  0.00    +0.000 N 
ATOM     11  H   UNL     1       5.950   4.769  20.403  0.00  0.00    +0.000 HD
ATOM     12  H   UNL     1       6.867   3.877  17.427  0.00  0.00    +0.000 HD
ATOM     13  H   UNL     1       7.710   6.484  19.950  0.00  0.00    +0.000 HD
ATOM     14  H   UNL     1       8.971   5.735  19.172  0.00  0.00    +0.000 HD
ENDBRANCH   6   7
BRANCH   1  15
ATOM     15  C   UNL     1       2.902   2.311  18.560  0.00  0.00    +0.000 C 
ATOM     16  O   UNL     1       3.683   1.384  18.372  0.00  0.00    +0.000 OA
BRANCH  15  17
ATOM     17  O   UNL     1       2.065   2.400  19.628  0.00  0.00    +0.000 OA
BRANCH  17  19
ATOM     18  C   UNL     1       2.158   3.745  21.539  0.00  0.00    +0.000 C 
ATOM     19  C   UNL     1       2.712   2.486  20.901  0.00  0.00    +0.000 C 
ENDBRANCH  17  19
ENDBRANCH  15  17
ENDBRANCH   1  15
TORSDOF 4
ENDMDL
MODEL 7
REMARK VINA RESULT:      -6.2      1.723      3.030
REMARK  Name = 
REMARK  5 active torsions:
REMARK  status: ('A' for Active; 'I' for Inactive)
REMARK    1  A    between atoms: C_1  and  C_2
REMARK    2  A    between atoms: C_2  and  O_3
REMARK    3  A    between atoms: O_3  and  C_4
REMARK    4  A    between atoms: C_4  and  C_6
REMARK    5  A    between atoms: N_11  and  N_12
REMARK                            x       y       z     vdW  Elec       q    Type
REMARK                         _______ _______ _______ _____ _____    ______ ____
ROOT
ATOM      1  C   UNL     1       5.724   5.814  18.147  0.00  0.00    +0.000 C 
ATOM      2  C   UNL     1       5.228   6.854  17.135  0.00  0.00    +0.000 C 
ATOM      3  C   UNL     1       3.815   7.192  17.596  0.00  0.00    +0.000 C 
ATOM      4  C   UNL     1       3.215   5.846  17.975  0.00  0.00    +0.000 C 
ATOM      5  C   UNL     1       4.423   5.141  18.526  0.00  0.00    +0.000 C 
ATOM      6  N   UNL     1       4.468   4.034  19.175  0.00  0.00    +0.000 NA
ENDROOT
BRANCH   6   7
ATOM      7  N   UNL     1       3.340   3.310  19.363  0.00  0.00    +0.000 N 
ATOM      8  C   UNL     1       3.161   2.153  18.664  0.00  0.00    +0.000 C 
ATOM      9  N   UNL     1       4.012   1.666  17.826  0.00  0.00    +0.000 NA
ATOM     10  N   UNL     1       2.001   1.509  18.904  0.00  0.00    +0.000 N 
ATOM     11  H   UNL     1       2.468   3.777  19.593  0.00  0.00    +0.000 HD
ATOM     12  H   UNL     1       4.794   2.345  17.851  0.00  0.00    +0.000 HD
ATOM     13  H   UNL     1       1.834   1.379  19.894  0.00  0.00    +0.000 HD
ATOM     14  H   UNL     1       2.049   0.603  18.443  0.00  0.00    +0.000 HD
ENDBRANCH   6   7
BRANCH   1  15
ATOM     15  C   UNL     1       6.678   4.750  17.639  0.00  0.00    +0.000 C 
ATOM     16  O   UNL     1       7.736   4.441  18.177  0.00  0.00    +0.000 OA
BRANCH  15  17
ATOM     17  O   UNL     1       6.095   4.041  16.636  0.00  0.00    +0.000 OA
BRANCH  17  19
ATOM     18  C   UNL     1       5.618   4.335  14.366  0.00  0.00    +0.000 C 
ATOM     19  C   UNL     1       6.742   4.144  15.365  0.00  0.00    +0.000 C 
ENDBRANCH  17  19
ENDBRANCH  15  17
ENDBRANCH   1  15
TORSDOF 4
ENDMDL
MODEL 8
REMARK VINA RESULT:      -6.1      3.053      5.176
REMARK  Name = 
REMARK  5 active torsions:
REMARK  status: ('A' for Active; 'I' for Inactive)
REMARK    1  A    between atoms: C_1  and  C_2
REMARK    2  A    between atoms: C_2  and  O_3
REMARK    3  A    between atoms: O_3  and  C_4
REMARK    4  A    between atoms: C_4  and  C_6
REMARK    5  A    between atoms: N_11  and  N_12
REMARK                            x       y       z     vdW  Elec       q    Type
REMARK                         _______ _______ _______ _____ _____    ______ ____
ROOT
ATOM      1  C   UNL     1       3.836   2.409  18.793  0.00  0.00    +0.000 C 
ATOM      2  C   UNL     1       2.543   2.674  18.011  0.00  0.00    +0.000 C 
ATOM      3  C   UNL     1       2.967   3.595  16.873  0.00  0.00    +0.000 C 
ATOM      4  C   UNL     1       3.924   4.580  17.527  0.00  0.00    +0.000 C 
ATOM      5  C   UNL     1       4.588   3.699  18.547  0.00  0.00    +0.000 C 
ATOM      6  N   UNL     1       5.625   3.953  19.260  0.00  0.00    +0.000 NA
ENDROOT
BRANCH   6   7
ATOM      7  N   UNL     1       6.208   5.173  19.201  0.00  0.00    +0.000 N 
ATOM      8  C   UNL     1       7.370   5.327  18.505  0.00  0.00    +0.000 C 
ATOM      9  N   UNL     1       7.969   4.383  17.863  0.00  0.00    +0.000 NA
ATOM     10  N   UNL     1       7.887   6.573  18.516  0.00  0.00    +0.000 N 
ATOM     11  H   UNL     1       6.121   5.817  19.982  0.00  0.00    +0.000 HD
ATOM     12  H   UNL     1       7.357   3.560  18.013  0.00  0.00    +0.000 HD
ATOM     13  H   UNL     1       7.201   7.273  18.262  0.00  0.00    +0.000 HD
ATOM     14  H   UNL     1       8.659   6.593  17.854  0.00  0.00    +0.000 HD
ENDBRANCH   6   7
BRANCH   1  15
ATOM     15  C   UNL     1       3.714   2.210  20.292  0.00  0.00    +0.000 C 
ATOM     16  O   UNL     1       4.651   1.981  21.048  0.00  0.00    +0.000 OA
BRANCH  15  17
ATOM     17  O   UNL     1       2.460   2.536  20.705  0.00  0.00    +0.000 OA
BRANCH  17  19
ATOM     18  C   UNL     1       1.883   4.794  20.892  0.00  0.00    +0.000 C 
ATOM     19  C   UNL     1       2.394   3.594  21.665  0.00  0.00    +0.000 C 
ENDBRANCH  17  19
ENDBRANCH  15  17
ENDBRANCH   1  15
TORSDOF 4
ENDMDL
MODEL 9
REMARK VINA RESULT:      -6.1      1.259      1.515
REMARK  Name = 
REMARK  5 active torsions:
REMARK  status: ('A' for Active; 'I' for Inactive)
REMARK    1  A    between atoms: C_1  and  C_2
REMARK    2  A    between atoms: C_2  and  O_3
REMARK    3  A    between atoms: O_3  and  C_4
REMARK    4  A    between atoms: C_4  and  C_6
REMARK    5  A    between atoms: N_11  and  N_12
REMARK                            x       y       z     vdW  Elec       q    Type
REMARK                         _______ _______ _______ _____ _____    ______ ____
ROOT
ATOM      1  C   UNL     1       6.564   5.626  16.893  0.00  0.00    +0.000 C 
ATOM      2  C   UNL     1       6.914   4.782  15.661  0.00  0.00    +0.000 C 
ATOM      3  C   UNL     1       5.565   4.404  15.061  0.00  0.00    +0.000 C 
ATOM      4  C   UNL     1       4.708   4.048  16.267  0.00  0.00    +0.000 C 
ATOM      5  C   UNL     1       5.235   5.018  17.287  0.00  0.00    +0.000 C 
ATOM      6  N   UNL     1       4.745   5.300  18.440  0.00  0.00    +0.000 NA
ENDROOT
BRANCH   6   7
ATOM      7  N   UNL     1       3.663   4.632  18.901  0.00  0.00    +0.000 N 
ATOM      8  C   UNL     1       2.743   5.290  19.662  0.00  0.00    +0.000 C 
ATOM      9  N   UNL     1       2.812   6.540  19.974  0.00  0.00    +0.000 NA
ATOM     10  N   UNL     1       1.708   4.541  20.092  0.00  0.00    +0.000 N 
ATOM     11  H   UNL     1       3.731   3.643  19.122  0.00  0.00    +0.000 HD
ATOM     12  H   UNL     1       3.682   6.859  19.510  0.00  0.00    +0.000 HD
ATOM     13  H   UNL     1       1.271   4.026  19.337  0.00  0.00    +0.000 HD
ATOM     14  H   UNL     1       1.028   5.167  20.517  0.00  0.00    +0.000 HD
ENDBRANCH   6   7
BRANCH   1  15
ATOM     15  C   UNL     1       7.498   5.537  18.085  0.00  0.00    +0.000 C 
ATOM     16  O   UNL     1       8.019   4.505  18.493  0.00  0.00    +0.000 OA
BRANCH  15  17
ATOM     17  O   UNL     1       7.847   6.785  18.498  0.00  0.00    +0.000 OA
BRANCH  17  19
ATOM     18  C   UNL     1       8.355   9.032  18.099  0.00  0.00    +0.000 C 
ATOM     19  C   UNL     1       7.631   7.824  17.539  0.00  0.00    +0.000 C 
ENDBRANCH  17  19
ENDBRANCH  15  17
ENDBRANCH   1  15
TORSDOF 4
ENDMDL
