MODEL 1
REMARK VINA RESULT:      -8.0      0.000      0.000
REMARK  Name = 
REMARK  7 active torsions:
REMARK  status: ('A' for Active; 'I' for Inactive)
REMARK    1  A    between atoms: S_2  and  N_4
REMARK    2  A    between atoms: S_2  and  C_11
REMARK    3  A    between atoms: N_4  and  C_5
REMARK    4  A    between atoms: C_14  and  N_15
REMARK    5  A    between atoms: N_15  and  C_16
REMARK    6  A    between atoms: C_16  and  N_18
REMARK    7  A    between atoms: N_18  and  C_19
REMARK                            x       y       z     vdW  Elec       q    Type
REMARK                         _______ _______ _______ _____ _____    ______ ____
ROOT
ATOM      1  C   UNL     1       3.038   6.929  18.410  0.00  0.00    +0.000 A 
ATOM      2  C   UNL     1       2.612   6.878  19.741  0.00  0.00    +0.000 A 
ATOM      3  C   UNL     1       1.770   7.879  20.232  0.00  0.00    +0.000 A 
ATOM      4  C   UNL     1       1.410   8.957  19.413  0.00  0.00    +0.000 A 
ATOM      5  C   UNL     1       1.801   8.969  18.073  0.00  0.00    +0.000 A 
ATOM      6  C   UNL     1       2.616   7.958  17.569  0.00  0.00    +0.000 A 
ENDROOT
BRANCH   1   8
ATOM      7  O   UNL     1       5.212   5.536  18.863  0.00  0.00    +0.000 OA
ATOM      8  S   UNL     1       4.240   5.764  17.818  0.00  0.00    +0.000 S 
ATOM      9  O   UNL     1       4.658   6.202  16.501  0.00  0.00    +0.000 OA
BRANCH   8  10
ATOM     10  N   UNL     1       3.323   4.367  17.555  0.00  0.00    +0.000 N 
ATOM     11  H   UNL     1       3.815   3.740  16.918  0.00  0.00    +0.000 HD
BRANCH  10  12
ATOM     12  C   UNL     1       2.696   3.777  18.686  0.00  0.00    +0.000 A 
ATOM     13  C   UNL     1       1.305   3.755  18.756  0.00  0.00    +0.000 A 
ATOM     14  C   UNL     1       0.678   3.249  19.894  0.00  0.00    +0.000 A 
ATOM     15  C   UNL     1       1.444   2.772  20.958  0.00  0.00    +0.000 A 
ATOM     16  C   UNL     1       2.836   2.793  20.882  0.00  0.00    +0.000 A 
ATOM     17  C   UNL     1       3.466   3.298  19.745  0.00  0.00    +0.000 A 
ENDBRANCH  10  12
ENDBRANCH   8  10
ENDBRANCH   1   8
BRANCH   4  18
ATOM     18  N   UNL     1       0.594   9.963  19.952  0.00  0.00    +0.000 N 
ATOM     19  H   UNL     1       0.724  10.179  20.933  0.00  0.00    +0.000 HD
BRANCH  18  20
ATOM     20  C   UNL     1      -0.243  10.850  19.302  0.00  0.00    +0.000 C 
ATOM     21  S   UNL     1       0.099  12.424  18.856  0.00  0.00    +0.000 S 
BRANCH  20  22
ATOM     22  N   UNL     1      -1.532  10.387  19.157  0.00  0.00    +0.000 N 
ATOM     23  H   UNL     1      -2.020  10.154  20.015  0.00  0.00    +0.000 HD
BRANCH  22  24
ATOM     24  C   UNL     1      -2.319  10.513  17.996  0.00  0.00    +0.000 A 
ATOM     25  C   UNL     1      -3.434  11.349  18.030  0.00  0.00    +0.000 A 
ATOM     26  C   UNL     1      -4.229  11.489  16.890  0.00  0.00    +0.000 A 
ATOM     27  C   UNL     1      -3.882  10.837  15.705  0.00  0.00    +0.000 A 
ATOM     28  C   UNL     1      -2.750  10.033  15.660  0.00  0.00    +0.000 A 
ATOM     29  C   UNL     1      -1.973   9.865  16.805  0.00  0.00    +0.000 A 
ENDBRANCH  22  24
ENDBRANCH  20  22
ENDBRANCH  18  20
ENDBRANCH   4  18
TORSDOF 7
ENDMDL
MODEL 2
REMARK VINA RESULT:      -8.0      2.340      7.918
REMARK  Name = 
REMARK  7 active torsions:
REMARK  status: ('A' for Active; 'I' for Inactive)
REMARK    1  A    between atoms: S_2  and  N_4
REMARK    2  A    between atoms: S_2  and  C_11
REMARK    3  A    between atoms: N_4  and  C_5
REMARK    4  A    between atoms: C_14  and  N_15
REMARK    5  A    between atoms: N_15  and  C_16
REMARK    6  A    between atoms: C_16  and  N_18
REMARK    7  A    between atoms: N_18  and  C_19
REMARK                            x       y       z     vdW  Elec       q    Type
REMARK                         _______ _______ _______ _____ _____    ______ ____
ROOT
ATOM      1  C   UNL     1       1.366   9.214  19.207  0.00  0.00    +0.000 A 
ATOM      2  C   UNL     1       1.851   9.289  17.897  0.00  0.00    +0.000 A 
ATOM      3  C   UNL     1       2.652   8.256  17.401  0.00  0.00    +0.000 A 
ATOM      4  C   UNL     1       3.018   7.190  18.232  0.00  0.00    +0.000 A 
ATOM      5  C   UNL     1       2.486   7.104  19.521  0.00  0.00    +0.000 A 
ATOM      6  C   UNL     1       1.663   8.114  20.011  0.00  0.00    +0.000 A 
ENDROOT
BRANCH   1   8
ATOM      7  O   UNL     1       1.440  11.428  20.607  0.00  0.00    +0.000 OA
ATOM      8  S   UNL     1       0.492  10.590  19.909  0.00  0.00    +0.000 S 
ATOM      9  O   UNL     1      -0.674  10.063  20.591  0.00  0.00    +0.000 OA
BRANCH   8  10
ATOM     10  N   UNL     1      -0.112  11.396  18.549  0.00  0.00    +0.000 N 
ATOM     11  H   UNL     1       0.583  11.391  17.803  0.00  0.00    +0.000 HD
BRANCH  10  12
ATOM     12  C   UNL     1      -1.459  11.133  18.181  0.00  0.00    +0.000 A 
ATOM     13  C   UNL     1      -2.476  11.915  18.724  0.00  0.00    +0.000 A 
ATOM     14  C   UNL     1      -3.806  11.620  18.431  0.00  0.00    +0.000 A 
ATOM     15  C   UNL     1      -4.115  10.542  17.601  0.00  0.00    +0.000 A 
ATOM     16  C   UNL     1      -3.094   9.765  17.057  0.00  0.00    +0.000 A 
ATOM     17  C   UNL     1      -1.762  10.058  17.348  0.00  0.00    +0.000 A 
ENDBRANCH  10  12
ENDBRANCH   8  10
ENDBRANCH   1   8
BRANCH   4  18
ATOM     18  N   UNL     1       3.854   6.192  17.712  0.00  0.00    +0.000 N 
ATOM     19  H   UNL     1       4.086   6.259  16.727  0.00  0.00    +0.000 HD
BRANCH  18  20
ATOM     20  C   UNL     1       4.575   5.220  18.379  0.00  0.00    +0.000 C 
ATOM     21  S   UNL     1       6.137   5.339  18.963  0.00  0.00    +0.000 S 
BRANCH  20  22
ATOM     22  N   UNL     1       3.947   3.996  18.416  0.00  0.00    +0.000 N 
ATOM     23  H   UNL     1       4.353   3.269  17.836  0.00  0.00    +0.000 HD
BRANCH  22  24
ATOM     24  C   UNL     1       3.026   3.579  19.396  0.00  0.00    +0.000 A 
ATOM     25  C   UNL     1       1.664   3.633  19.102  0.00  0.00    +0.000 A 
ATOM     26  C   UNL     1       0.733   3.224  20.060  0.00  0.00    +0.000 A 
ATOM     27  C   UNL     1       1.161   2.714  21.286  0.00  0.00    +0.000 A 
ATOM     28  C   UNL     1       2.519   2.625  21.565  0.00  0.00    +0.000 A 
ATOM     29  C   UNL     1       3.451   3.063  20.626  0.00  0.00    +0.000 A 
ENDBRANCH  22  24
ENDBRANCH  20  22
ENDBRANCH  18  20
ENDBRANCH   4  18
TORSDOF 7
ENDMDL
MODEL 3
REMARK VINA RESULT:      -7.9      3.093      8.238
REMARK  Name = 
REMARK  7 active torsions:
REMARK  status: ('A' for Active; 'I' for Inactive)
REMARK    1  A    between atoms: S_2  and  N_4
REMARK    2  A    between atoms: S_2  and  C_11
REMARK    3  A    between atoms: N_4  and  C_5
REMARK    4  A    between atoms: C_14  and  N_15
REMARK    5  A    between atoms: N_15  and  C_16
REMARK    6  A    between atoms: C_16  and  N_18
REMARK    7  A    between atoms: N_18  and  C_19
REMARK                            x       y       z     vdW  Elec       q    Type
REMARK                         _______ _______ _______ _____ _____    ______ ____
ROOT
ATOM      1  C   UNL     1       1.654   7.757  20.312  0.00  0.00    +0.000 A 
ATOM      2  C   UNL     1       1.583   6.471  20.856  0.00  0.00    +0.000 A 
ATOM      3  C   UNL     1       2.079   5.387  20.125  0.00  0.00    +0.000 A 
ATOM      4  C   UNL     1       2.584   5.584  18.834  0.00  0.00    +0.000 A 
ATOM      5  C   UNL     1       2.694   6.879  18.324  0.00  0.00    +0.000 A 
ATOM      6  C   UNL     1       2.230   7.967  19.058  0.00  0.00    +0.000 A 
ENDROOT
BRANCH   1   8
ATOM      7  O   UNL     1       1.677   9.462  22.303  0.00  0.00    +0.000 OA
ATOM      8  S   UNL     1       0.879   9.118  21.147  0.00  0.00    +0.000 S 
ATOM      9  O   UNL     1      -0.527   8.799  21.287  0.00  0.00    +0.000 OA
BRANCH   8  10
ATOM     10  N   UNL     1       0.945  10.361  20.000  0.00  0.00    +0.000 N 
ATOM     11  H   UNL     1       1.768  10.249  19.410  0.00  0.00    +0.000 HD
BRANCH  10  12
ATOM     12  C   UNL     1      -0.270  10.715  19.355  0.00  0.00    +0.000 A 
ATOM     13  C   UNL     1      -1.092  11.678  19.936  0.00  0.00    +0.000 A 
ATOM     14  C   UNL     1      -2.322  11.980  19.353  0.00  0.00    +0.000 A 
ATOM     15  C   UNL     1      -2.727  11.315  18.196  0.00  0.00    +0.000 A 
ATOM     16  C   UNL     1      -1.900  10.355  17.616  0.00  0.00    +0.000 A 
ATOM     17  C   UNL     1      -0.669  10.051  18.196  0.00  0.00    +0.000 A 
ENDBRANCH  10  12
ENDBRANCH   8  10
ENDBRANCH   1   8
BRANCH   4  18
ATOM     18  N   UNL     1       3.037   4.467  18.116  0.00  0.00    +0.000 N 
ATOM     19  H   UNL     1       2.626   4.314  17.203  0.00  0.00    +0.000 HD
BRANCH  18  20
ATOM     20  C   UNL     1       4.108   3.635  18.380  0.00  0.00    +0.000 C 
ATOM     21  S   UNL     1       4.228   2.494  19.596  0.00  0.00    +0.000 S 
BRANCH  20  22
ATOM     22  N   UNL     1       5.223   3.913  17.622  0.00  0.00    +0.000 N 
ATOM     23  H   UNL     1       5.300   3.413  16.743  0.00  0.00    +0.000 HD
BRANCH  22  24
ATOM     24  C   UNL     1       6.070   5.026  17.792  0.00  0.00    +0.000 A 
ATOM     25  C   UNL     1       7.029   4.991  18.803  0.00  0.00    +0.000 A 
ATOM     26  C   UNL     1       7.880   6.083  18.988  0.00  0.00    +0.000 A 
ATOM     27  C   UNL     1       7.808   7.184  18.133  0.00  0.00    +0.000 A 
ATOM     28  C   UNL     1       6.877   7.204  17.102  0.00  0.00    +0.000 A 
ATOM     29  C   UNL     1       6.004   6.130  16.935  0.00  0.00    +0.000 A 
ENDBRANCH  22  24
ENDBRANCH  20  22
ENDBRANCH  18  20
ENDBRANCH   4  18
TORSDOF 7
ENDMDL
MODEL 4
REMARK VINA RESULT:      -7.8      2.186      3.130
REMARK  Name = 
REMARK  7 active torsions:
REMARK  status: ('A' for Active; 'I' for Inactive)
REMARK    1  A    between atoms: S_2  and  N_4
REMARK    2  A    between atoms: S_2  and  C_11
REMARK    3  A    between atoms: N_4  and  C_5
REMARK    4  A    between atoms: C_14  and  N_15
REMARK    5  A    between atoms: N_15  and  C_16
REMARK    6  A    between atoms: C_16  and  N_18
REMARK    7  A    between atoms: N_18  and  C_19
REMARK                            x       y       z     vdW  Elec       q    Type
REMARK                         _______ _______ _______ _____ _____    ______ ____
ROOT
ATOM      1  C   UNL     1       2.106   7.001  19.349  0.00  0.00    +0.000 A 
ATOM      2  C   UNL     1       1.621   7.385  20.603  0.00  0.00    +0.000 A 
ATOM      3  C   UNL     1       1.133   8.682  20.783  0.00  0.00    +0.000 A 
ATOM      4  C   UNL     1       1.190   9.606  19.732  0.00  0.00    +0.000 A 
ATOM      5  C   UNL     1       1.630   9.194  18.473  0.00  0.00    +0.000 A 
ATOM      6  C   UNL     1       2.090   7.894  18.278  0.00  0.00    +0.000 A 
ENDROOT
BRANCH   1   8
ATOM      7  O   UNL     1       2.229   4.722  18.060  0.00  0.00    +0.000 OA
ATOM      8  S   UNL     1       2.884   5.419  19.145  0.00  0.00    +0.000 S 
ATOM      9  O   UNL     1       2.990   4.813  20.457  0.00  0.00    +0.000 OA
BRANCH   8  10
ATOM     10  N   UNL     1       4.468   5.822  18.708  0.00  0.00    +0.000 N 
ATOM     11  H   UNL     1       5.106   5.614  19.475  0.00  0.00    +0.000 HD
BRANCH  10  12
ATOM     12  C   UNL     1       4.892   5.468  17.399  0.00  0.00    +0.000 A 
ATOM     13  C   UNL     1       5.355   4.176  17.162  0.00  0.00    +0.000 A 
ATOM     14  C   UNL     1       5.846   3.838  15.902  0.00  0.00    +0.000 A 
ATOM     15  C   UNL     1       5.877   4.794  14.886  0.00  0.00    +0.000 A 
ATOM     16  C   UNL     1       5.409   6.084  15.127  0.00  0.00    +0.000 A 
ATOM     17  C   UNL     1       4.917   6.426  16.386  0.00  0.00    +0.000 A 
ENDBRANCH  10  12
ENDBRANCH   8  10
ENDBRANCH   1   8
BRANCH   4  18
ATOM     18  N   UNL     1       0.726  10.910  19.961  0.00  0.00    +0.000 N 
ATOM     19  H   UNL     1       1.223  11.455  20.656  0.00  0.00    +0.000 HD
BRANCH  18  20
ATOM     20  C   UNL     1      -0.200  11.646  19.247  0.00  0.00    +0.000 C 
ATOM     21  S   UNL     1       0.017  13.154  18.561  0.00  0.00    +0.000 S 
BRANCH  20  22
ATOM     22  N   UNL     1      -1.462  11.097  19.251  0.00  0.00    +0.000 N 
ATOM     23  H   UNL     1      -1.928  11.058  20.151  0.00  0.00    +0.000 HD
BRANCH  22  24
ATOM     24  C   UNL     1      -2.268  10.892  18.114  0.00  0.00    +0.000 A 
ATOM     25  C   UNL     1      -3.479  11.577  18.019  0.00  0.00    +0.000 A 
ATOM     26  C   UNL     1      -4.293  11.390  16.899  0.00  0.00    +0.000 A 
ATOM     27  C   UNL     1      -3.877  10.563  15.855  0.00  0.00    +0.000 A 
ATOM     28  C   UNL     1      -2.653   9.909  15.933  0.00  0.00    +0.000 A 
ATOM     29  C   UNL     1      -1.853  10.067  17.063  0.00  0.00    +0.000 A 
ENDBRANCH  22  24
ENDBRANCH  20  22
ENDBRANCH  18  20
ENDBRANCH   4  18
TORSDOF 7
ENDMDL
MODEL 5
REMARK VINA RESULT:      -7.8      2.107      3.398
REMARK  Name = 
REMARK  7 active torsions:
REMARK  status: ('A' for Active; 'I' for Inactive)
REMARK    1  A    between atoms: S_2  and  N_4
REMARK    2  A    between atoms: S_2  and  C_11
REMARK    3  A    between atoms: N_4  and  C_5
REMARK    4  A    between atoms: C_14  and  N_15
REMARK    5  A    between atoms: N_15  and  C_16
REMARK    6  A    between atoms: C_16  and  N_18
REMARK    7  A    between atoms: N_18  and  C_19
REMARK                            x       y       z     vdW  Elec       q    Type
REMARK                         _______ _______ _______ _____ _____    ______ ____
ROOT
ATOM      1  C   UNL     1       2.514   6.615  18.708  0.00  0.00    +0.000 A 
ATOM      2  C   UNL     1       2.391   7.646  17.771  0.00  0.00    +0.000 A 
ATOM      3  C   UNL     1       1.900   8.890  18.179  0.00  0.00    +0.000 A 
ATOM      4  C   UNL     1       1.474   9.077  19.501  0.00  0.00    +0.000 A 
ATOM      5  C   UNL     1       1.649   8.055  20.435  0.00  0.00    +0.000 A 
ATOM      6  C   UNL     1       2.166   6.823  20.043  0.00  0.00    +0.000 A 
ENDROOT
BRANCH   1   8
ATOM      7  O   UNL     1       1.843   4.385  17.505  0.00  0.00    +0.000 OA
ATOM      8  S   UNL     1       2.974   4.985  18.178  0.00  0.00    +0.000 S 
ATOM      9  O   UNL     1       3.603   4.321  19.302  0.00  0.00    +0.000 OA
BRANCH   8  10
ATOM     10  N   UNL     1       4.223   5.277  17.075  0.00  0.00    +0.000 N 
ATOM     11  H   UNL     1       3.851   5.720  16.235  0.00  0.00    +0.000 HD
BRANCH  10  12
ATOM     12  C   UNL     1       5.441   5.794  17.593  0.00  0.00    +0.000 A 
ATOM     13  C   UNL     1       5.967   6.965  17.052  0.00  0.00    +0.000 A 
ATOM     14  C   UNL     1       7.198   7.441  17.498  0.00  0.00    +0.000 A 
ATOM     15  C   UNL     1       7.901   6.743  18.480  0.00  0.00    +0.000 A 
ATOM     16  C   UNL     1       7.370   5.574  19.022  0.00  0.00    +0.000 A 
ATOM     17  C   UNL     1       6.137   5.095  18.577  0.00  0.00    +0.000 A 
ENDBRANCH  10  12
ENDBRANCH   8  10
ENDBRANCH   1   8
BRANCH   4  18
ATOM     18  N   UNL     1       0.951  10.327  19.864  0.00  0.00    +0.000 N 
ATOM     19  H   UNL     1       1.432  10.825  20.603  0.00  0.00    +0.000 HD
BRANCH  18  20
ATOM     20  C   UNL     1      -0.021  11.083  19.237  0.00  0.00    +0.000 C 
ATOM     21  S   UNL     1       0.074  12.692  18.797  0.00  0.00    +0.000 S 
BRANCH  20  22
ATOM     22  N   UNL     1      -1.229  10.433  19.112  0.00  0.00    +0.000 N 
ATOM     23  H   UNL     1      -1.605  10.025  19.961  0.00  0.00    +0.000 HD
BRANCH  22  24
ATOM     24  C   UNL     1      -2.116  10.561  18.025  0.00  0.00    +0.000 A 
ATOM     25  C   UNL     1      -1.866   9.829  16.866  0.00  0.00    +0.000 A 
ATOM     26  C   UNL     1      -2.733   9.940  15.776  0.00  0.00    +0.000 A 
ATOM     27  C   UNL     1      -3.876  10.737  15.864  0.00  0.00    +0.000 A 
ATOM     28  C   UNL     1      -4.146  11.437  17.033  0.00  0.00    +0.000 A 
ATOM     29  C   UNL     1      -3.265  11.356  18.110  0.00  0.00    +0.000 A 
ENDBRANCH  22  24
ENDBRANCH  20  22
ENDBRANCH  18  20
ENDBRANCH   4  18
TORSDOF 7
ENDMDL
MODEL 6
REMARK VINA RESULT:      -7.8      3.062      8.194
REMARK  Name = 
REMARK  7 active torsions:
REMARK  status: ('A' for Active; 'I' for Inactive)
REMARK    1  A    between atoms: S_2  and  N_4
REMARK    2  A    between atoms: S_2  and  C_11
REMARK    3  A    between atoms: N_4  and  C_5
REMARK    4  A    between atoms: C_14  and  N_15
REMARK    5  A    between atoms: N_15  and  C_16
REMARK    6  A    between atoms: C_16  and  N_18
REMARK    7  A    between atoms: N_18  and  C_19
REMARK                            x       y       z     vdW  Elec       q    Type
REMARK                         _______ _______ _______ _____ _____    ______ ____
ROOT
ATOM      1  C   UNL     1       1.658   7.711  20.314  0.00  0.00    +0.000 A 
ATOM      2  C   UNL     1       1.599   6.393  20.780  0.00  0.00    +0.000 A 
ATOM      3  C   UNL     1       2.069   5.356  19.968  0.00  0.00    +0.000 A 
ATOM      4  C   UNL     1       2.534   5.632  18.676  0.00  0.00    +0.000 A 
ATOM      5  C   UNL     1       2.632   6.956  18.244  0.00  0.00    +0.000 A 
ATOM      6  C   UNL     1       2.194   7.997  19.059  0.00  0.00    +0.000 A 
ENDROOT
BRANCH   1   8
ATOM      7  O   UNL     1       1.758   9.300  22.396  0.00  0.00    +0.000 OA
ATOM      8  S   UNL     1       0.914   9.018  21.256  0.00  0.00    +0.000 S 
ATOM      9  O   UNL     1      -0.485   8.684  21.435  0.00  0.00    +0.000 OA
BRANCH   8  10
ATOM     10  N   UNL     1       0.929  10.324  20.181  0.00  0.00    +0.000 N 
ATOM     11  H   UNL     1       1.745  10.267  19.573  0.00  0.00    +0.000 HD
BRANCH  10  12
ATOM     12  C   UNL     1      -0.305  10.680  19.573  0.00  0.00    +0.000 A 
ATOM     13  C   UNL     1      -0.657  10.100  18.357  0.00  0.00    +0.000 A 
ATOM     14  C   UNL     1      -1.827  10.498  17.713  0.00  0.00    +0.000 A 
ATOM     15  C   UNL     1      -2.640  11.477  18.286  0.00  0.00    +0.000 A 
ATOM     16  C   UNL     1      -2.286  12.052  19.505  0.00  0.00    +0.000 A 
ATOM     17  C   UNL     1      -1.116  11.656  20.152  0.00  0.00    +0.000 A 
ENDBRANCH  10  12
ENDBRANCH   8  10
ENDBRANCH   1   8
BRANCH   4  18
ATOM     18  N   UNL     1       2.961   4.562  17.877  0.00  0.00    +0.000 N 
ATOM     19  H   UNL     1       3.028   4.735  16.880  0.00  0.00    +0.000 HD
BRANCH  18  20
ATOM     20  C   UNL     1       3.493   3.345  18.257  0.00  0.00    +0.000 C 
ATOM     21  S   UNL     1       2.658   1.990  18.769  0.00  0.00    +0.000 S 
BRANCH  20  22
ATOM     22  N   UNL     1       4.867   3.346  18.343  0.00  0.00    +0.000 N 
ATOM     23  H   UNL     1       5.305   2.441  18.480  0.00  0.00    +0.000 HD
BRANCH  22  24
ATOM     24  C   UNL     1       5.710   4.401  17.944  0.00  0.00    +0.000 A 
ATOM     25  C   UNL     1       6.263   5.224  18.924  0.00  0.00    +0.000 A 
ATOM     26  C   UNL     1       7.103   6.276  18.552  0.00  0.00    +0.000 A 
ATOM     27  C   UNL     1       7.430   6.475  17.210  0.00  0.00    +0.000 A 
ATOM     28  C   UNL     1       6.908   5.633  16.236  0.00  0.00    +0.000 A 
ATOM     29  C   UNL     1       6.044   4.602  16.600  0.00  0.00    +0.000 A 
ENDBRANCH  22  24
ENDBRANCH  20  22
ENDBRANCH  18  20
ENDBRANCH   4  18
TORSDOF 7
ENDMDL
MODEL 7
REMARK VINA RESULT:      -7.8      2.143      3.071
REMARK  Name = 
REMARK  7 active torsions:
REMARK  status: ('A' for Active; 'I' for Inactive)
REMARK    1  A    between atoms: S_2  and  N_4
REMARK    2  A    between atoms: S_2  and  C_11
REMARK    3  A    between atoms: N_4  and  C_5
REMARK    4  A    between atoms: C_14  and  N_15
REMARK    5  A    between atoms: N_15  and  C_16
REMARK    6  A    between atoms: C_16  and  N_18
REMARK    7  A    between atoms: N_18  and  C_19
REMARK                            x       y       z     vdW  Elec       q    Type
REMARK                         _______ _______ _______ _____ _____    ______ ____
ROOT
ATOM      1  C   UNL     1       2.124   7.267  19.676  0.00  0.00    +0.000 A 
ATOM      2  C   UNL     1       2.092   8.147  18.589  0.00  0.00    +0.000 A 
ATOM      3  C   UNL     1       1.522   9.413  18.747  0.00  0.00    +0.000 A 
ATOM      4  C   UNL     1       0.931   9.770  19.966  0.00  0.00    +0.000 A 
ATOM      5  C   UNL     1       1.015   8.900  21.055  0.00  0.00    +0.000 A 
ATOM      6  C   UNL     1       1.608   7.649  20.914  0.00  0.00    +0.000 A 
ENDROOT
BRANCH   1   8
ATOM      7  O   UNL     1       1.725   4.703  20.051  0.00  0.00    +0.000 OA
ATOM      8  S   UNL     1       2.689   5.599  19.450  0.00  0.00    +0.000 S 
ATOM      9  O   UNL     1       4.084   5.555  19.840  0.00  0.00    +0.000 OA
BRANCH   8  10
ATOM     10  N   UNL     1       2.687   5.417  17.768  0.00  0.00    +0.000 N 
ATOM     11  H   UNL     1       2.051   6.091  17.344  0.00  0.00    +0.000 HD
BRANCH  10  12
ATOM     12  C   UNL     1       3.944   5.225  17.133  0.00  0.00    +0.000 A 
ATOM     13  C   UNL     1       4.697   6.339  16.768  0.00  0.00    +0.000 A 
ATOM     14  C   UNL     1       5.895   6.167  16.076  0.00  0.00    +0.000 A 
ATOM     15  C   UNL     1       6.333   4.884  15.749  0.00  0.00    +0.000 A 
ATOM     16  C   UNL     1       5.578   3.772  16.120  0.00  0.00    +0.000 A 
ATOM     17  C   UNL     1       4.379   3.941  16.812  0.00  0.00    +0.000 A 
ENDBRANCH  10  12
ENDBRANCH   8  10
ENDBRANCH   1   8
BRANCH   4  18
ATOM     18  N   UNL     1       0.335  11.034  20.075  0.00  0.00    +0.000 N 
ATOM     19  H   UNL     1       0.690  11.645  20.802  0.00  0.00    +0.000 HD
BRANCH  18  20
ATOM     20  C   UNL     1      -0.548  11.662  19.217  0.00  0.00    +0.000 C 
ATOM     21  S   UNL     1      -0.360  13.150  18.481  0.00  0.00    +0.000 S 
BRANCH  20  22
ATOM     22  N   UNL     1      -1.757  11.014  19.099  0.00  0.00    +0.000 N 
ATOM     23  H   UNL     1      -2.277  10.881  19.960  0.00  0.00    +0.000 HD
BRANCH  22  24
ATOM     24  C   UNL     1      -2.466  10.818  17.898  0.00  0.00    +0.000 A 
ATOM     25  C   UNL     1      -3.662  11.507  17.705  0.00  0.00    +0.000 A 
ATOM     26  C   UNL     1      -4.381  11.328  16.521  0.00  0.00    +0.000 A 
ATOM     27  C   UNL     1      -3.881  10.505  15.511  0.00  0.00    +0.000 A 
ATOM     28  C   UNL     1      -2.670   9.847  15.687  0.00  0.00    +0.000 A 
ATOM     29  C   UNL     1      -1.966   9.997  16.881  0.00  0.00    +0.000 A 
ENDBRANCH  22  24
ENDBRANCH  20  22
ENDBRANCH  18  20
ENDBRANCH   4  18
TORSDOF 7
ENDMDL
MODEL 8
REMARK VINA RESULT:      -7.7      2.270      7.955
REMARK  Name = 
REMARK  7 active torsions:
REMARK  status: ('A' for Active; 'I' for Inactive)
REMARK    1  A    between atoms: S_2  and  N_4
REMARK    2  A    between atoms: S_2  and  C_11
REMARK    3  A    between atoms: N_4  and  C_5
REMARK    4  A    between atoms: C_14  and  N_15
REMARK    5  A    between atoms: N_15  and  C_16
REMARK    6  A    between atoms: C_16  and  N_18
REMARK    7  A    between atoms: N_18  and  C_19
REMARK                            x       y       z     vdW  Elec       q    Type
REMARK                         _______ _______ _______ _____ _____    ______ ____
ROOT
ATOM      1  C   UNL     1       1.454   8.875  19.125  0.00  0.00    +0.000 A 
ATOM      2  C   UNL     1       2.074   8.802  17.873  0.00  0.00    +0.000 A 
ATOM      3  C   UNL     1       2.968   7.760  17.610  0.00  0.00    +0.000 A 
ATOM      4  C   UNL     1       3.287   6.838  18.614  0.00  0.00    +0.000 A 
ATOM      5  C   UNL     1       2.623   6.894  19.841  0.00  0.00    +0.000 A 
ATOM      6  C   UNL     1       1.708   7.911  20.101  0.00  0.00    +0.000 A 
ENDROOT
BRANCH   1   8
ATOM      7  O   UNL     1       1.296  11.291  20.129  0.00  0.00    +0.000 OA
ATOM      8  S   UNL     1       0.449  10.279  19.537  0.00  0.00    +0.000 S 
ATOM      9  O   UNL     1      -0.719   9.788  20.240  0.00  0.00    +0.000 OA
BRANCH   8  10
ATOM     10  N   UNL     1      -0.120  10.800  18.031  0.00  0.00    +0.000 N 
ATOM     11  H   UNL     1       0.463  10.419  17.286  0.00  0.00    +0.000 HD
BRANCH  10  12
ATOM     12  C   UNL     1      -1.525  10.782  17.825  0.00  0.00    +0.000 A 
ATOM     13  C   UNL     1      -2.065   9.892  16.900  0.00  0.00    +0.000 A 
ATOM     14  C   UNL     1      -3.433   9.917  16.632  0.00  0.00    +0.000 A 
ATOM     15  C   UNL     1      -4.255  10.834  17.287  0.00  0.00    +0.000 A 
ATOM     16  C   UNL     1      -3.711  11.721  18.215  0.00  0.00    +0.000 A 
ATOM     17  C   UNL     1      -2.343  11.698  18.485  0.00  0.00    +0.000 A 
ENDBRANCH  10  12
ENDBRANCH   8  10
ENDBRANCH   1   8
BRANCH   4  18
ATOM     18  N   UNL     1       4.217   5.829  18.324  0.00  0.00    +0.000 N 
ATOM     19  H   UNL     1       5.027   5.768  18.930  0.00  0.00    +0.000 HD
BRANCH  18  20
ATOM     20  C   UNL     1       4.112   4.770  17.443  0.00  0.00    +0.000 C 
ATOM     21  S   UNL     1       5.062   4.469  16.102  0.00  0.00    +0.000 S 
BRANCH  20  22
ATOM     22  N   UNL     1       3.001   3.984  17.656  0.00  0.00    +0.000 N 
ATOM     23  H   UNL     1       2.629   3.509  16.841  0.00  0.00    +0.000 HD
BRANCH  22  24
ATOM     24  C   UNL     1       2.546   3.535  18.911  0.00  0.00    +0.000 A 
ATOM     25  C   UNL     1       3.471   3.002  19.807  0.00  0.00    +0.000 A 
ATOM     26  C   UNL     1       3.042   2.550  21.058  0.00  0.00    +0.000 A 
ATOM     27  C   UNL     1       1.703   2.679  21.432  0.00  0.00    +0.000 A 
ATOM     28  C   UNL     1       0.788   3.244  20.553  0.00  0.00    +0.000 A 
ATOM     29  C   UNL     1       1.205   3.665  19.291  0.00  0.00    +0.000 A 
ENDBRANCH  22  24
ENDBRANCH  20  22
ENDBRANCH  18  20
ENDBRANCH   4  18
TORSDOF 7
ENDMDL
MODEL 9
REMARK VINA RESULT:      -7.7      1.206      1.474
REMARK  Name = 
REMARK  7 active torsions:
REMARK  status: ('A' for Active; 'I' for Inactive)
REMARK    1  A    between atoms: S_2  and  N_4
REMARK    2  A    between atoms: S_2  and  C_11
REMARK    3  A    between atoms: N_4  and  C_5
REMARK    4  A    between atoms: C_14  and  N_15
REMARK    5  A    between atoms: N_15  and  C_16
REMARK    6  A    between atoms: C_16  and  N_18
REMARK    7  A    between atoms: N_18  and  C_19
REMARK                            x       y       z     vdW  Elec       q    Type
REMARK                         _______ _______ _______ _____ _____    ______ ____
ROOT
ATOM      1  C   UNL     1       2.347   7.773  18.700  0.00  0.00    +0.000 A 
ATOM      2  C   UNL     1       1.834   7.855  19.999  0.00  0.00    +0.000 A 
ATOM      3  C   UNL     1       1.116   8.991  20.384  0.00  0.00    +0.000 A 
ATOM      4  C   UNL     1       0.970  10.063  19.495  0.00  0.00    +0.000 A 
ATOM      5  C   UNL     1       1.444   9.947  18.187  0.00  0.00    +0.000 A 
ATOM      6  C   UNL     1       2.134   8.806  17.787  0.00  0.00    +0.000 A 
ENDROOT
BRANCH   1   8
ATOM      7  O   UNL     1       4.591   6.955  17.621  0.00  0.00    +0.000 OA
ATOM      8  S   UNL     1       3.402   6.420  18.246  0.00  0.00    +0.000 S 
ATOM      9  O   UNL     1       2.582   5.440  17.561  0.00  0.00    +0.000 OA
BRANCH   8  10
ATOM     10  N   UNL     1       3.789   5.718  19.735  0.00  0.00    +0.000 N 
ATOM     11  H   UNL     1       3.828   6.434  20.460  0.00  0.00    +0.000 HD
BRANCH  10  12
ATOM     12  C   UNL     1       3.143   4.497  20.067  0.00  0.00    +0.000 A 
ATOM     13  C   UNL     1       3.591   3.312  19.487  0.00  0.00    +0.000 A 
ATOM     14  C   UNL     1       2.918   2.119  19.744  0.00  0.00    +0.000 A 
ATOM     15  C   UNL     1       1.799   2.115  20.576  0.00  0.00    +0.000 A 
ATOM     16  C   UNL     1       1.357   3.301  21.158  0.00  0.00    +0.000 A 
ATOM     17  C   UNL     1       2.027   4.497  20.903  0.00  0.00    +0.000 A 
ENDBRANCH  10  12
ENDBRANCH   8  10
ENDBRANCH   1   8
BRANCH   4  18
ATOM     18  N   UNL     1       0.276  11.202  19.930  0.00  0.00    +0.000 N 
ATOM     19  H   UNL     1       0.551  11.590  20.825  0.00  0.00    +0.000 HD
BRANCH  18  20
ATOM     20  C   UNL     1      -0.611  12.003  19.236  0.00  0.00    +0.000 C 
ATOM     21  S   UNL     1      -0.338  13.544  18.649  0.00  0.00    +0.000 S 
BRANCH  20  22
ATOM     22  N   UNL     1      -1.885  11.487  19.171  0.00  0.00    +0.000 N 
ATOM     23  H   UNL     1      -2.458  11.610  20.000  0.00  0.00    +0.000 HD
BRANCH  22  24
ATOM     24  C   UNL     1      -2.555  11.109  17.991  0.00  0.00    +0.000 A 
ATOM     25  C   UNL     1      -3.814  11.649  17.733  0.00  0.00    +0.000 A 
ATOM     26  C   UNL     1      -4.496  11.289  16.568  0.00  0.00    +0.000 A 
ATOM     27  C   UNL     1      -3.901  10.434  15.639  0.00  0.00    +0.000 A 
ATOM     28  C   UNL     1      -2.630   9.925  15.878  0.00  0.00    +0.000 A 
ATOM     29  C   UNL     1      -1.960  10.256  17.055  0.00  0.00    +0.000 A 
ENDBRANCH  22  24
ENDBRANCH  20  22
ENDBRANCH  18  20
ENDBRANCH   4  18
TORSDOF 7
ENDMDL
