MODEL 1
REMARK VINA RESULT:      -7.4      0.000      0.000
REMARK  Name = 
REMARK  4 active torsions:
REMARK  status: ('A' for Active; 'I' for Inactive)
REMARK    1  A    between atoms: C_2  and  C_3
REMARK    2  A    between atoms: C_3  and  C_10
REMARK    3  A    between atoms: C_4  and  C_5
REMARK    4  A    between atoms: C_16  and  C_17
REMARK                            x       y       z     vdW  Elec       q    Type
REMARK                         _______ _______ _______ _____ _____    ______ ____
ROOT
ATOM      1  C   UNL     1       3.105   6.712  18.803  0.00  0.00    +0.000 C 
ATOM      2  O   UNL     1       2.745   6.311  19.906  0.00  0.00    +0.000 OA
ATOM      3  N   UNL     1       2.689   7.867  18.176  0.00  0.00    +0.000 N 
ATOM      4  C   UNL     1       1.831   8.805  18.688  0.00  0.00    +0.000 A 
ATOM      5  N   UNL     1       1.375   9.801  17.963  0.00  0.00    +0.000 NA
ATOM      6  N   UNL     1       0.511  10.608  18.678  0.00  0.00    +0.000 NA
ATOM      7  C   UNL     1       0.349  10.197  19.923  0.00  0.00    +0.000 A 
ATOM      8  S   UNL     1       1.305   8.815  20.301  0.00  0.00    +0.000 S 
ATOM      9  H   UNL     1       2.946   8.085  17.219  0.00  0.00    +0.000 HD
ENDROOT
BRANCH   7  10
ATOM     10  C   UNL     1      -0.526  10.836  20.916  0.00  0.00    +0.000 A 
ATOM     11  C   UNL     1      -0.526  10.465  22.273  0.00  0.00    +0.000 A 
ATOM     12  C   UNL     1      -1.390  11.079  23.184  0.00  0.00    +0.000 A 
ATOM     13  C   UNL     1      -2.265  12.071  22.755  0.00  0.00    +0.000 A 
ATOM     14  C   UNL     1      -2.280  12.453  21.417  0.00  0.00    +0.000 A 
ATOM     15  C   UNL     1      -1.418  11.839  20.503  0.00  0.00    +0.000 A 
ENDBRANCH   7  10
BRANCH   1  16
ATOM     16  C   UNL     1       4.070   5.885  18.009  0.00  0.00    +0.000 C 
ATOM     17  C   UNL     1       4.426   6.255  16.762  0.00  0.00    +0.000 C 
BRANCH  17  18
ATOM     18  C   UNL     1       5.348   5.493  15.982  0.00  0.00    +0.000 A 
ATOM     19  C   UNL     1       5.146   4.321  15.261  0.00  0.00    +0.000 A 
ATOM     20  C   UNL     1       6.368   3.974  14.632  0.00  0.00    +0.000 A 
ATOM     21  C   UNL     1       7.269   4.938  15.010  0.00  0.00    +0.000 A 
ATOM     22  O   UNL     1       6.674   5.835  15.830  0.00  0.00    +0.000 OA
ENDBRANCH  17  18
BRANCH  16  24
ATOM     23  N   UNL     1       5.265   3.691  19.233  0.00  0.00    +0.000 NA
ATOM     24  C   UNL     1       4.722   4.685  18.678  0.00  0.00    +0.000 C 
ENDBRANCH  16  24
ENDBRANCH   1  16
TORSDOF 4
ENDMDL
MODEL 2
REMARK VINA RESULT:      -7.2      0.237      1.033
REMARK  Name = 
REMARK  4 active torsions:
REMARK  status: ('A' for Active; 'I' for Inactive)
REMARK    1  A    between atoms: C_2  and  C_3
REMARK    2  A    between atoms: C_3  and  C_10
REMARK    3  A    between atoms: C_4  and  C_5
REMARK    4  A    between atoms: C_16  and  C_17
REMARK                            x       y       z     vdW  Elec       q    Type
REMARK                         _______ _______ _______ _____ _____    ______ ____
ROOT
ATOM      1  C   UNL     1       2.954   6.654  18.834  0.00  0.00    +0.000 C 
ATOM      2  O   UNL     1       2.530   6.253  19.914  0.00  0.00    +0.000 OA
ATOM      3  N   UNL     1       2.610   7.830  18.204  0.00  0.00    +0.000 N 
ATOM      4  C   UNL     1       1.764   8.794  18.690  0.00  0.00    +0.000 A 
ATOM      5  N   UNL     1       1.379   9.814  17.959  0.00  0.00    +0.000 NA
ATOM      6  N   UNL     1       0.512  10.645  18.644  0.00  0.00    +0.000 NA
ATOM      7  C   UNL     1       0.280  10.225  19.875  0.00  0.00    +0.000 A 
ATOM      8  S   UNL     1       1.167   8.804  20.278  0.00  0.00    +0.000 S 
ATOM      9  H   UNL     1       2.917   8.050  17.263  0.00  0.00    +0.000 HD
ENDROOT
BRANCH   7  10
ATOM     10  C   UNL     1      -0.616  10.884  20.837  0.00  0.00    +0.000 A 
ATOM     11  C   UNL     1      -1.505  11.907  20.462  0.00  0.00    +0.000 A 
ATOM     12  C   UNL     1      -2.325  12.528  21.409  0.00  0.00    +0.000 A 
ATOM     13  C   UNL     1      -2.268  12.138  22.743  0.00  0.00    +0.000 A 
ATOM     14  C   UNL     1      -1.395  11.127  23.134  0.00  0.00    +0.000 A 
ATOM     15  C   UNL     1      -0.573  10.506  22.189  0.00  0.00    +0.000 A 
ENDBRANCH   7  10
BRANCH   1  16
ATOM     16  C   UNL     1       3.923   5.801  18.073  0.00  0.00    +0.000 C 
ATOM     17  C   UNL     1       4.431   6.222  16.897  0.00  0.00    +0.000 C 
BRANCH  17  18
ATOM     18  C   UNL     1       5.361   5.437  16.150  0.00  0.00    +0.000 A 
ATOM     19  C   UNL     1       5.129   4.472  15.176  0.00  0.00    +0.000 A 
ATOM     20  C   UNL     1       6.385   4.001  14.715  0.00  0.00    +0.000 A 
ATOM     21  C   UNL     1       7.329   4.683  15.440  0.00  0.00    +0.000 A 
ATOM     22  O   UNL     1       6.727   5.526  16.310  0.00  0.00    +0.000 OA
ENDBRANCH  17  18
BRANCH  16  24
ATOM     23  N   UNL     1       4.806   3.431  19.230  0.00  0.00    +0.000 NA
ATOM     24  C   UNL     1       4.406   4.506  18.706  0.00  0.00    +0.000 C 
ENDBRANCH  16  24
ENDBRANCH   1  16
TORSDOF 4
ENDMDL
MODEL 3
REMARK VINA RESULT:      -7.1      1.750      1.881
REMARK  Name = 
REMARK  4 active torsions:
REMARK  status: ('A' for Active; 'I' for Inactive)
REMARK    1  A    between atoms: C_2  and  C_3
REMARK    2  A    between atoms: C_3  and  C_10
REMARK    3  A    between atoms: C_4  and  C_5
REMARK    4  A    between atoms: C_16  and  C_17
REMARK                            x       y       z     vdW  Elec       q    Type
REMARK                         _______ _______ _______ _____ _____    ______ ____
ROOT
ATOM      1  C   UNL     1       2.597   7.780  18.216  0.00  0.00    +0.000 C 
ATOM      2  O   UNL     1       2.288   8.735  17.509  0.00  0.00    +0.000 OA
ATOM      3  N   UNL     1       2.254   7.595  19.538  0.00  0.00    +0.000 N 
ATOM      4  C   UNL     1       1.464   8.421  20.295  0.00  0.00    +0.000 A 
ATOM      5  N   UNL     1       1.309   8.244  21.587  0.00  0.00    +0.000 NA
ATOM      6  N   UNL     1       0.489   9.205  22.147  0.00  0.00    +0.000 NA
ATOM      7  C   UNL     1       0.046  10.073  21.254  0.00  0.00    +0.000 A 
ATOM      8  S   UNL     1       0.574   9.716  19.654  0.00  0.00    +0.000 S 
ATOM      9  H   UNL     1       2.632   6.836  20.094  0.00  0.00    +0.000 HD
ENDROOT
BRANCH   7  10
ATOM     10  C   UNL     1      -0.824  11.220  21.551  0.00  0.00    +0.000 A 
ATOM     11  C   UNL     1      -1.237  11.537  22.858  0.00  0.00    +0.000 A 
ATOM     12  C   UNL     1      -2.085  12.621  23.099  0.00  0.00    +0.000 A 
ATOM     13  C   UNL     1      -2.533  13.405  22.041  0.00  0.00    +0.000 A 
ATOM     14  C   UNL     1      -2.136  13.108  20.740  0.00  0.00    +0.000 A 
ATOM     15  C   UNL     1      -1.289  12.022  20.497  0.00  0.00    +0.000 A 
ENDBRANCH   7  10
BRANCH   1  16
ATOM     16  C   UNL     1       3.456   6.697  17.638  0.00  0.00    +0.000 C 
ATOM     17  C   UNL     1       4.620   6.998  17.027  0.00  0.00    +0.000 C 
BRANCH  17  18
ATOM     18  C   UNL     1       5.465   5.989  16.473  0.00  0.00    +0.000 A 
ATOM     19  C   UNL     1       5.526   5.494  15.175  0.00  0.00    +0.000 A 
ATOM     20  C   UNL     1       6.553   4.519  15.122  0.00  0.00    +0.000 A 
ATOM     21  C   UNL     1       7.064   4.445  16.393  0.00  0.00    +0.000 A 
ATOM     22  O   UNL     1       6.408   5.304  17.208  0.00  0.00    +0.000 OA
ENDBRANCH  17  18
BRANCH  16  24
ATOM     23  N   UNL     1       2.704   4.049  18.033  0.00  0.00    +0.000 NA
ATOM     24  C   UNL     1       3.045   5.250  17.854  0.00  0.00    +0.000 C 
ENDBRANCH  16  24
ENDBRANCH   1  16
TORSDOF 4
ENDMDL
MODEL 4
REMARK VINA RESULT:      -7.1      1.763      2.108
REMARK  Name = 
REMARK  4 active torsions:
REMARK  status: ('A' for Active; 'I' for Inactive)
REMARK    1  A    between atoms: C_2  and  C_3
REMARK    2  A    between atoms: C_3  and  C_10
REMARK    3  A    between atoms: C_4  and  C_5
REMARK    4  A    between atoms: C_16  and  C_17
REMARK                            x       y       z     vdW  Elec       q    Type
REMARK                         _______ _______ _______ _____ _____    ______ ____
ROOT
ATOM      1  C   UNL     1       2.583   7.788  18.200  0.00  0.00    +0.000 C 
ATOM      2  O   UNL     1       2.264   8.728  17.477  0.00  0.00    +0.000 OA
ATOM      3  N   UNL     1       2.247   7.624  19.526  0.00  0.00    +0.000 N 
ATOM      4  C   UNL     1       1.453   8.457  20.272  0.00  0.00    +0.000 A 
ATOM      5  N   UNL     1       1.304   8.302  21.567  0.00  0.00    +0.000 NA
ATOM      6  N   UNL     1       0.479   9.267  22.113  0.00  0.00    +0.000 NA
ATOM      7  C   UNL     1       0.026  10.115  21.207  0.00  0.00    +0.000 A 
ATOM      8  S   UNL     1       0.550   9.733  19.611  0.00  0.00    +0.000 S 
ATOM      9  H   UNL     1       2.633   6.877  20.094  0.00  0.00    +0.000 HD
ENDROOT
BRANCH   7  10
ATOM     10  C   UNL     1      -0.852  11.260  21.486  0.00  0.00    +0.000 A 
ATOM     11  C   UNL     1      -1.286  12.143  20.481  0.00  0.00    +0.000 A 
ATOM     12  C   UNL     1      -2.102  13.235  20.788  0.00  0.00    +0.000 A 
ATOM     13  C   UNL     1      -2.495  13.463  22.103  0.00  0.00    +0.000 A 
ATOM     14  C   UNL     1      -2.077  12.601  23.113  0.00  0.00    +0.000 A 
ATOM     15  C   UNL     1      -1.260  11.508  22.807  0.00  0.00    +0.000 A 
ENDBRANCH   7  10
BRANCH   1  16
ATOM     16  C   UNL     1       3.449   6.702  17.638  0.00  0.00    +0.000 C 
ATOM     17  C   UNL     1       4.635   6.995  17.068  0.00  0.00    +0.000 C 
BRANCH  17  18
ATOM     18  C   UNL     1       5.486   5.983  16.530  0.00  0.00    +0.000 A 
ATOM     19  C   UNL     1       5.583   5.502  15.229  0.00  0.00    +0.000 A 
ATOM     20  C   UNL     1       6.602   4.515  15.199  0.00  0.00    +0.000 A 
ATOM     21  C   UNL     1       7.070   4.422  16.485  0.00  0.00    +0.000 A 
ATOM     22  O   UNL     1       6.397   5.279  17.288  0.00  0.00    +0.000 OA
ENDBRANCH  17  18
BRANCH  16  24
ATOM     23  N   UNL     1       2.656   4.057  17.979  0.00  0.00    +0.000 NA
ATOM     24  C   UNL     1       3.016   5.256  17.825  0.00  0.00    +0.000 C 
ENDBRANCH  16  24
ENDBRANCH   1  16
TORSDOF 4
ENDMDL
MODEL 5
REMARK VINA RESULT:      -6.9      2.322      2.918
REMARK  Name = 
REMARK  4 active torsions:
REMARK  status: ('A' for Active; 'I' for Inactive)
REMARK    1  A    between atoms: C_2  and  C_3
REMARK    2  A    between atoms: C_3  and  C_10
REMARK    3  A    between atoms: C_4  and  C_5
REMARK    4  A    between atoms: C_16  and  C_17
REMARK                            x       y       z     vdW  Elec       q    Type
REMARK                         _______ _______ _______ _____ _____    ______ ____
ROOT
ATOM      1  C   UNL     1       1.758   8.031  19.761  0.00  0.00    +0.000 C 
ATOM      2  O   UNL     1       1.363   8.823  18.910  0.00  0.00    +0.000 OA
ATOM      3  N   UNL     1       1.550   8.120  21.121  0.00  0.00    +0.000 N 
ATOM      4  C   UNL     1       0.824   9.085  21.771  0.00  0.00    +0.000 A 
ATOM      5  N   UNL     1       0.801   9.175  23.080  0.00  0.00    +0.000 NA
ATOM      6  N   UNL     1       0.024  10.232  23.513  0.00  0.00    +0.000 NA
ATOM      7  C   UNL     1      -0.521  10.901  22.512  0.00  0.00    +0.000 A 
ATOM      8  S   UNL     1      -0.147  10.224  20.973  0.00  0.00    +0.000 S 
ATOM      9  H   UNL     1       1.995   7.488  21.778  0.00  0.00    +0.000 HD
ENDROOT
BRANCH   7  10
ATOM     10  C   UNL     1      -1.378  12.087  22.656  0.00  0.00    +0.000 A 
ATOM     11  C   UNL     1      -2.664  12.025  23.221  0.00  0.00    +0.000 A 
ATOM     12  C   UNL     1      -3.460  13.169  23.320  0.00  0.00    +0.000 A 
ATOM     13  C   UNL     1      -2.984  14.391  22.856  0.00  0.00    +0.000 A 
ATOM     14  C   UNL     1      -1.713  14.474  22.294  0.00  0.00    +0.000 A 
ATOM     15  C   UNL     1      -0.916  13.330  22.193  0.00  0.00    +0.000 A 
ENDBRANCH   7  10
BRANCH   1  16
ATOM     16  C   UNL     1       2.575   6.851  19.332  0.00  0.00    +0.000 C 
ATOM     17  C   UNL     1       3.408   6.941  18.275  0.00  0.00    +0.000 C 
BRANCH  17  18
ATOM     18  C   UNL     1       4.205   5.837  17.845  0.00  0.00    +0.000 A 
ATOM     19  C   UNL     1       3.875   4.772  17.013  0.00  0.00    +0.000 A 
ATOM     20  C   UNL     1       5.023   3.954  16.868  0.00  0.00    +0.000 A 
ATOM     21  C   UNL     1       6.000   4.543  17.631  0.00  0.00    +0.000 A 
ATOM     22  O   UNL     1       5.515   5.654  18.231  0.00  0.00    +0.000 OA
ENDBRANCH  17  18
BRANCH  16  24
ATOM     23  N   UNL     1       2.492   4.541  20.879  0.00  0.00    +0.000 NA
ATOM     24  C   UNL     1       2.530   5.589  20.178  0.00  0.00    +0.000 C 
ENDBRANCH  16  24
ENDBRANCH   1  16
TORSDOF 4
ENDMDL
MODEL 6
REMARK VINA RESULT:      -6.9      1.483      2.124
REMARK  Name = 
REMARK  4 active torsions:
REMARK  status: ('A' for Active; 'I' for Inactive)
REMARK    1  A    between atoms: C_2  and  C_3
REMARK    2  A    between atoms: C_3  and  C_10
REMARK    3  A    between atoms: C_4  and  C_5
REMARK    4  A    between atoms: C_16  and  C_17
REMARK                            x       y       z     vdW  Elec       q    Type
REMARK                         _______ _______ _______ _____ _____    ______ ____
ROOT
ATOM      1  C   UNL     1       4.336   6.172  17.698  0.00  0.00    +0.000 C 
ATOM      2  O   UNL     1       4.204   5.630  18.791  0.00  0.00    +0.000 OA
ATOM      3  N   UNL     1       3.682   7.304  17.260  0.00  0.00    +0.000 N 
ATOM      4  C   UNL     1       2.796   8.060  17.984  0.00  0.00    +0.000 A 
ATOM      5  N   UNL     1       2.109   9.037  17.439  0.00  0.00    +0.000 NA
ATOM      6  N   UNL     1       1.265   9.646  18.348  0.00  0.00    +0.000 NA
ATOM      7  C   UNL     1       1.350   9.111  19.553  0.00  0.00    +0.000 A 
ATOM      8  S   UNL     1       2.526   7.856  19.646  0.00  0.00    +0.000 S 
ATOM      9  H   UNL     1       3.758   7.638  16.306  0.00  0.00    +0.000 HD
ENDROOT
BRANCH   7  10
ATOM     10  C   UNL     1       0.561   9.529  20.721  0.00  0.00    +0.000 A 
ATOM     11  C   UNL     1      -0.445  10.508  20.641  0.00  0.00    +0.000 A 
ATOM     12  C   UNL     1      -1.159  10.898  21.777  0.00  0.00    +0.000 A 
ATOM     13  C   UNL     1      -0.879  10.317  23.009  0.00  0.00    +0.000 A 
ATOM     14  C   UNL     1       0.113   9.345  23.110  0.00  0.00    +0.000 A 
ATOM     15  C   UNL     1       0.829   8.955  21.974  0.00  0.00    +0.000 A 
ENDBRANCH   7  10
BRANCH   1  16
ATOM     16  C   UNL     1       5.268   5.565  16.694  0.00  0.00    +0.000 C 
ATOM     17  C   UNL     1       4.985   5.614  15.377  0.00  0.00    +0.000 C 
BRANCH  17  18
ATOM     18  C   UNL     1       5.855   5.052  14.394  0.00  0.00    +0.000 A 
ATOM     19  C   UNL     1       5.706   3.899  13.631  0.00  0.00    +0.000 A 
ATOM     20  C   UNL     1       6.833   3.788  12.777  0.00  0.00    +0.000 A 
ATOM     21  C   UNL     1       7.630   4.866  13.068  0.00  0.00    +0.000 A 
ATOM     22  O   UNL     1       7.064   5.613  14.044  0.00  0.00    +0.000 OA
ENDBRANCH  17  18
BRANCH  16  24
ATOM     23  N   UNL     1       7.688   4.521  17.584  0.00  0.00    +0.000 NA
ATOM     24  C   UNL     1       6.591   4.994  17.181  0.00  0.00    +0.000 C 
ENDBRANCH  16  24
ENDBRANCH   1  16
TORSDOF 4
ENDMDL
MODEL 7
REMARK VINA RESULT:      -6.9      1.461      1.835
REMARK  Name = 
REMARK  4 active torsions:
REMARK  status: ('A' for Active; 'I' for Inactive)
REMARK    1  A    between atoms: C_2  and  C_3
REMARK    2  A    between atoms: C_3  and  C_10
REMARK    3  A    between atoms: C_4  and  C_5
REMARK    4  A    between atoms: C_16  and  C_17
REMARK                            x       y       z     vdW  Elec       q    Type
REMARK                         _______ _______ _______ _____ _____    ______ ____
ROOT
ATOM      1  C   UNL     1       4.361   6.171  17.767  0.00  0.00    +0.000 C 
ATOM      2  O   UNL     1       4.261   5.661  18.879  0.00  0.00    +0.000 OA
ATOM      3  N   UNL     1       3.679   7.278  17.308  0.00  0.00    +0.000 N 
ATOM      4  C   UNL     1       2.796   8.042  18.026  0.00  0.00    +0.000 A 
ATOM      5  N   UNL     1       2.082   8.991  17.466  0.00  0.00    +0.000 NA
ATOM      6  N   UNL     1       1.246   9.614  18.374  0.00  0.00    +0.000 NA
ATOM      7  C   UNL     1       1.366   9.118  19.593  0.00  0.00    +0.000 A 
ATOM      8  S   UNL     1       2.564   7.885  19.699  0.00  0.00    +0.000 S 
ATOM      9  H   UNL     1       3.731   7.583  16.342  0.00  0.00    +0.000 HD
ENDROOT
BRANCH   7  10
ATOM     10  C   UNL     1       0.593   9.560  20.763  0.00  0.00    +0.000 A 
ATOM     11  C   UNL     1       0.678   8.916  22.010  0.00  0.00    +0.000 A 
ATOM     12  C   UNL     1      -0.090   9.349  23.095  0.00  0.00    +0.000 A 
ATOM     13  C   UNL     1      -0.953  10.430  22.950  0.00  0.00    +0.000 A 
ATOM     14  C   UNL     1      -1.051  11.082  21.724  0.00  0.00    +0.000 A 
ATOM     15  C   UNL     1      -0.285  10.648  20.637  0.00  0.00    +0.000 A 
ENDBRANCH   7  10
BRANCH   1  16
ATOM     16  C   UNL     1       5.282   5.548  16.763  0.00  0.00    +0.000 C 
ATOM     17  C   UNL     1       4.992   5.589  15.446  0.00  0.00    +0.000 C 
BRANCH  17  18
ATOM     18  C   UNL     1       5.852   5.011  14.464  0.00  0.00    +0.000 A 
ATOM     19  C   UNL     1       5.677   3.869  13.691  0.00  0.00    +0.000 A 
ATOM     20  C   UNL     1       6.804   3.735  12.842  0.00  0.00    +0.000 A 
ATOM     21  C   UNL     1       7.628   4.789  13.145  0.00  0.00    +0.000 A 
ATOM     22  O   UNL     1       7.077   5.543  14.124  0.00  0.00    +0.000 OA
ENDBRANCH  17  18
BRANCH  16  24
ATOM     23  N   UNL     1       7.697   4.489  17.648  0.00  0.00    +0.000 NA
ATOM     24  C   UNL     1       6.602   4.968  17.247  0.00  0.00    +0.000 C 
ENDBRANCH  16  24
ENDBRANCH   1  16
TORSDOF 4
ENDMDL
MODEL 8
REMARK VINA RESULT:      -6.8      2.405      9.361
REMARK  Name = 
REMARK  4 active torsions:
REMARK  status: ('A' for Active; 'I' for Inactive)
REMARK    1  A    between atoms: C_2  and  C_3
REMARK    2  A    between atoms: C_3  and  C_10
REMARK    3  A    between atoms: C_4  and  C_5
REMARK    4  A    between atoms: C_16  and  C_17
REMARK                            x       y       z     vdW  Elec       q    Type
REMARK                         _______ _______ _______ _____ _____    ______ ____
ROOT
ATOM      1  C   UNL     1       0.973   9.651  19.136  0.00  0.00    +0.000 C 
ATOM      2  O   UNL     1       1.187   9.949  17.965  0.00  0.00    +0.000 OA
ATOM      3  N   UNL     1       1.423   8.524  19.789  0.00  0.00    +0.000 N 
ATOM      4  C   UNL     1       2.235   7.551  19.265  0.00  0.00    +0.000 A 
ATOM      5  N   UNL     1       2.495   6.439  19.912  0.00  0.00    +0.000 NA
ATOM      6  N   UNL     1       3.315   5.596  19.185  0.00  0.00    +0.000 NA
ATOM      7  C   UNL     1       3.652   6.107  18.014  0.00  0.00    +0.000 A 
ATOM      8  S   UNL     1       3.018   7.690  17.767  0.00  0.00    +0.000 S 
ATOM      9  H   UNL     1       1.121   8.285  20.727  0.00  0.00    +0.000 HD
ENDROOT
BRANCH   7  10
ATOM     10  C   UNL     1       4.495   5.438  17.012  0.00  0.00    +0.000 A 
ATOM     11  C   UNL     1       4.711   4.049  17.014  0.00  0.00    +0.000 A 
ATOM     12  C   UNL     1       5.538   3.450  16.060  0.00  0.00    +0.000 A 
ATOM     13  C   UNL     1       6.161   4.229  15.090  0.00  0.00    +0.000 A 
ATOM     14  C   UNL     1       5.959   5.607  15.071  0.00  0.00    +0.000 A 
ATOM     15  C   UNL     1       5.133   6.207  16.026  0.00  0.00    +0.000 A 
ENDBRANCH   7  10
BRANCH   1  16
ATOM     16  C   UNL     1       0.117  10.554  19.971  0.00  0.00    +0.000 C 
ATOM     17  C   UNL     1       0.430  10.797  21.259  0.00  0.00    +0.000 C 
BRANCH  17  18
ATOM     18  C   UNL     1      -0.360  11.658  22.080  0.00  0.00    +0.000 A 
ATOM     19  C   UNL     1      -1.468  11.365  22.868  0.00  0.00    +0.000 A 
ATOM     20  C   UNL     1      -1.878  12.559  23.513  0.00  0.00    +0.000 A 
ATOM     21  C   UNL     1      -1.017  13.534  23.077  0.00  0.00    +0.000 A 
ATOM     22  O   UNL     1      -0.122  13.009  22.208  0.00  0.00    +0.000 OA
ENDBRANCH  17  18
BRANCH  16  24
ATOM     23  N   UNL     1      -2.006  11.876  18.753  0.00  0.00    +0.000 NA
ATOM     24  C   UNL     1      -1.043  11.277  19.305  0.00  0.00    +0.000 C 
ENDBRANCH  16  24
ENDBRANCH   1  16
TORSDOF 4
ENDMDL
MODEL 9
REMARK VINA RESULT:      -6.8      2.429      9.414
REMARK  Name = 
REMARK  4 active torsions:
REMARK  status: ('A' for Active; 'I' for Inactive)
REMARK    1  A    between atoms: C_2  and  C_3
REMARK    2  A    between atoms: C_3  and  C_10
REMARK    3  A    between atoms: C_4  and  C_5
REMARK    4  A    between atoms: C_16  and  C_17
REMARK                            x       y       z     vdW  Elec       q    Type
REMARK                         _______ _______ _______ _____ _____    ______ ____
ROOT
ATOM      1  C   UNL     1       0.883   9.731  19.144  0.00  0.00    +0.000 C 
ATOM      2  O   UNL     1       1.082  10.016  17.967  0.00  0.00    +0.000 OA
ATOM      3  N   UNL     1       1.355   8.620  19.809  0.00  0.00    +0.000 N 
ATOM      4  C   UNL     1       2.173   7.649  19.290  0.00  0.00    +0.000 A 
ATOM      5  N   UNL     1       2.454   6.550  19.951  0.00  0.00    +0.000 NA
ATOM      6  N   UNL     1       3.277   5.708  19.228  0.00  0.00    +0.000 NA
ATOM      7  C   UNL     1       3.596   6.206  18.046  0.00  0.00    +0.000 A 
ATOM      8  S   UNL     1       2.939   7.777  17.782  0.00  0.00    +0.000 S 
ATOM      9  H   UNL     1       1.065   8.392  20.754  0.00  0.00    +0.000 HD
ENDROOT
BRANCH   7  10
ATOM     10  C   UNL     1       4.436   5.533  17.045  0.00  0.00    +0.000 A 
ATOM     11  C   UNL     1       5.079   6.230  16.006  0.00  0.00    +0.000 A 
ATOM     12  C   UNL     1       5.851   5.553  15.058  0.00  0.00    +0.000 A 
ATOM     13  C   UNL     1       5.992   4.171  15.133  0.00  0.00    +0.000 A 
ATOM     14  C   UNL     1       5.364   3.463  16.154  0.00  0.00    +0.000 A 
ATOM     15  C   UNL     1       4.590   4.138  17.102  0.00  0.00    +0.000 A 
ENDBRANCH   7  10
BRANCH   1  16
ATOM     16  C   UNL     1       0.025  10.636  19.975  0.00  0.00    +0.000 C 
ATOM     17  C   UNL     1       0.361  10.921  21.249  0.00  0.00    +0.000 C 
BRANCH  17  18
ATOM     18  C   UNL     1      -0.431  11.785  22.065  0.00  0.00    +0.000 A 
ATOM     19  C   UNL     1      -1.585  11.510  22.792  0.00  0.00    +0.000 A 
ATOM     20  C   UNL     1      -1.977  12.697  23.461  0.00  0.00    +0.000 A 
ATOM     21  C   UNL     1      -1.058  13.650  23.101  0.00  0.00    +0.000 A 
ATOM     22  O   UNL     1      -0.146  13.119  22.254  0.00  0.00    +0.000 OA
ENDBRANCH  17  18
BRANCH  16  24
ATOM     23  N   UNL     1      -2.158  11.874  18.775  0.00  0.00    +0.000 NA
ATOM     24  C   UNL     1      -1.168  11.313  19.318  0.00  0.00    +0.000 C 
ENDBRANCH  16  24
ENDBRANCH   1  16
TORSDOF 4
ENDMDL
