MODEL 1
REMARK VINA RESULT:      -8.1      0.000      0.000
REMARK  Name = 
REMARK  3 active torsions:
REMARK  status: ('A' for Active; 'I' for Inactive)
REMARK    1  A    between atoms: C_4  and  N_5
REMARK    2  A    between atoms: N_5  and  N_6
REMARK    3  A    between atoms: C_7  and  C_9
REMARK                            x       y       z     vdW  Elec       q    Type
REMARK                         _______ _______ _______ _____ _____    ______ ____
ROOT
ATOM      1  N   UNL     1       4.744   3.479  17.300  0.00  0.00    +0.000 N 
ATOM      2  C   UNL     1       4.905   3.876  18.619  0.00  0.00    +0.000 C 
ATOM      3  O   UNL     1       5.959   4.305  19.071  0.00  0.00    +0.000 OA
ATOM      4  H   UNL     1       3.849   3.131  16.971  0.00  0.00    +0.000 HD
ENDROOT
BRANCH   2   5
ATOM      5  C   UNL     1       3.678   3.808  19.461  0.00  0.00    +0.000 A 
ATOM      6  C   UNL     1       3.137   2.588  19.901  0.00  0.00    +0.000 A 
ATOM      7  C   UNL     1       1.960   2.573  20.653  0.00  0.00    +0.000 A 
ATOM      8  C   UNL     1       1.328   3.774  20.973  0.00  0.00    +0.000 A 
ATOM      9  C   UNL     1       1.881   4.978  20.552  0.00  0.00    +0.000 A 
ATOM     10  F   UNL     1       1.272   6.127  20.868  0.00  0.00    +0.000 F 
ATOM     11  C   UNL     1       3.052   5.009  19.804  0.00  0.00    +0.000 A 
ENDBRANCH   2   5
BRANCH   1  12
ATOM     12  N   UNL     1       5.845   3.474  16.419  0.00  0.00    +0.000 NA
ATOM     13  H   UNL     1       6.696   3.647  16.981  0.00  0.00    +0.000 HD
BRANCH  12  17
ATOM     14  O   UNL     1       7.261   4.306  12.182  0.00  0.00    +0.000 OA
ATOM     15  C   UNL     1       6.922   4.525  13.334  0.00  0.00    +0.000 C 
ATOM     16  C   UNL     1       5.681   3.998  13.979  0.00  0.00    +0.000 C 
ATOM     17  C   UNL     1       5.731   4.541  15.410  0.00  0.00    +0.000 C 
ATOM     18  C   UNL     1       6.996   5.384  15.426  0.00  0.00    +0.000 C 
ATOM     19  O   UNL     1       7.411   6.045  16.364  0.00  0.00    +0.000 OA
ATOM     20  N   UNL     1       7.608   5.283  14.219  0.00  0.00    +0.000 N 
ATOM     21  H   UNL     1       8.479   5.741  13.998  0.00  0.00    +0.000 HD
ENDBRANCH  12  17
ENDBRANCH   1  12
TORSDOF 3
ENDMDL
MODEL 2
REMARK VINA RESULT:      -8.0      1.353      1.595
REMARK  Name = 
REMARK  3 active torsions:
REMARK  status: ('A' for Active; 'I' for Inactive)
REMARK    1  A    between atoms: C_4  and  N_5
REMARK    2  A    between atoms: N_5  and  N_6
REMARK    3  A    between atoms: C_7  and  C_9
REMARK                            x       y       z     vdW  Elec       q    Type
REMARK                         _______ _______ _______ _____ _____    ______ ____
ROOT
ATOM      1  N   UNL     1       4.685   3.369  17.132  0.00  0.00    +0.000 N 
ATOM      2  C   UNL     1       4.520   4.145  18.269  0.00  0.00    +0.000 C 
ATOM      3  O   UNL     1       5.324   4.997  18.627  0.00  0.00    +0.000 OA
ATOM      4  H   UNL     1       3.989   2.676  16.874  0.00  0.00    +0.000 HD
ENDROOT
BRANCH   2   5
ATOM      5  C   UNL     1       3.250   3.925  19.015  0.00  0.00    +0.000 A 
ATOM      6  C   UNL     1       3.010   4.504  20.274  0.00  0.00    +0.000 A 
ATOM      7  C   UNL     1       1.821   4.233  20.955  0.00  0.00    +0.000 A 
ATOM      8  C   UNL     1       0.870   3.392  20.379  0.00  0.00    +0.000 A 
ATOM      9  C   UNL     1       1.106   2.840  19.124  0.00  0.00    +0.000 A 
ATOM     10  F   UNL     1       0.186   2.039  18.576  0.00  0.00    +0.000 F 
ATOM     11  C   UNL     1       2.284   3.102  18.434  0.00  0.00    +0.000 A 
ENDBRANCH   2   5
BRANCH   1  12
ATOM     12  N   UNL     1       5.863   3.473  16.364  0.00  0.00    +0.000 NA
ATOM     13  H   UNL     1       6.634   3.724  17.006  0.00  0.00    +0.000 HD
BRANCH  12  17
ATOM     14  O   UNL     1       7.272   4.255  12.115  0.00  0.00    +0.000 OA
ATOM     15  C   UNL     1       6.935   4.487  13.264  0.00  0.00    +0.000 C 
ATOM     16  C   UNL     1       5.695   3.969  13.918  0.00  0.00    +0.000 C 
ATOM     17  C   UNL     1       5.748   4.528  15.343  0.00  0.00    +0.000 C 
ATOM     18  C   UNL     1       7.013   5.371  15.347  0.00  0.00    +0.000 C 
ATOM     19  O   UNL     1       7.429   6.042  16.277  0.00  0.00    +0.000 OA
ATOM     20  N   UNL     1       7.623   5.255  14.140  0.00  0.00    +0.000 N 
ATOM     21  H   UNL     1       8.493   5.710  13.912  0.00  0.00    +0.000 HD
ENDBRANCH  12  17
ENDBRANCH   1  12
TORSDOF 3
ENDMDL
MODEL 3
REMARK VINA RESULT:      -7.9      3.799      6.309
REMARK  Name = 
REMARK  3 active torsions:
REMARK  status: ('A' for Active; 'I' for Inactive)
REMARK    1  A    between atoms: C_4  and  N_5
REMARK    2  A    between atoms: N_5  and  N_6
REMARK    3  A    between atoms: C_7  and  C_9
REMARK                            x       y       z     vdW  Elec       q    Type
REMARK                         _______ _______ _______ _____ _____    ______ ____
ROOT
ATOM      1  N   UNL     1       2.949   4.217  17.625  0.00  0.00    +0.000 N 
ATOM      2  C   UNL     1       3.261   5.447  18.184  0.00  0.00    +0.000 C 
ATOM      3  O   UNL     1       2.444   6.154  18.761  0.00  0.00    +0.000 OA
ATOM      4  H   UNL     1       3.662   3.667  17.157  0.00  0.00    +0.000 HD
ENDROOT
BRANCH   2   5
ATOM      5  C   UNL     1       4.694   5.845  18.096  0.00  0.00    +0.000 A 
ATOM      6  C   UNL     1       5.198   6.601  17.023  0.00  0.00    +0.000 A 
ATOM      7  C   UNL     1       6.559   6.912  16.963  0.00  0.00    +0.000 A 
ATOM      8  C   UNL     1       7.413   6.478  17.975  0.00  0.00    +0.000 A 
ATOM      9  C   UNL     1       6.902   5.749  19.044  0.00  0.00    +0.000 A 
ATOM     10  F   UNL     1       7.728   5.341  20.015  0.00  0.00    +0.000 F 
ATOM     11  C   UNL     1       5.551   5.432  19.118  0.00  0.00    +0.000 A 
ENDBRANCH   2   5
BRANCH   1  12
ATOM     12  N   UNL     1       1.618   3.753  17.624  0.00  0.00    +0.000 NA
ATOM     13  H   UNL     1       1.007   4.553  17.863  0.00  0.00    +0.000 HD
BRANCH  12  17
ATOM     14  O   UNL     1       2.018   3.231  22.121  0.00  0.00    +0.000 OA
ATOM     15  C   UNL     1       2.021   2.942  20.936  0.00  0.00    +0.000 C 
ATOM     16  C   UNL     1       0.920   3.249  19.973  0.00  0.00    +0.000 C 
ATOM     17  C   UNL     1       1.416   2.699  18.632  0.00  0.00    +0.000 C 
ATOM     18  C   UNL     1       2.758   2.073  18.979  0.00  0.00    +0.000 C 
ATOM     19  O   UNL     1       3.493   1.474  18.213  0.00  0.00    +0.000 OA
ATOM     20  N   UNL     1       3.019   2.292  20.293  0.00  0.00    +0.000 N 
ATOM     21  H   UNL     1       3.864   1.986  20.749  0.00  0.00    +0.000 HD
ENDBRANCH  12  17
ENDBRANCH   1  12
TORSDOF 3
ENDMDL
MODEL 4
REMARK VINA RESULT:      -7.8      2.808      3.628
REMARK  Name = 
REMARK  3 active torsions:
REMARK  status: ('A' for Active; 'I' for Inactive)
REMARK    1  A    between atoms: C_4  and  N_5
REMARK    2  A    between atoms: N_5  and  N_6
REMARK    3  A    between atoms: C_7  and  C_9
REMARK                            x       y       z     vdW  Elec       q    Type
REMARK                         _______ _______ _______ _____ _____    ______ ____
ROOT
ATOM      1  N   UNL     1       4.661   5.445  17.545  0.00  0.00    +0.000 N 
ATOM      2  C   UNL     1       3.441   5.889  18.030  0.00  0.00    +0.000 C 
ATOM      3  O   UNL     1       3.010   7.021  17.841  0.00  0.00    +0.000 OA
ATOM      4  H   UNL     1       4.975   4.496  17.727  0.00  0.00    +0.000 HD
ENDROOT
BRANCH   2   5
ATOM      5  C   UNL     1       2.633   4.872  18.758  0.00  0.00    +0.000 A 
ATOM      6  C   UNL     1       1.675   4.071  18.111  0.00  0.00    +0.000 A 
ATOM      7  C   UNL     1       0.911   3.161  18.845  0.00  0.00    +0.000 A 
ATOM      8  C   UNL     1       1.107   3.043  20.220  0.00  0.00    +0.000 A 
ATOM      9  C   UNL     1       2.070   3.824  20.849  0.00  0.00    +0.000 A 
ATOM     10  F   UNL     1       2.256   3.701  22.169  0.00  0.00    +0.000 F 
ATOM     11  C   UNL     1       2.839   4.733  20.133  0.00  0.00    +0.000 A 
ENDBRANCH   2   5
BRANCH   1  12
ATOM     12  N   UNL     1       5.522   6.331  16.866  0.00  0.00    +0.000 NA
ATOM     13  H   UNL     1       5.342   6.229  15.853  0.00  0.00    +0.000 HD
BRANCH  12  17
ATOM     14  O   UNL     1       8.163   5.174  20.378  0.00  0.00    +0.000 OA
ATOM     15  C   UNL     1       7.839   5.669  19.311  0.00  0.00    +0.000 C 
ATOM     16  C   UNL     1       7.114   4.954  18.217  0.00  0.00    +0.000 C 
ATOM     17  C   UNL     1       6.936   6.007  17.120  0.00  0.00    +0.000 C 
ATOM     18  C   UNL     1       7.638   7.232  17.686  0.00  0.00    +0.000 C 
ATOM     19  O   UNL     1       7.779   8.305  17.125  0.00  0.00    +0.000 OA
ATOM     20  N   UNL     1       8.084   6.945  18.936  0.00  0.00    +0.000 N 
ATOM     21  H   UNL     1       8.564   7.612  19.520  0.00  0.00    +0.000 HD
ENDBRANCH  12  17
ENDBRANCH   1  12
TORSDOF 3
ENDMDL
MODEL 5
REMARK VINA RESULT:      -7.8      4.197      6.459
REMARK  Name = 
REMARK  3 active torsions:
REMARK  status: ('A' for Active; 'I' for Inactive)
REMARK    1  A    between atoms: C_4  and  N_5
REMARK    2  A    between atoms: N_5  and  N_6
REMARK    3  A    between atoms: C_7  and  C_9
REMARK                            x       y       z     vdW  Elec       q    Type
REMARK                         _______ _______ _______ _____ _____    ______ ____
ROOT
ATOM      1  N   UNL     1       6.759   4.221  16.834  0.00  0.00    +0.000 N 
ATOM      2  C   UNL     1       5.753   4.074  15.891  0.00  0.00    +0.000 C 
ATOM      3  O   UNL     1       4.568   3.962  16.180  0.00  0.00    +0.000 OA
ATOM      4  H   UNL     1       7.728   4.312  16.545  0.00  0.00    +0.000 HD
ENDROOT
BRANCH   2   5
ATOM      5  C   UNL     1       6.195   4.124  14.470  0.00  0.00    +0.000 A 
ATOM      6  C   UNL     1       5.628   3.305  13.478  0.00  0.00    +0.000 A 
ATOM      7  C   UNL     1       6.106   3.357  12.167  0.00  0.00    +0.000 A 
ATOM      8  C   UNL     1       7.144   4.230  11.843  0.00  0.00    +0.000 A 
ATOM      9  C   UNL     1       7.686   5.052  12.826  0.00  0.00    +0.000 A 
ATOM     10  F   UNL     1       8.678   5.891  12.506  0.00  0.00    +0.000 F 
ATOM     11  C   UNL     1       7.220   5.012  14.134  0.00  0.00    +0.000 A 
ENDBRANCH   2   5
BRANCH   1  12
ATOM     12  N   UNL     1       6.458   4.160  18.210  0.00  0.00    +0.000 NA
ATOM     13  H   UNL     1       5.532   3.710  18.309  0.00  0.00    +0.000 HD
BRANCH  12  17
ATOM     14  O   UNL     1       7.934   8.359  17.297  0.00  0.00    +0.000 OA
ATOM     15  C   UNL     1       7.593   7.389  17.954  0.00  0.00    +0.000 C 
ATOM     16  C   UNL     1       6.331   6.615  17.751  0.00  0.00    +0.000 C 
ATOM     17  C   UNL     1       6.386   5.505  18.805  0.00  0.00    +0.000 C 
ATOM     18  C   UNL     1       7.678   5.791  19.555  0.00  0.00    +0.000 C 
ATOM     19  O   UNL     1       8.105   5.174  20.516  0.00  0.00    +0.000 OA
ATOM     20  N   UNL     1       8.296   6.853  18.978  0.00  0.00    +0.000 N 
ATOM     21  H   UNL     1       9.182   7.217  19.291  0.00  0.00    +0.000 HD
ENDBRANCH  12  17
ENDBRANCH   1  12
TORSDOF 3
ENDMDL
MODEL 6
REMARK VINA RESULT:      -7.8      3.152      3.824
REMARK  Name = 
REMARK  3 active torsions:
REMARK  status: ('A' for Active; 'I' for Inactive)
REMARK    1  A    between atoms: C_4  and  N_5
REMARK    2  A    between atoms: N_5  and  N_6
REMARK    3  A    between atoms: C_7  and  C_9
REMARK                            x       y       z     vdW  Elec       q    Type
REMARK                         _______ _______ _______ _____ _____    ______ ____
ROOT
ATOM      1  N   UNL     1       4.483   5.792  18.141  0.00  0.00    +0.000 N 
ATOM      2  C   UNL     1       3.128   6.012  18.337  0.00  0.00    +0.000 C 
ATOM      3  O   UNL     1       2.516   6.950  17.840  0.00  0.00    +0.000 OA
ATOM      4  H   UNL     1       4.945   4.999  18.574  0.00  0.00    +0.000 HD
ENDROOT
BRANCH   2   5
ATOM      5  C   UNL     1       2.425   4.986  19.156  0.00  0.00    +0.000 A 
ATOM      6  C   UNL     1       2.565   4.916  20.554  0.00  0.00    +0.000 A 
ATOM      7  C   UNL     1       1.920   3.908  21.274  0.00  0.00    +0.000 A 
ATOM      8  C   UNL     1       1.130   2.976  20.603  0.00  0.00    +0.000 A 
ATOM      9  C   UNL     1       0.980   3.064  19.223  0.00  0.00    +0.000 A 
ATOM     10  F   UNL     1       0.216   2.169  18.588  0.00  0.00    +0.000 F 
ATOM     11  C   UNL     1       1.615   4.062  18.493  0.00  0.00    +0.000 A 
ENDBRANCH   2   5
BRANCH   1  12
ATOM     12  N   UNL     1       5.254   6.716  17.406  0.00  0.00    +0.000 NA
ATOM     13  H   UNL     1       4.854   6.772  16.454  0.00  0.00    +0.000 HD
BRANCH  12  17
ATOM     14  O   UNL     1       8.533   5.105  20.108  0.00  0.00    +0.000 OA
ATOM     15  C   UNL     1       8.012   5.705  19.182  0.00  0.00    +0.000 C 
ATOM     16  C   UNL     1       6.994   5.130  18.250  0.00  0.00    +0.000 C 
ATOM     17  C   UNL     1       6.655   6.278  17.295  0.00  0.00    +0.000 C 
ATOM     18  C   UNL     1       7.571   7.403  17.752  0.00  0.00    +0.000 C 
ATOM     19  O   UNL     1       7.668   8.506  17.240  0.00  0.00    +0.000 OA
ATOM     20  N   UNL     1       8.270   6.987  18.839  0.00  0.00    +0.000 N 
ATOM     21  H   UNL     1       8.928   7.571  19.331  0.00  0.00    +0.000 HD
ENDBRANCH  12  17
ENDBRANCH   1  12
TORSDOF 3
ENDMDL
MODEL 7
REMARK VINA RESULT:      -7.7      1.174      1.508
REMARK  Name = 
REMARK  3 active torsions:
REMARK  status: ('A' for Active; 'I' for Inactive)
REMARK    1  A    between atoms: C_4  and  N_5
REMARK    2  A    between atoms: N_5  and  N_6
REMARK    3  A    between atoms: C_7  and  C_9
REMARK                            x       y       z     vdW  Elec       q    Type
REMARK                         _______ _______ _______ _____ _____    ______ ____
ROOT
ATOM      1  N   UNL     1       4.561   3.338  17.156  0.00  0.00    +0.000 N 
ATOM      2  C   UNL     1       4.671   3.674  18.497  0.00  0.00    +0.000 C 
ATOM      3  O   UNL     1       5.718   4.032  19.021  0.00  0.00    +0.000 OA
ATOM      4  H   UNL     1       3.670   3.048  16.767  0.00  0.00    +0.000 HD
ENDROOT
BRANCH   2   5
ATOM      5  C   UNL     1       3.399   3.633  19.272  0.00  0.00    +0.000 A 
ATOM      6  C   UNL     1       2.275   4.395  18.908  0.00  0.00    +0.000 A 
ATOM      7  C   UNL     1       1.119   4.357  19.692  0.00  0.00    +0.000 A 
ATOM      8  C   UNL     1       1.082   3.555  20.831  0.00  0.00    +0.000 A 
ATOM      9  C   UNL     1       2.191   2.789  21.173  0.00  0.00    +0.000 A 
ATOM     10  F   UNL     1       2.145   2.017  22.265  0.00  0.00    +0.000 F 
ATOM     11  C   UNL     1       3.347   2.815  20.403  0.00  0.00    +0.000 A 
ENDBRANCH   2   5
BRANCH   1  12
ATOM     12  N   UNL     1       5.706   3.314  16.333  0.00  0.00    +0.000 NA
ATOM     13  H   UNL     1       6.536   3.362  16.949  0.00  0.00    +0.000 HD
BRANCH  12  17
ATOM     14  O   UNL     1       7.437   4.390  12.272  0.00  0.00    +0.000 OA
ATOM     15  C   UNL     1       7.048   4.535  13.419  0.00  0.00    +0.000 C 
ATOM     16  C   UNL     1       5.732   4.060  13.946  0.00  0.00    +0.000 C 
ATOM     17  C   UNL     1       5.738   4.470  15.422  0.00  0.00    +0.000 C 
ATOM     18  C   UNL     1       7.063   5.199  15.583  0.00  0.00    +0.000 C 
ATOM     19  O   UNL     1       7.470   5.738  16.598  0.00  0.00    +0.000 OA
ATOM     20  N   UNL     1       7.737   5.153  14.405  0.00  0.00    +0.000 N 
ATOM     21  H   UNL     1       8.652   5.553  14.274  0.00  0.00    +0.000 HD
ENDBRANCH  12  17
ENDBRANCH   1  12
TORSDOF 3
ENDMDL
MODEL 8
REMARK VINA RESULT:      -7.7      3.802      6.624
REMARK  Name = 
REMARK  3 active torsions:
REMARK  status: ('A' for Active; 'I' for Inactive)
REMARK    1  A    between atoms: C_4  and  N_5
REMARK    2  A    between atoms: N_5  and  N_6
REMARK    3  A    between atoms: C_7  and  C_9
REMARK                            x       y       z     vdW  Elec       q    Type
REMARK                         _______ _______ _______ _____ _____    ______ ____
ROOT
ATOM      1  N   UNL     1       2.548   3.818  17.421  0.00  0.00    +0.000 N 
ATOM      2  C   UNL     1       3.144   5.035  17.715  0.00  0.00    +0.000 C 
ATOM      3  O   UNL     1       2.625   5.888  18.425  0.00  0.00    +0.000 OA
ATOM      4  H   UNL     1       3.020   3.142  16.828  0.00  0.00    +0.000 HD
ENDROOT
BRANCH   2   5
ATOM      5  C   UNL     1       4.511   5.230  17.157  0.00  0.00    +0.000 A 
ATOM      6  C   UNL     1       5.348   6.281  17.571  0.00  0.00    +0.000 A 
ATOM      7  C   UNL     1       6.606   6.448  16.987  0.00  0.00    +0.000 A 
ATOM      8  C   UNL     1       7.032   5.563  15.998  0.00  0.00    +0.000 A 
ATOM      9  C   UNL     1       6.207   4.513  15.609  0.00  0.00    +0.000 A 
ATOM     10  F   UNL     1       6.626   3.665  14.663  0.00  0.00    +0.000 F 
ATOM     11  C   UNL     1       4.954   4.334  16.181  0.00  0.00    +0.000 A 
ENDBRANCH   2   5
BRANCH   1  12
ATOM     12  N   UNL     1       1.242   3.538  17.873  0.00  0.00    +0.000 NA
ATOM     13  H   UNL     1       0.843   4.417  18.242  0.00  0.00    +0.000 HD
BRANCH  12  17
ATOM     14  O   UNL     1       2.350   3.320  22.275  0.00  0.00    +0.000 OA
ATOM     15  C   UNL     1       2.188   2.956  21.121  0.00  0.00    +0.000 C 
ATOM     16  C   UNL     1       0.938   3.154  20.326  0.00  0.00    +0.000 C 
ATOM     17  C   UNL     1       1.251   2.542  18.958  0.00  0.00    +0.000 C 
ATOM     18  C   UNL     1       2.661   1.997  19.126  0.00  0.00    +0.000 C 
ATOM     19  O   UNL     1       3.301   1.382  18.290  0.00  0.00    +0.000 OA
ATOM     20  N   UNL     1       3.108   2.310  20.370  0.00  0.00    +0.000 N 
ATOM     21  H   UNL     1       4.027   2.069  20.705  0.00  0.00    +0.000 HD
ENDBRANCH  12  17
ENDBRANCH   1  12
TORSDOF 3
ENDMDL
MODEL 9
REMARK VINA RESULT:      -7.7      3.644      6.418
REMARK  Name = 
REMARK  3 active torsions:
REMARK  status: ('A' for Active; 'I' for Inactive)
REMARK    1  A    between atoms: C_4  and  N_5
REMARK    2  A    between atoms: N_5  and  N_6
REMARK    3  A    between atoms: C_7  and  C_9
REMARK                            x       y       z     vdW  Elec       q    Type
REMARK                         _______ _______ _______ _____ _____    ______ ____
ROOT
ATOM      1  N   UNL     1       2.502   3.828  17.358  0.00  0.00    +0.000 N 
ATOM      2  C   UNL     1       3.093   5.039  17.685  0.00  0.00    +0.000 C 
ATOM      3  O   UNL     1       2.558   5.882  18.394  0.00  0.00    +0.000 OA
ATOM      4  H   UNL     1       2.987   3.160  16.767  0.00  0.00    +0.000 HD
ENDROOT
BRANCH   2   5
ATOM      5  C   UNL     1       4.475   5.238  17.165  0.00  0.00    +0.000 A 
ATOM      6  C   UNL     1       5.049   4.377  16.213  0.00  0.00    +0.000 A 
ATOM      7  C   UNL     1       6.364   4.579  15.788  0.00  0.00    +0.000 A 
ATOM      8  C   UNL     1       7.103   5.642  16.305  0.00  0.00    +0.000 A 
ATOM      9  C   UNL     1       6.520   6.501  17.231  0.00  0.00    +0.000 A 
ATOM     10  F   UNL     1       7.234   7.523  17.718  0.00  0.00    +0.000 F 
ATOM     11  C   UNL     1       5.213   6.314  17.663  0.00  0.00    +0.000 A 
ENDBRANCH   2   5
BRANCH   1  12
ATOM     12  N   UNL     1       1.184   3.545  17.772  0.00  0.00    +0.000 NA
ATOM     13  H   UNL     1       0.759   4.431  18.093  0.00  0.00    +0.000 HD
BRANCH  12  17
ATOM     14  O   UNL     1       2.243   3.474  22.190  0.00  0.00    +0.000 OA
ATOM     15  C   UNL     1       2.087   3.071  21.050  0.00  0.00    +0.000 C 
ATOM     16  C   UNL     1       0.849   3.258  20.234  0.00  0.00    +0.000 C 
ATOM     17  C   UNL     1       1.167   2.590  18.893  0.00  0.00    +0.000 C 
ATOM     18  C   UNL     1       2.566   2.030  19.097  0.00  0.00    +0.000 C 
ATOM     19  O   UNL     1       3.205   1.376  18.291  0.00  0.00    +0.000 OA
ATOM     20  N   UNL     1       3.005   2.382  20.333  0.00  0.00    +0.000 N 
ATOM     21  H   UNL     1       3.917   2.141  20.687  0.00  0.00    +0.000 HD
ENDBRANCH  12  17
ENDBRANCH   1  12
TORSDOF 3
ENDMDL
