MODEL 1
REMARK VINA RESULT:      -7.7      0.000      0.000
REMARK  Name = 
REMARK  17 active torsions:
REMARK  status: ('A' for Active; 'I' for Inactive)
REMARK    1  A    between atoms: O_1  and  C_2
REMARK    2  A    between atoms: C_2  and  C_3
REMARK    3  A    between atoms: C_5  and  O_6
REMARK    4  A    between atoms: O_6  and  C_7
REMARK    5  A    between atoms: C_7  and  C_8
REMARK    6  A    between atoms: C_7  and  C_19
REMARK    7  A    between atoms: C_8  and  C_9
REMARK    8  A    between atoms: C_10  and  C_11
REMARK    9  A    between atoms: C_14  and  O_15
REMARK   10  A    between atoms: C_16  and  O_17
REMARK   11  A    between atoms: C_19  and  O_20
REMARK   12  A    between atoms: C_19  and  C_21
REMARK   13  A    between atoms: C_24  and  O_25
REMARK   14  A    between atoms: C_26  and  O_27
REMARK   15  A    between atoms: C_29  and  O_30
REMARK   16  A    between atoms: C_31  and  O_32
REMARK   17  A    between atoms: C_33  and  O_34
REMARK                            x       y       z     vdW  Elec       q    Type
REMARK                         _______ _______ _______ _____ _____    ______ ____
ROOT
ATOM      1  C   UNL     1       4.300   4.513  16.926  0.00  0.00    +0.000 C 
ENDROOT
BRANCH   1   2
ATOM      2  C   UNL     1       3.340   3.353  17.381  0.00  0.00    +0.000 C 
BRANCH   2   3
ATOM      3  C   UNL     1       2.747   3.290  18.783  0.00  0.00    +0.000 A 
ATOM      4  C   UNL     1       1.424   3.698  19.065  0.00  0.00    +0.000 A 
ATOM      5  C   UNL     1       0.848   3.501  20.331  0.00  0.00    +0.000 A 
ATOM      6  C   UNL     1       1.593   2.890  21.331  0.00  0.00    +0.000 A 
ATOM      7  C   UNL     1       2.888   2.459  21.063  0.00  0.00    +0.000 A 
ATOM      8  C   UNL     1       3.465   2.650  19.810  0.00  0.00    +0.000 A 
BRANCH   7   9
ATOM      9  O   UNL     1       3.600   1.814  22.035  0.00  0.00    +0.000 OA
ATOM     10  H   UNL     1       3.076   1.010  22.230  0.00  0.00    +0.000 HD
ENDBRANCH   7   9
BRANCH   6  11
ATOM     11  O   UNL     1       1.097   2.679  22.588  0.00  0.00    +0.000 OA
ATOM     12  H   UNL     1       1.848   2.593  23.200  0.00  0.00    +0.000 HD
ENDBRANCH   6  11
ENDBRANCH   2   3
BRANCH   2  13
ATOM     13  O   UNL     1       2.234   3.326  16.448  0.00  0.00    +0.000 OA
ATOM     14  H   UNL     1       2.546   3.780  15.642  0.00  0.00    +0.000 HD
ENDBRANCH   2  13
ENDBRANCH   1   2
BRANCH   1  15
ATOM     15  C   UNL     1       4.701   5.592  17.961  0.00  0.00    +0.000 C 
BRANCH  15  16
ATOM     16  C   UNL     1       3.642   6.628  18.218  0.00  0.00    +0.000 C 
ATOM     17  C   UNL     1       2.786   7.449  18.465  0.00  0.00    +0.000 C 
BRANCH  17  18
ATOM     18  C   UNL     1       1.764   8.367  18.892  0.00  0.00    +0.000 A 
ATOM     19  C   UNL     1       1.229   9.327  18.015  0.00  0.00    +0.000 A 
ATOM     20  C   UNL     1       0.420  10.375  18.497  0.00  0.00    +0.000 A 
ATOM     21  C   UNL     1       0.170  10.465  19.856  0.00  0.00    +0.000 A 
ATOM     22  C   UNL     1       0.640   9.470  20.720  0.00  0.00    +0.000 A 
ATOM     23  C   UNL     1       1.409   8.413  20.244  0.00  0.00    +0.000 A 
BRANCH  22  24
ATOM     24  O   UNL     1       0.407   9.571  22.058  0.00  0.00    +0.000 OA
ATOM     25  H   UNL     1       1.287   9.462  22.474  0.00  0.00    +0.000 HD
ENDBRANCH  22  24
BRANCH  21  26
ATOM     26  O   UNL     1      -0.519  11.510  20.413  0.00  0.00    +0.000 OA
ATOM     27  H   UNL     1      -0.925  12.024  19.696  0.00  0.00    +0.000 HD
ENDBRANCH  21  26
ENDBRANCH  17  18
ENDBRANCH  15  16
ENDBRANCH   1  15
BRANCH   1  28
ATOM     28  O   UNL     1       5.455   3.914  16.257  0.00  0.00    +0.000 OA
BRANCH  28  31
ATOM     29  C   UNL     1       5.843   3.696  12.638  0.00  0.00    +0.000 C 
ATOM     30  O   UNL     1       5.654   3.304  14.003  0.00  0.00    +0.000 OA
ATOM     31  C   UNL     1       5.751   4.375  14.928  0.00  0.00    +0.000 C 
ATOM     32  C   UNL     1       7.190   4.933  14.890  0.00  0.00    +0.000 C 
ATOM     33  C   UNL     1       7.534   5.356  13.453  0.00  0.00    +0.000 C 
ATOM     34  C   UNL     1       7.268   4.230  12.442  0.00  0.00    +0.000 C 
BRANCH  34  35
ATOM     35  O   UNL     1       7.440   4.674  11.093  0.00  0.00    +0.000 OA
ATOM     36  H   UNL     1       8.391   4.792  10.917  0.00  0.00    +0.000 HD
ENDBRANCH  34  35
BRANCH  33  37
ATOM     37  O   UNL     1       8.893   5.817  13.388  0.00  0.00    +0.000 OA
ATOM     38  H   UNL     1       9.492   5.054  13.491  0.00  0.00    +0.000 HD
ENDBRANCH  33  37
BRANCH  32  39
ATOM     39  O   UNL     1       7.338   6.073  15.752  0.00  0.00    +0.000 OA
ATOM     40  H   UNL     1       8.142   6.552  15.470  0.00  0.00    +0.000 HD
ENDBRANCH  32  39
BRANCH  29  41
ATOM     41  C   UNL     1       5.595   2.464  11.756  0.00  0.00    +0.000 C 
BRANCH  41  42
ATOM     42  O   UNL     1       6.834   1.808  11.477  0.00  0.00    +0.000 OA
ATOM     43  H   UNL     1       6.837   0.989  12.001  0.00  0.00    +0.000 HD
ENDBRANCH  41  42
ENDBRANCH  29  41
ENDBRANCH  28  31
ENDBRANCH   1  28
TORSDOF 17
ENDMDL
MODEL 2
REMARK VINA RESULT:      -7.6      1.082      1.884
REMARK  Name = 
REMARK  17 active torsions:
REMARK  status: ('A' for Active; 'I' for Inactive)
REMARK    1  A    between atoms: O_1  and  C_2
REMARK    2  A    between atoms: C_2  and  C_3
REMARK    3  A    between atoms: C_5  and  O_6
REMARK    4  A    between atoms: O_6  and  C_7
REMARK    5  A    between atoms: C_7  and  C_8
REMARK    6  A    between atoms: C_7  and  C_19
REMARK    7  A    between atoms: C_8  and  C_9
REMARK    8  A    between atoms: C_10  and  C_11
REMARK    9  A    between atoms: C_14  and  O_15
REMARK   10  A    between atoms: C_16  and  O_17
REMARK   11  A    between atoms: C_19  and  O_20
REMARK   12  A    between atoms: C_19  and  C_21
REMARK   13  A    between atoms: C_24  and  O_25
REMARK   14  A    between atoms: C_26  and  O_27
REMARK   15  A    between atoms: C_29  and  O_30
REMARK   16  A    between atoms: C_31  and  O_32
REMARK   17  A    between atoms: C_33  and  O_34
REMARK                            x       y       z     vdW  Elec       q    Type
REMARK                         _______ _______ _______ _____ _____    ______ ____
ROOT
ATOM      1  C   UNL     1       4.632   4.772  17.134  0.00  0.00    +0.000 C 
ENDROOT
BRANCH   1   2
ATOM      2  C   UNL     1       4.877   4.464  18.657  0.00  0.00    +0.000 C 
BRANCH   2   3
ATOM      3  C   UNL     1       3.815   3.821  19.540  0.00  0.00    +0.000 A 
ATOM      4  C   UNL     1       4.109   2.767  20.433  0.00  0.00    +0.000 A 
ATOM      5  C   UNL     1       3.150   2.282  21.339  0.00  0.00    +0.000 A 
ATOM      6  C   UNL     1       1.885   2.852  21.361  0.00  0.00    +0.000 A 
ATOM      7  C   UNL     1       1.586   3.908  20.506  0.00  0.00    +0.000 A 
ATOM      8  C   UNL     1       2.531   4.394  19.606  0.00  0.00    +0.000 A 
BRANCH   7   9
ATOM      9  O   UNL     1       0.354   4.497  20.565  0.00  0.00    +0.000 OA
ATOM     10  H   UNL     1       0.544   5.458  20.585  0.00  0.00    +0.000 HD
ENDBRANCH   7   9
BRANCH   6  11
ATOM     11  O   UNL     1       0.902   2.420  22.209  0.00  0.00    +0.000 OA
ATOM     12  H   UNL     1       0.385   1.735  21.751  0.00  0.00    +0.000 HD
ENDBRANCH   6  11
ENDBRANCH   2   3
BRANCH   2  13
ATOM     13  O   UNL     1       6.059   3.634  18.739  0.00  0.00    +0.000 OA
ATOM     14  H   UNL     1       6.632   4.042  19.417  0.00  0.00    +0.000 HD
ENDBRANCH   2  13
ENDBRANCH   1   2
BRANCH   1  15
ATOM     15  C   UNL     1       4.545   6.250  16.683  0.00  0.00    +0.000 C 
BRANCH  15  16
ATOM     16  C   UNL     1       3.539   7.072  17.441  0.00  0.00    +0.000 C 
ATOM     17  C   UNL     1       2.758   7.761  18.059  0.00  0.00    +0.000 C 
BRANCH  17  18
ATOM     18  C   UNL     1       1.942   8.671  18.820  0.00  0.00    +0.000 A 
ATOM     19  C   UNL     1       1.540   8.371  20.133  0.00  0.00    +0.000 A 
ATOM     20  C   UNL     1       0.547   9.136  20.777  0.00  0.00    +0.000 A 
ATOM     21  C   UNL     1      -0.050  10.182  20.094  0.00  0.00    +0.000 A 
ATOM     22  C   UNL     1       0.400  10.526  18.814  0.00  0.00    +0.000 A 
ATOM     23  C   UNL     1       1.406   9.797  18.188  0.00  0.00    +0.000 A 
BRANCH  22  24
ATOM     24  O   UNL     1      -0.201  11.544  18.138  0.00  0.00    +0.000 OA
ATOM     25  H   UNL     1       0.019  11.384  17.197  0.00  0.00    +0.000 HD
ENDBRANCH  22  24
BRANCH  21  26
ATOM     26  O   UNL     1      -1.092  10.904  20.611  0.00  0.00    +0.000 OA
ATOM     27  H   UNL     1      -1.757  11.023  19.913  0.00  0.00    +0.000 HD
ENDBRANCH  21  26
ENDBRANCH  17  18
ENDBRANCH  15  16
ENDBRANCH   1  15
BRANCH   1  28
ATOM     28  O   UNL     1       5.594   3.997  16.351  0.00  0.00    +0.000 OA
BRANCH  28  31
ATOM     29  C   UNL     1       5.836   3.764  12.720  0.00  0.00    +0.000 C 
ATOM     30  O   UNL     1       5.684   3.380  14.092  0.00  0.00    +0.000 OA
ATOM     31  C   UNL     1       5.857   4.447  15.011  0.00  0.00    +0.000 C 
ATOM     32  C   UNL     1       7.313   4.949  14.918  0.00  0.00    +0.000 C 
ATOM     33  C   UNL     1       7.619   5.358  13.468  0.00  0.00    +0.000 C 
ATOM     34  C   UNL     1       7.273   4.243  12.470  0.00  0.00    +0.000 C 
BRANCH  34  35
ATOM     35  O   UNL     1       7.410   4.680  11.115  0.00  0.00    +0.000 OA
ATOM     36  H   UNL     1       6.795   4.173  10.554  0.00  0.00    +0.000 HD
ENDBRANCH  34  35
BRANCH  33  37
ATOM     37  O   UNL     1       8.991   5.767  13.351  0.00  0.00    +0.000 OA
ATOM     38  H   UNL     1       9.158   6.497  13.977  0.00  0.00    +0.000 HD
ENDBRANCH  33  37
BRANCH  32  39
ATOM     39  O   UNL     1       7.538   6.083  15.771  0.00  0.00    +0.000 OA
ATOM     40  H   UNL     1       7.944   5.755  16.596  0.00  0.00    +0.000 HD
ENDBRANCH  32  39
BRANCH  29  41
ATOM     41  C   UNL     1       5.508   2.542  11.851  0.00  0.00    +0.000 C 
BRANCH  41  42
ATOM     42  O   UNL     1       6.710   1.840  11.526  0.00  0.00    +0.000 OA
ATOM     43  H   UNL     1       6.470   0.900  11.452  0.00  0.00    +0.000 HD
ENDBRANCH  41  42
ENDBRANCH  29  41
ENDBRANCH  28  31
ENDBRANCH   1  28
TORSDOF 17
ENDMDL
MODEL 3
REMARK VINA RESULT:      -7.6      3.116      6.898
REMARK  Name = 
REMARK  17 active torsions:
REMARK  status: ('A' for Active; 'I' for Inactive)
REMARK    1  A    between atoms: O_1  and  C_2
REMARK    2  A    between atoms: C_2  and  C_3
REMARK    3  A    between atoms: C_5  and  O_6
REMARK    4  A    between atoms: O_6  and  C_7
REMARK    5  A    between atoms: C_7  and  C_8
REMARK    6  A    between atoms: C_7  and  C_19
REMARK    7  A    between atoms: C_8  and  C_9
REMARK    8  A    between atoms: C_10  and  C_11
REMARK    9  A    between atoms: C_14  and  O_15
REMARK   10  A    between atoms: C_16  and  O_17
REMARK   11  A    between atoms: C_19  and  O_20
REMARK   12  A    between atoms: C_19  and  C_21
REMARK   13  A    between atoms: C_24  and  O_25
REMARK   14  A    between atoms: C_26  and  O_27
REMARK   15  A    between atoms: C_29  and  O_30
REMARK   16  A    between atoms: C_31  and  O_32
REMARK   17  A    between atoms: C_33  and  O_34
REMARK                            x       y       z     vdW  Elec       q    Type
REMARK                         _______ _______ _______ _____ _____    ______ ____
ROOT
ATOM      1  C   UNL     1       1.760   8.060  18.970  0.00  0.00    +0.000 C 
ENDROOT
BRANCH   1   2
ATOM      2  C   UNL     1       1.854   8.398  20.503  0.00  0.00    +0.000 C 
BRANCH   2   3
ATOM      3  C   UNL     1       0.871   9.335  21.193  0.00  0.00    +0.000 A 
ATOM      4  C   UNL     1       0.006   8.902  22.222  0.00  0.00    +0.000 A 
ATOM      5  C   UNL     1      -0.792   9.807  22.942  0.00  0.00    +0.000 A 
ATOM      6  C   UNL     1      -0.728  11.160  22.640  0.00  0.00    +0.000 A 
ATOM      7  C   UNL     1       0.138  11.608  21.648  0.00  0.00    +0.000 A 
ATOM      8  C   UNL     1       0.931  10.717  20.930  0.00  0.00    +0.000 A 
BRANCH   7   9
ATOM      9  O   UNL     1       0.233  12.946  21.386  0.00  0.00    +0.000 OA
ATOM     10  H   UNL     1       0.908  13.010  20.680  0.00  0.00    +0.000 HD
ENDBRANCH   7   9
BRANCH   6  11
ATOM     11  O   UNL     1      -1.485  12.093  23.294  0.00  0.00    +0.000 OA
ATOM     12  H   UNL     1      -2.422  11.864  23.171  0.00  0.00    +0.000 HD
ENDBRANCH   6  11
ENDBRANCH   2   3
BRANCH   2  13
ATOM     13  O   UNL     1       1.817   7.140  21.219  0.00  0.00    +0.000 OA
ATOM     14  H   UNL     1       0.874   6.906  21.310  0.00  0.00    +0.000 HD
ENDBRANCH   2  13
ENDBRANCH   1   2
BRANCH   1  15
ATOM     15  C   UNL     1       1.502   9.216  17.972  0.00  0.00    +0.000 C 
BRANCH  15  16
ATOM     16  C   UNL     1       0.071   9.673  17.909  0.00  0.00    +0.000 C 
ATOM     17  C   UNL     1      -1.080  10.038  17.817  0.00  0.00    +0.000 C 
BRANCH  17  18
ATOM     18  C   UNL     1      -2.431  10.463  17.563  0.00  0.00    +0.000 A 
ATOM     19  C   UNL     1      -3.044  10.249  16.315  0.00  0.00    +0.000 A 
ATOM     20  C   UNL     1      -4.261  10.880  15.990  0.00  0.00    +0.000 A 
ATOM     21  C   UNL     1      -4.845  11.736  16.909  0.00  0.00    +0.000 A 
ATOM     22  C   UNL     1      -4.274  11.894  18.176  0.00  0.00    +0.000 A 
ATOM     23  C   UNL     1      -3.092  11.244  18.516  0.00  0.00    +0.000 A 
BRANCH  22  24
ATOM     24  O   UNL     1      -4.841  12.751  19.070  0.00  0.00    +0.000 OA
ATOM     25  H   UNL     1      -4.243  13.527  19.087  0.00  0.00    +0.000 HD
ENDBRANCH  22  24
BRANCH  21  26
ATOM     26  O   UNL     1      -5.970  12.466  16.628  0.00  0.00    +0.000 OA
ATOM     27  H   UNL     1      -5.697  13.370  16.402  0.00  0.00    +0.000 HD
ENDBRANCH  21  26
ENDBRANCH  17  18
ENDBRANCH  15  16
ENDBRANCH   1  15
BRANCH   1  28
ATOM     28  O   UNL     1       2.921   7.249  18.608  0.00  0.00    +0.000 OA
BRANCH  28  31
ATOM     29  C   UNL     1       1.634   3.837  18.629  0.00  0.00    +0.000 C 
ATOM     30  O   UNL     1       2.014   5.141  19.085  0.00  0.00    +0.000 OA
ATOM     31  C   UNL     1       2.662   5.930  18.099  0.00  0.00    +0.000 C 
ATOM     32  C   UNL     1       3.999   5.255  17.727  0.00  0.00    +0.000 C 
ATOM     33  C   UNL     1       3.730   3.816  17.256  0.00  0.00    +0.000 C 
ATOM     34  C   UNL     1       2.886   3.027  18.268  0.00  0.00    +0.000 C 
BRANCH  34  35
ATOM     35  O   UNL     1       2.506   1.745  17.760  0.00  0.00    +0.000 OA
ATOM     36  H   UNL     1       1.710   1.847  17.207  0.00  0.00    +0.000 HD
ENDBRANCH  34  35
BRANCH  33  37
ATOM     37  O   UNL     1       4.970   3.152  16.966  0.00  0.00    +0.000 OA
ATOM     38  H   UNL     1       5.418   2.938  17.806  0.00  0.00    +0.000 HD
ENDBRANCH  33  37
BRANCH  32  39
ATOM     39  O   UNL     1       4.675   5.963  16.675  0.00  0.00    +0.000 OA
ATOM     40  H   UNL     1       3.996   6.274  16.047  0.00  0.00    +0.000 HD
ENDBRANCH  32  39
BRANCH  29  41
ATOM     41  C   UNL     1       0.848   3.155  19.758  0.00  0.00    +0.000 C 
BRANCH  41  42
ATOM     42  O   UNL     1       1.348   3.583  21.027  0.00  0.00    +0.000 OA
ATOM     43  H   UNL     1       2.258   3.892  20.875  0.00  0.00    +0.000 HD
ENDBRANCH  41  42
ENDBRANCH  29  41
ENDBRANCH  28  31
ENDBRANCH   1  28
TORSDOF 17
ENDMDL
MODEL 4
REMARK VINA RESULT:      -7.5      3.103      6.804
REMARK  Name = 
REMARK  17 active torsions:
REMARK  status: ('A' for Active; 'I' for Inactive)
REMARK    1  A    between atoms: O_1  and  C_2
REMARK    2  A    between atoms: C_2  and  C_3
REMARK    3  A    between atoms: C_5  and  O_6
REMARK    4  A    between atoms: O_6  and  C_7
REMARK    5  A    between atoms: C_7  and  C_8
REMARK    6  A    between atoms: C_7  and  C_19
REMARK    7  A    between atoms: C_8  and  C_9
REMARK    8  A    between atoms: C_10  and  C_11
REMARK    9  A    between atoms: C_14  and  O_15
REMARK   10  A    between atoms: C_16  and  O_17
REMARK   11  A    between atoms: C_19  and  O_20
REMARK   12  A    between atoms: C_19  and  C_21
REMARK   13  A    between atoms: C_24  and  O_25
REMARK   14  A    between atoms: C_26  and  O_27
REMARK   15  A    between atoms: C_29  and  O_30
REMARK   16  A    between atoms: C_31  and  O_32
REMARK   17  A    between atoms: C_33  and  O_34
REMARK                            x       y       z     vdW  Elec       q    Type
REMARK                         _______ _______ _______ _____ _____    ______ ____
ROOT
ATOM      1  C   UNL     1       1.950   7.898  19.024  0.00  0.00    +0.000 C 
ENDROOT
BRANCH   1   2
ATOM      2  C   UNL     1       1.902   8.141  20.578  0.00  0.00    +0.000 C 
BRANCH   2   3
ATOM      3  C   UNL     1       0.923   9.115  21.221  0.00  0.00    +0.000 A 
ATOM      4  C   UNL     1      -0.070   8.698  22.134  0.00  0.00    +0.000 A 
ATOM      5  C   UNL     1      -0.871   9.624  22.823  0.00  0.00    +0.000 A 
ATOM      6  C   UNL     1      -0.682  10.982  22.606  0.00  0.00    +0.000 A 
ATOM      7  C   UNL     1       0.309  11.411  21.729  0.00  0.00    +0.000 A 
ATOM      8  C   UNL     1       1.106  10.499  21.043  0.00  0.00    +0.000 A 
BRANCH   7   9
ATOM      9  O   UNL     1       0.523  12.750  21.553  0.00  0.00    +0.000 OA
ATOM     10  H   UNL     1      -0.336  13.166  21.773  0.00  0.00    +0.000 HD
ENDBRANCH   7   9
BRANCH   6  11
ATOM     11  O   UNL     1      -1.434  11.936  23.235  0.00  0.00    +0.000 OA
ATOM     12  H   UNL     1      -1.649  11.614  24.127  0.00  0.00    +0.000 HD
ENDBRANCH   6  11
ENDBRANCH   2   3
BRANCH   2  13
ATOM     13  O   UNL     1       1.695   6.852  21.203  0.00  0.00    +0.000 OA
ATOM     14  H   UNL     1       0.736   6.786  21.379  0.00  0.00    +0.000 HD
ENDBRANCH   2  13
ENDBRANCH   1   2
BRANCH   1  15
ATOM     15  C   UNL     1       1.818   9.118  18.080  0.00  0.00    +0.000 C 
BRANCH  15  16
ATOM     16  C   UNL     1       0.411   9.620  17.909  0.00  0.00    +0.000 C 
ATOM     17  C   UNL     1      -0.708  10.054  17.745  0.00  0.00    +0.000 C 
BRANCH  17  18
ATOM     18  C   UNL     1      -1.977  10.672  17.466  0.00  0.00    +0.000 A 
ATOM     19  C   UNL     1      -2.706  11.335  18.470  0.00  0.00    +0.000 A 
ATOM     20  C   UNL     1      -4.045  11.716  18.259  0.00  0.00    +0.000 A 
ATOM     21  C   UNL     1      -4.652  11.413  17.052  0.00  0.00    +0.000 A 
ATOM     22  C   UNL     1      -3.907  10.819  16.027  0.00  0.00    +0.000 A 
ATOM     23  C   UNL     1      -2.573  10.474  16.217  0.00  0.00    +0.000 A 
BRANCH  22  24
ATOM     24  O   UNL     1      -4.511  10.505  14.847  0.00  0.00    +0.000 OA
ATOM     25  H   UNL     1      -5.225   9.879  15.089  0.00  0.00    +0.000 HD
ENDBRANCH  22  24
BRANCH  21  26
ATOM     26  O   UNL     1      -5.978  11.656  16.809  0.00  0.00    +0.000 OA
ATOM     27  H   UNL     1      -6.315  10.955  16.227  0.00  0.00    +0.000 HD
ENDBRANCH  21  26
ENDBRANCH  17  18
ENDBRANCH  15  16
ENDBRANCH   1  15
BRANCH   1  28
ATOM     28  O   UNL     1       3.122   7.075  18.726  0.00  0.00    +0.000 OA
BRANCH  28  31
ATOM     29  C   UNL     1       2.020   3.600  18.776  0.00  0.00    +0.000 C 
ATOM     30  O   UNL     1       2.379   4.911  19.230  0.00  0.00    +0.000 OA
ATOM     31  C   UNL     1       2.878   5.758  18.206  0.00  0.00    +0.000 C 
ATOM     32  C   UNL     1       4.201   5.166  17.676  0.00  0.00    +0.000 C 
ATOM     33  C   UNL     1       3.958   3.727  17.191  0.00  0.00    +0.000 C 
ATOM     34  C   UNL     1       3.267   2.868  18.262  0.00  0.00    +0.000 C 
BRANCH  34  35
ATOM     35  O   UNL     1       2.901   1.581  17.756  0.00  0.00    +0.000 OA
ATOM     36  H   UNL     1       1.955   1.588  17.525  0.00  0.00    +0.000 HD
ENDBRANCH  34  35
BRANCH  33  37
ATOM     37  O   UNL     1       5.193   3.139  16.754  0.00  0.00    +0.000 OA
ATOM     38  H   UNL     1       5.892   3.357  17.398  0.00  0.00    +0.000 HD
ENDBRANCH  33  37
BRANCH  32  39
ATOM     39  O   UNL     1       4.725   5.936  16.582  0.00  0.00    +0.000 OA
ATOM     40  H   UNL     1       4.008   6.040  15.926  0.00  0.00    +0.000 HD
ENDBRANCH  32  39
BRANCH  29  41
ATOM     41  C   UNL     1       1.395   2.848  19.959  0.00  0.00    +0.000 C 
BRANCH  41  42
ATOM     42  O   UNL     1      -0.026   2.803  19.810  0.00  0.00    +0.000 OA
ATOM     43  H   UNL     1      -0.364   3.662  20.116  0.00  0.00    +0.000 HD
ENDBRANCH  41  42
ENDBRANCH  29  41
ENDBRANCH  28  31
ENDBRANCH   1  28
TORSDOF 17
ENDMDL
MODEL 5
REMARK VINA RESULT:      -7.5      0.991      1.513
REMARK  Name = 
REMARK  17 active torsions:
REMARK  status: ('A' for Active; 'I' for Inactive)
REMARK    1  A    between atoms: O_1  and  C_2
REMARK    2  A    between atoms: C_2  and  C_3
REMARK    3  A    between atoms: C_5  and  O_6
REMARK    4  A    between atoms: O_6  and  C_7
REMARK    5  A    between atoms: C_7  and  C_8
REMARK    6  A    between atoms: C_7  and  C_19
REMARK    7  A    between atoms: C_8  and  C_9
REMARK    8  A    between atoms: C_10  and  C_11
REMARK    9  A    between atoms: C_14  and  O_15
REMARK   10  A    between atoms: C_16  and  O_17
REMARK   11  A    between atoms: C_19  and  O_20
REMARK   12  A    between atoms: C_19  and  C_21
REMARK   13  A    between atoms: C_24  and  O_25
REMARK   14  A    between atoms: C_26  and  O_27
REMARK   15  A    between atoms: C_29  and  O_30
REMARK   16  A    between atoms: C_31  and  O_32
REMARK   17  A    between atoms: C_33  and  O_34
REMARK                            x       y       z     vdW  Elec       q    Type
REMARK                         _______ _______ _______ _____ _____    ______ ____
ROOT
ATOM      1  C   UNL     1       4.663   4.768  17.188  0.00  0.00    +0.000 C 
ENDROOT
BRANCH   1   2
ATOM      2  C   UNL     1       4.893   4.449  18.711  0.00  0.00    +0.000 C 
BRANCH   2   3
ATOM      3  C   UNL     1       3.822   3.802  19.579  0.00  0.00    +0.000 A 
ATOM      4  C   UNL     1       4.107   2.746  20.473  0.00  0.00    +0.000 A 
ATOM      5  C   UNL     1       3.139   2.257  21.366  0.00  0.00    +0.000 A 
ATOM      6  C   UNL     1       1.872   2.825  21.375  0.00  0.00    +0.000 A 
ATOM      7  C   UNL     1       1.582   3.883  20.520  0.00  0.00    +0.000 A 
ATOM      8  C   UNL     1       2.536   4.373  19.633  0.00  0.00    +0.000 A 
BRANCH   7   9
ATOM      9  O   UNL     1       0.349   4.471  20.566  0.00  0.00    +0.000 OA
ATOM     10  H   UNL     1       0.019   4.419  19.646  0.00  0.00    +0.000 HD
ENDBRANCH   7   9
BRANCH   6  11
ATOM     11  O   UNL     1       0.881   2.389  22.211  0.00  0.00    +0.000 OA
ATOM     12  H   UNL     1       1.178   2.518  23.128  0.00  0.00    +0.000 HD
ENDBRANCH   6  11
ENDBRANCH   2   3
BRANCH   2  13
ATOM     13  O   UNL     1       6.073   3.616  18.798  0.00  0.00    +0.000 OA
ATOM     14  H   UNL     1       6.827   4.184  18.546  0.00  0.00    +0.000 HD
ENDBRANCH   2  13
ENDBRANCH   1   2
BRANCH   1  15
ATOM     15  C   UNL     1       4.522   6.247  16.755  0.00  0.00    +0.000 C 
BRANCH  15  16
ATOM     16  C   UNL     1       3.539   7.041  17.571  0.00  0.00    +0.000 C 
ATOM     17  C   UNL     1       2.734   7.698  18.193  0.00  0.00    +0.000 C 
BRANCH  17  18
ATOM     18  C   UNL     1       1.743   8.542  18.806  0.00  0.00    +0.000 A 
ATOM     19  C   UNL     1       1.114   9.575  18.087  0.00  0.00    +0.000 A 
ATOM     20  C   UNL     1       0.339  10.547  18.749  0.00  0.00    +0.000 A 
ATOM     21  C   UNL     1       0.216  10.491  20.127  0.00  0.00    +0.000 A 
ATOM     22  C   UNL     1       0.780   9.424  20.834  0.00  0.00    +0.000 A 
ATOM     23  C   UNL     1       1.515   8.440  20.182  0.00  0.00    +0.000 A 
BRANCH  22  24
ATOM     24  O   UNL     1       0.672   9.381  22.191  0.00  0.00    +0.000 OA
ATOM     25  H   UNL     1       0.181   8.554  22.378  0.00  0.00    +0.000 HD
ENDBRANCH  22  24
BRANCH  21  26
ATOM     26  O   UNL     1      -0.432  11.456  20.851  0.00  0.00    +0.000 OA
ATOM     27  H   UNL     1       0.192  12.181  21.020  0.00  0.00    +0.000 HD
ENDBRANCH  21  26
ENDBRANCH  17  18
ENDBRANCH  15  16
ENDBRANCH   1  15
BRANCH   1  28
ATOM     28  O   UNL     1       5.670   4.045  16.412  0.00  0.00    +0.000 OA
BRANCH  28  31
ATOM     29  C   UNL     1       5.844   3.809  12.777  0.00  0.00    +0.000 C 
ATOM     30  O   UNL     1       5.721   3.425  14.152  0.00  0.00    +0.000 OA
ATOM     31  C   UNL     1       5.904   4.495  15.067  0.00  0.00    +0.000 C 
ATOM     32  C   UNL     1       7.355   5.006  14.946  0.00  0.00    +0.000 C 
ATOM     33  C   UNL     1       7.631   5.416  13.490  0.00  0.00    +0.000 C 
ATOM     34  C   UNL     1       7.272   4.297  12.499  0.00  0.00    +0.000 C 
BRANCH  34  35
ATOM     35  O   UNL     1       7.381   4.734  11.141  0.00  0.00    +0.000 OA
ATOM     36  H   UNL     1       7.902   5.556  11.113  0.00  0.00    +0.000 HD
ENDBRANCH  34  35
BRANCH  33  37
ATOM     37  O   UNL     1       8.997   5.834  13.346  0.00  0.00    +0.000 OA
ATOM     38  H   UNL     1       9.521   5.460  14.078  0.00  0.00    +0.000 HD
ENDBRANCH  33  37
BRANCH  32  39
ATOM     39  O   UNL     1       7.589   6.143  15.793  0.00  0.00    +0.000 OA
ATOM     40  H   UNL     1       7.045   6.879  15.454  0.00  0.00    +0.000 HD
ENDBRANCH  32  39
BRANCH  29  41
ATOM     41  C   UNL     1       5.508   2.584  11.916  0.00  0.00    +0.000 C 
BRANCH  41  42
ATOM     42  O   UNL     1       6.710   1.905  11.545  0.00  0.00    +0.000 OA
ATOM     43  H   UNL     1       7.406   2.582  11.494  0.00  0.00    +0.000 HD
ENDBRANCH  41  42
ENDBRANCH  29  41
ENDBRANCH  28  31
ENDBRANCH   1  28
TORSDOF 17
ENDMDL
MODEL 6
REMARK VINA RESULT:      -7.4      0.882      1.370
REMARK  Name = 
REMARK  17 active torsions:
REMARK  status: ('A' for Active; 'I' for Inactive)
REMARK    1  A    between atoms: O_1  and  C_2
REMARK    2  A    between atoms: C_2  and  C_3
REMARK    3  A    between atoms: C_5  and  O_6
REMARK    4  A    between atoms: O_6  and  C_7
REMARK    5  A    between atoms: C_7  and  C_8
REMARK    6  A    between atoms: C_7  and  C_19
REMARK    7  A    between atoms: C_8  and  C_9
REMARK    8  A    between atoms: C_10  and  C_11
REMARK    9  A    between atoms: C_14  and  O_15
REMARK   10  A    between atoms: C_16  and  O_17
REMARK   11  A    between atoms: C_19  and  O_20
REMARK   12  A    between atoms: C_19  and  C_21
REMARK   13  A    between atoms: C_24  and  O_25
REMARK   14  A    between atoms: C_26  and  O_27
REMARK   15  A    between atoms: C_29  and  O_30
REMARK   16  A    between atoms: C_31  and  O_32
REMARK   17  A    between atoms: C_33  and  O_34
REMARK                            x       y       z     vdW  Elec       q    Type
REMARK                         _______ _______ _______ _____ _____    ______ ____
ROOT
ATOM      1  C   UNL     1       4.214   4.738  17.082  0.00  0.00    +0.000 C 
ENDROOT
BRANCH   1   2
ATOM      2  C   UNL     1       3.278   3.535  17.471  0.00  0.00    +0.000 C 
BRANCH   2   3
ATOM      3  C   UNL     1       2.682   3.382  18.864  0.00  0.00    +0.000 A 
ATOM      4  C   UNL     1       1.341   3.716  19.155  0.00  0.00    +0.000 A 
ATOM      5  C   UNL     1       0.769   3.438  20.408  0.00  0.00    +0.000 A 
ATOM      6  C   UNL     1       1.536   2.818  21.384  0.00  0.00    +0.000 A 
ATOM      7  C   UNL     1       2.851   2.459  21.107  0.00  0.00    +0.000 A 
ATOM      8  C   UNL     1       3.425   2.731  19.867  0.00  0.00    +0.000 A 
BRANCH   7   9
ATOM      9  O   UNL     1       3.588   1.806  22.055  0.00  0.00    +0.000 OA
ATOM     10  H   UNL     1       2.973   1.692  22.807  0.00  0.00    +0.000 HD
ENDBRANCH   7   9
BRANCH   6  11
ATOM     11  O   UNL     1       1.045   2.529  22.628  0.00  0.00    +0.000 OA
ATOM     12  H   UNL     1       0.510   1.719  22.562  0.00  0.00    +0.000 HD
ENDBRANCH   6  11
ENDBRANCH   2   3
BRANCH   2  13
ATOM     13  O   UNL     1       2.176   3.532  16.533  0.00  0.00    +0.000 OA
ATOM     14  H   UNL     1       2.565   3.722  15.657  0.00  0.00    +0.000 HD
ENDBRANCH   2  13
ENDBRANCH   1   2
BRANCH   1  15
ATOM     15  C   UNL     1       4.514   5.817  18.151  0.00  0.00    +0.000 C 
BRANCH  15  16
ATOM     16  C   UNL     1       3.427   6.843  18.319  0.00  0.00    +0.000 C 
ATOM     17  C   UNL     1       2.569   7.680  18.490  0.00  0.00    +0.000 C 
BRANCH  17  18
ATOM     18  C   UNL     1       1.611   8.701  18.823  0.00  0.00    +0.000 A 
ATOM     19  C   UNL     1       1.292   8.999  20.160  0.00  0.00    +0.000 A 
ATOM     20  C   UNL     1       0.186   9.812  20.474  0.00  0.00    +0.000 A 
ATOM     21  C   UNL     1      -0.605  10.304  19.449  0.00  0.00    +0.000 A 
ATOM     22  C   UNL     1      -0.247  10.069  18.118  0.00  0.00    +0.000 A 
ATOM     23  C   UNL     1       0.866   9.297  17.801  0.00  0.00    +0.000 A 
BRANCH  22  24
ATOM     24  O   UNL     1      -1.036  10.539  17.112  0.00  0.00    +0.000 OA
ATOM     25  H   UNL     1      -1.792  10.967  17.566  0.00  0.00    +0.000 HD
ENDBRANCH  22  24
BRANCH  21  26
ATOM     26  O   UNL     1      -1.754  11.014  19.678  0.00  0.00    +0.000 OA
ATOM     27  H   UNL     1      -1.529  11.797  20.206  0.00  0.00    +0.000 HD
ENDBRANCH  21  26
ENDBRANCH  17  18
ENDBRANCH  15  16
ENDBRANCH   1  15
BRANCH   1  28
ATOM     28  O   UNL     1       5.426   4.196  16.470  0.00  0.00    +0.000 OA
BRANCH  28  31
ATOM     29  C   UNL     1       5.665   3.863  12.847  0.00  0.00    +0.000 C 
ATOM     30  O   UNL     1       5.493   3.520  14.227  0.00  0.00    +0.000 OA
ATOM     31  C   UNL     1       5.713   4.600  15.121  0.00  0.00    +0.000 C 
ATOM     32  C   UNL     1       7.191   5.032  15.020  0.00  0.00    +0.000 C 
ATOM     33  C   UNL     1       7.518   5.391  13.561  0.00  0.00    +0.000 C 
ATOM     34  C   UNL     1       7.122   4.269  12.589  0.00  0.00    +0.000 C 
BRANCH  34  35
ATOM     35  O   UNL     1       7.282   4.666  11.224  0.00  0.00    +0.000 OA
ATOM     36  H   UNL     1       7.232   5.637  11.169  0.00  0.00    +0.000 HD
ENDBRANCH  34  35
BRANCH  33  37
ATOM     37  O   UNL     1       8.907   5.734  13.439  0.00  0.00    +0.000 OA
ATOM     38  H   UNL     1       9.023   6.314  12.663  0.00  0.00    +0.000 HD
ENDBRANCH  33  37
BRANCH  32  39
ATOM     39  O   UNL     1       7.466   6.175  15.846  0.00  0.00    +0.000 OA
ATOM     40  H   UNL     1       8.343   6.519  15.590  0.00  0.00    +0.000 HD
ENDBRANCH  32  39
BRANCH  29  41
ATOM     41  C   UNL     1       5.283   2.637  12.006  0.00  0.00    +0.000 C 
BRANCH  41  42
ATOM     42  O   UNL     1       4.383   3.022  10.964  0.00  0.00    +0.000 OA
ATOM     43  H   UNL     1       3.864   2.230  10.741  0.00  0.00    +0.000 HD
ENDBRANCH  41  42
ENDBRANCH  29  41
ENDBRANCH  28  31
ENDBRANCH   1  28
TORSDOF 17
ENDMDL
MODEL 7
REMARK VINA RESULT:      -7.4      4.587      8.404
REMARK  Name = 
REMARK  17 active torsions:
REMARK  status: ('A' for Active; 'I' for Inactive)
REMARK    1  A    between atoms: O_1  and  C_2
REMARK    2  A    between atoms: C_2  and  C_3
REMARK    3  A    between atoms: C_5  and  O_6
REMARK    4  A    between atoms: O_6  and  C_7
REMARK    5  A    between atoms: C_7  and  C_8
REMARK    6  A    between atoms: C_7  and  C_19
REMARK    7  A    between atoms: C_8  and  C_9
REMARK    8  A    between atoms: C_10  and  C_11
REMARK    9  A    between atoms: C_14  and  O_15
REMARK   10  A    between atoms: C_16  and  O_17
REMARK   11  A    between atoms: C_19  and  O_20
REMARK   12  A    between atoms: C_19  and  C_21
REMARK   13  A    between atoms: C_24  and  O_25
REMARK   14  A    between atoms: C_26  and  O_27
REMARK   15  A    between atoms: C_29  and  O_30
REMARK   16  A    between atoms: C_31  and  O_32
REMARK   17  A    between atoms: C_33  and  O_34
REMARK                            x       y       z     vdW  Elec       q    Type
REMARK                         _______ _______ _______ _____ _____    ______ ____
ROOT
ATOM      1  C   UNL     1       7.158   5.930  17.876  0.00  0.00    +0.000 C 
ENDROOT
BRANCH   1   2
ATOM      2  C   UNL     1       7.005   4.645  16.981  0.00  0.00    +0.000 C 
BRANCH   2   3
ATOM      3  C   UNL     1       7.010   4.707  15.459  0.00  0.00    +0.000 A 
ATOM      4  C   UNL     1       7.931   5.496  14.736  0.00  0.00    +0.000 A 
ATOM      5  C   UNL     1       8.014   5.433  13.335  0.00  0.00    +0.000 A 
ATOM      6  C   UNL     1       7.174   4.573  12.642  0.00  0.00    +0.000 A 
ATOM      7  C   UNL     1       6.278   3.769  13.340  0.00  0.00    +0.000 A 
ATOM      8  C   UNL     1       6.191   3.826  14.728  0.00  0.00    +0.000 A 
BRANCH   7   9
ATOM      9  O   UNL     1       5.486   2.889  12.657  0.00  0.00    +0.000 OA
ATOM     10  H   UNL     1       4.760   3.440  12.299  0.00  0.00    +0.000 HD
ENDBRANCH   7   9
BRANCH   6  11
ATOM     11  O   UNL     1       7.194   4.471  11.278  0.00  0.00    +0.000 OA
ATOM     12  H   UNL     1       6.547   3.794  11.015  0.00  0.00    +0.000 HD
ENDBRANCH   6  11
ENDBRANCH   2   3
BRANCH   2  13
ATOM     13  O   UNL     1       8.052   3.726  17.374  0.00  0.00    +0.000 OA
ATOM     14  H   UNL     1       7.936   2.929  16.821  0.00  0.00    +0.000 HD
ENDBRANCH   2  13
ENDBRANCH   1   2
BRANCH   1  15
ATOM     15  C   UNL     1       6.907   7.314  17.232  0.00  0.00    +0.000 C 
BRANCH  15  16
ATOM     16  C   UNL     1       7.756   8.422  17.793  0.00  0.00    +0.000 C 
ATOM     17  C   UNL     1       8.430   9.337  18.211  0.00  0.00    +0.000 C 
BRANCH  17  18
ATOM     18  C   UNL     1       9.201  10.493  18.584  0.00  0.00    +0.000 A 
ATOM     19  C   UNL     1      10.026  11.154  17.657  0.00  0.00    +0.000 A 
ATOM     20  C   UNL     1      10.960  12.120  18.081  0.00  0.00    +0.000 A 
ATOM     21  C   UNL     1      11.075  12.402  19.431  0.00  0.00    +0.000 A 
ATOM     22  C   UNL     1      10.206  11.799  20.347  0.00  0.00    +0.000 A 
ATOM     23  C   UNL     1       9.257  10.872  19.929  0.00  0.00    +0.000 A 
BRANCH  22  24
ATOM     24  O   UNL     1      10.334  12.065  21.676  0.00  0.00    +0.000 OA
ATOM     25  H   UNL     1       9.638  11.526  22.108  0.00  0.00    +0.000 HD
ENDBRANCH  22  24
BRANCH  21  26
ATOM     26  O   UNL     1      12.029  13.249  19.931  0.00  0.00    +0.000 OA
ATOM     27  H   UNL     1      12.539  13.607  19.186  0.00  0.00    +0.000 HD
ENDBRANCH  21  26
ENDBRANCH  17  18
ENDBRANCH  15  16
ENDBRANCH   1  15
BRANCH   1  28
ATOM     28  O   UNL     1       6.385   5.728  19.102  0.00  0.00    +0.000 OA
BRANCH  28  31
ATOM     29  C   UNL     1       2.763   6.121  19.251  0.00  0.00    +0.000 C 
ATOM     30  O   UNL     1       4.159   6.374  19.450  0.00  0.00    +0.000 OA
ATOM     31  C   UNL     1       5.006   5.351  18.949  0.00  0.00    +0.000 C 
ATOM     32  C   UNL     1       4.740   4.055  19.743  0.00  0.00    +0.000 C 
ATOM     33  C   UNL     1       3.249   3.694  19.643  0.00  0.00    +0.000 C 
ATOM     34  C   UNL     1       2.343   4.871  20.037  0.00  0.00    +0.000 C 
BRANCH  34  35
ATOM     35  O   UNL     1       0.963   4.585  19.795  0.00  0.00    +0.000 OA
ATOM     36  H   UNL     1       0.787   4.660  18.840  0.00  0.00    +0.000 HD
ENDBRANCH  34  35
BRANCH  33  37
ATOM     37  O   UNL     1       2.972   2.525  20.431  0.00  0.00    +0.000 OA
ATOM     38  H   UNL     1       3.036   1.737  19.860  0.00  0.00    +0.000 HD
ENDBRANCH  33  37
BRANCH  32  39
ATOM     39  O   UNL     1       5.513   2.955  19.236  0.00  0.00    +0.000 OA
ATOM     40  H   UNL     1       6.455   3.208  19.290  0.00  0.00    +0.000 HD
ENDBRANCH  32  39
BRANCH  29  41
ATOM     41  C   UNL     1       1.988   7.355  19.734  0.00  0.00    +0.000 C 
BRANCH  41  42
ATOM     42  O   UNL     1       1.730   7.250  21.136  0.00  0.00    +0.000 OA
ATOM     43  H   UNL     1       1.278   8.071  21.396  0.00  0.00    +0.000 HD
ENDBRANCH  41  42
ENDBRANCH  29  41
ENDBRANCH  28  31
ENDBRANCH   1  28
TORSDOF 17
ENDMDL
MODEL 8
REMARK VINA RESULT:      -7.4      3.818      6.621
REMARK  Name = 
REMARK  17 active torsions:
REMARK  status: ('A' for Active; 'I' for Inactive)
REMARK    1  A    between atoms: O_1  and  C_2
REMARK    2  A    between atoms: C_2  and  C_3
REMARK    3  A    between atoms: C_5  and  O_6
REMARK    4  A    between atoms: O_6  and  C_7
REMARK    5  A    between atoms: C_7  and  C_8
REMARK    6  A    between atoms: C_7  and  C_19
REMARK    7  A    between atoms: C_8  and  C_9
REMARK    8  A    between atoms: C_10  and  C_11
REMARK    9  A    between atoms: C_14  and  O_15
REMARK   10  A    between atoms: C_16  and  O_17
REMARK   11  A    between atoms: C_19  and  O_20
REMARK   12  A    between atoms: C_19  and  C_21
REMARK   13  A    between atoms: C_24  and  O_25
REMARK   14  A    between atoms: C_26  and  O_27
REMARK   15  A    between atoms: C_29  and  O_30
REMARK   16  A    between atoms: C_31  and  O_32
REMARK   17  A    between atoms: C_33  and  O_34
REMARK                            x       y       z     vdW  Elec       q    Type
REMARK                         _______ _______ _______ _____ _____    ______ ____
ROOT
ATOM      1  C   UNL     1       2.305   7.588  18.824  0.00  0.00    +0.000 C 
ENDROOT
BRANCH   1   2
ATOM      2  C   UNL     1       2.131   7.770  20.377  0.00  0.00    +0.000 C 
BRANCH   2   3
ATOM      3  C   UNL     1       1.110   8.728  20.977  0.00  0.00    +0.000 A 
ATOM      4  C   UNL     1      -0.022   8.279  21.692  0.00  0.00    +0.000 A 
ATOM      5  C   UNL     1      -0.876   9.174  22.357  0.00  0.00    +0.000 A 
ATOM      6  C   UNL     1      -0.602  10.535  22.314  0.00  0.00    +0.000 A 
ATOM      7  C   UNL     1       0.523  10.993  21.636  0.00  0.00    +0.000 A 
ATOM      8  C   UNL     1       1.374  10.111  20.975  0.00  0.00    +0.000 A 
BRANCH   7   9
ATOM      9  O   UNL     1       0.815  12.329  21.637  0.00  0.00    +0.000 OA
ATOM     10  H   UNL     1       1.741  12.376  21.321  0.00  0.00    +0.000 HD
ENDBRANCH   7   9
BRANCH   6  11
ATOM     11  O   UNL     1      -1.398  11.461  22.929  0.00  0.00    +0.000 OA
ATOM     12  H   UNL     1      -1.205  11.442  23.883  0.00  0.00    +0.000 HD
ENDBRANCH   6  11
ENDBRANCH   2   3
BRANCH   2  13
ATOM     13  O   UNL     1       1.865   6.461  20.932  0.00  0.00    +0.000 OA
ATOM     14  H   UNL     1       0.940   6.250  20.700  0.00  0.00    +0.000 HD
ENDBRANCH   2  13
ENDBRANCH   1   2
BRANCH   1  15
ATOM     15  C   UNL     1       2.176   8.834  17.914  0.00  0.00    +0.000 C 
BRANCH  15  16
ATOM     16  C   UNL     1       0.790   9.416  17.853  0.00  0.00    +0.000 C 
ATOM     17  C   UNL     1      -0.310   9.921  17.817  0.00  0.00    +0.000 C 
BRANCH  17  18
ATOM     18  C   UNL     1      -1.556  10.641  17.830  0.00  0.00    +0.000 A 
ATOM     19  C   UNL     1      -1.983  11.347  18.969  0.00  0.00    +0.000 A 
ATOM     20  C   UNL     1      -3.301  11.835  19.064  0.00  0.00    +0.000 A 
ATOM     21  C   UNL     1      -4.187  11.595  18.028  0.00  0.00    +0.000 A 
ATOM     22  C   UNL     1      -3.745  10.956  16.865  0.00  0.00    +0.000 A 
ATOM     23  C   UNL     1      -2.434  10.504  16.750  0.00  0.00    +0.000 A 
BRANCH  22  24
ATOM     24  O   UNL     1      -4.624  10.705  15.855  0.00  0.00    +0.000 OA
ATOM     25  H   UNL     1      -5.428  11.213  16.091  0.00  0.00    +0.000 HD
ENDBRANCH  22  24
BRANCH  21  26
ATOM     26  O   UNL     1      -5.510  11.945  18.091  0.00  0.00    +0.000 OA
ATOM     27  H   UNL     1      -5.680  12.338  18.963  0.00  0.00    +0.000 HD
ENDBRANCH  21  26
ENDBRANCH  17  18
ENDBRANCH  15  16
ENDBRANCH   1  15
BRANCH   1  28
ATOM     28  O   UNL     1       3.538   6.839  18.586  0.00  0.00    +0.000 OA
BRANCH  28  31
ATOM     29  C   UNL     1       1.873   3.604  18.342  0.00  0.00    +0.000 C 
ATOM     30  O   UNL     1       2.128   4.971  18.691  0.00  0.00    +0.000 OA
ATOM     31  C   UNL     1       3.404   5.440  18.285  0.00  0.00    +0.000 C 
ATOM     32  C   UNL     1       4.487   4.648  19.047  0.00  0.00    +0.000 C 
ATOM     33  C   UNL     1       4.296   3.145  18.787  0.00  0.00    +0.000 C 
ATOM     34  C   UNL     1       2.859   2.688  19.079  0.00  0.00    +0.000 C 
BRANCH  34  35
ATOM     35  O   UNL     1       2.643   1.328  18.689  0.00  0.00    +0.000 OA
ATOM     36  H   UNL     1       1.887   0.971  19.188  0.00  0.00    +0.000 HD
ENDBRANCH  34  35
BRANCH  33  37
ATOM     37  O   UNL     1       5.257   2.389  19.541  0.00  0.00    +0.000 OA
ATOM     38  H   UNL     1       5.348   2.786  20.427  0.00  0.00    +0.000 HD
ENDBRANCH  33  37
BRANCH  32  39
ATOM     39  O   UNL     1       5.810   5.021  18.628  0.00  0.00    +0.000 OA
ATOM     40  H   UNL     1       5.751   5.316  17.699  0.00  0.00    +0.000 HD
ENDBRANCH  32  39
BRANCH  29  41
ATOM     41  C   UNL     1       0.426   3.280  18.737  0.00  0.00    +0.000 C 
BRANCH  41  42
ATOM     42  O   UNL     1       0.365   2.940  20.124  0.00  0.00    +0.000 OA
ATOM     43  H   UNL     1       0.179   3.765  20.604  0.00  0.00    +0.000 HD
ENDBRANCH  41  42
ENDBRANCH  29  41
ENDBRANCH  28  31
ENDBRANCH   1  28
TORSDOF 17
ENDMDL
MODEL 9
REMARK VINA RESULT:      -7.3      4.328     11.757
REMARK  Name = 
REMARK  17 active torsions:
REMARK  status: ('A' for Active; 'I' for Inactive)
REMARK    1  A    between atoms: O_1  and  C_2
REMARK    2  A    between atoms: C_2  and  C_3
REMARK    3  A    between atoms: C_5  and  O_6
REMARK    4  A    between atoms: O_6  and  C_7
REMARK    5  A    between atoms: C_7  and  C_8
REMARK    6  A    between atoms: C_7  and  C_19
REMARK    7  A    between atoms: C_8  and  C_9
REMARK    8  A    between atoms: C_10  and  C_11
REMARK    9  A    between atoms: C_14  and  O_15
REMARK   10  A    between atoms: C_16  and  O_17
REMARK   11  A    between atoms: C_19  and  O_20
REMARK   12  A    between atoms: C_19  and  C_21
REMARK   13  A    between atoms: C_24  and  O_25
REMARK   14  A    between atoms: C_26  and  O_27
REMARK   15  A    between atoms: C_29  and  O_30
REMARK   16  A    between atoms: C_31  and  O_32
REMARK   17  A    between atoms: C_33  and  O_34
REMARK                            x       y       z     vdW  Elec       q    Type
REMARK                         _______ _______ _______ _____ _____    ______ ____
ROOT
ATOM      1  C   UNL     1      -0.290  10.695  21.042  0.00  0.00    +0.000 C 
ENDROOT
BRANCH   1   2
ATOM      2  C   UNL     1      -0.188  10.470  19.488  0.00  0.00    +0.000 C 
BRANCH   2   3
ATOM      3  C   UNL     1      -1.373  10.678  18.555  0.00  0.00    +0.000 A 
ATOM      4  C   UNL     1      -1.559   9.911  17.384  0.00  0.00    +0.000 A 
ATOM      5  C   UNL     1      -2.728  10.018  16.611  0.00  0.00    +0.000 A 
ATOM      6  C   UNL     1      -3.727  10.897  17.007  0.00  0.00    +0.000 A 
ATOM      7  C   UNL     1      -3.572  11.642  18.172  0.00  0.00    +0.000 A 
ATOM      8  C   UNL     1      -2.417  11.540  18.942  0.00  0.00    +0.000 A 
BRANCH   7   9
ATOM      9  O   UNL     1      -4.578  12.471  18.583  0.00  0.00    +0.000 OA
ATOM     10  H   UNL     1      -5.289  11.865  18.876  0.00  0.00    +0.000 HD
ENDBRANCH   7   9
BRANCH   6  11
ATOM     11  O   UNL     1      -4.884  11.059  16.296  0.00  0.00    +0.000 OA
ATOM     12  H   UNL     1      -5.585  10.549  16.736  0.00  0.00    +0.000 HD
ENDBRANCH   6  11
ENDBRANCH   2   3
BRANCH   2  13
ATOM     13  O   UNL     1       0.887  11.311  19.006  0.00  0.00    +0.000 OA
ATOM     14  H   UNL     1       0.790  12.167  19.466  0.00  0.00    +0.000 HD
ENDBRANCH   2  13
ENDBRANCH   1   2
BRANCH   1  15
ATOM     15  C   UNL     1       0.609   9.846  21.973  0.00  0.00    +0.000 C 
BRANCH  15  16
ATOM     16  C   UNL     1       1.067   8.545  21.374  0.00  0.00    +0.000 C 
ATOM     17  C   UNL     1       1.416   7.506  20.857  0.00  0.00    +0.000 C 
BRANCH  17  18
ATOM     18  C   UNL     1       1.748   6.311  20.128  0.00  0.00    +0.000 A 
ATOM     19  C   UNL     1       2.456   6.366  18.914  0.00  0.00    +0.000 A 
ATOM     20  C   UNL     1       2.560   5.231  18.087  0.00  0.00    +0.000 A 
ATOM     21  C   UNL     1       1.938   4.055  18.470  0.00  0.00    +0.000 A 
ATOM     22  C   UNL     1       1.295   3.979  19.710  0.00  0.00    +0.000 A 
ATOM     23  C   UNL     1       1.221   5.086  20.548  0.00  0.00    +0.000 A 
BRANCH  22  24
ATOM     24  O   UNL     1       0.668   2.826  20.077  0.00  0.00    +0.000 OA
ATOM     25  H   UNL     1      -0.279   2.983  19.881  0.00  0.00    +0.000 HD
ENDBRANCH  22  24
BRANCH  21  26
ATOM     26  O   UNL     1       1.905   2.942  17.673  0.00  0.00    +0.000 OA
ATOM     27  H   UNL     1       1.813   3.231  16.750  0.00  0.00    +0.000 HD
ENDBRANCH  21  26
ENDBRANCH  17  18
ENDBRANCH  15  16
ENDBRANCH   1  15
BRANCH   1  28
ATOM     28  O   UNL     1      -0.181  12.130  21.304  0.00  0.00    +0.000 OA
BRANCH  28  31
ATOM     29  C   UNL     1      -2.812  12.720  23.759  0.00  0.00    +0.000 C 
ATOM     30  O   UNL     1      -2.162  12.351  22.536  0.00  0.00    +0.000 OA
ATOM     31  C   UNL     1      -0.768  12.616  22.523  0.00  0.00    +0.000 C 
ATOM     32  C   UNL     1      -0.554  14.142  22.619  0.00  0.00    +0.000 C 
ATOM     33  C   UNL     1      -1.248  14.675  23.883  0.00  0.00    +0.000 C 
ATOM     34  C   UNL     1      -2.720  14.239  23.959  0.00  0.00    +0.000 C 
BRANCH  34  35
ATOM     35  O   UNL     1      -3.318  14.602  25.206  0.00  0.00    +0.000 OA
ATOM     36  H   UNL     1      -3.225  15.563  25.335  0.00  0.00    +0.000 HD
ENDBRANCH  34  35
BRANCH  33  37
ATOM     37  O   UNL     1      -1.113  16.103  23.953  0.00  0.00    +0.000 OA
ATOM     38  H   UNL     1      -0.260  16.360  23.557  0.00  0.00    +0.000 HD
ENDBRANCH  33  37
BRANCH  32  39
ATOM     39  O   UNL     1       0.842  14.477  22.686  0.00  0.00    +0.000 OA
ATOM     40  H   UNL     1       0.976  15.285  22.154  0.00  0.00    +0.000 HD
ENDBRANCH  32  39
BRANCH  29  41
ATOM     41  C   UNL     1      -4.277  12.270  23.667  0.00  0.00    +0.000 C 
BRANCH  41  42
ATOM     42  O   UNL     1      -4.746  11.874  24.958  0.00  0.00    +0.000 OA
ATOM     43  H   UNL     1      -5.017  10.943  24.881  0.00  0.00    +0.000 HD
ENDBRANCH  41  42
ENDBRANCH  29  41
ENDBRANCH  28  31
ENDBRANCH   1  28
TORSDOF 17
ENDMDL
