MODEL 1
REMARK VINA RESULT:      -7.5      0.000      0.000
REMARK  Name = 
REMARK  9 active torsions:
REMARK  status: ('A' for Active; 'I' for Inactive)
REMARK    1  A    between atoms: C_1  and  C_2
REMARK    2  A    between atoms: C_8  and  N_9
REMARK    3  A    between atoms: C_15  and  N_16
REMARK    4  A    between atoms: N_16  and  C_17
REMARK    5  A    between atoms: C_18  and  C_20
REMARK    6  A    between atoms: C_21  and  C_22
REMARK    7  A    between atoms: C_22  and  N_23
REMARK    8  A    between atoms: N_23  and  C_24
REMARK    9  A    between atoms: N_23  and  C_25
REMARK                            x       y       z     vdW  Elec       q    Type
REMARK                         _______ _______ _______ _____ _____    ______ ____
ROOT
ATOM      1  N   UNL     1       5.051   4.683  18.183  0.00  0.00    +0.000 N 
ATOM      2  C   UNL     1       4.074   5.566  18.594  0.00  0.00    +0.000 A 
ATOM      3  N   UNL     1       3.916   6.727  18.020  0.00  0.00    +0.000 NA
ATOM      4  C   UNL     1       2.901   7.606  18.441  0.00  0.00    +0.000 A 
ATOM      5  C   UNL     1       2.772   8.816  17.784  0.00  0.00    +0.000 A 
ATOM      6  C   UNL     1       1.797   9.740  18.178  0.00  0.00    +0.000 A 
ATOM      7  C   UNL     1       0.881   9.475  19.211  0.00  0.00    +0.000 A 
ATOM      8  C   UNL     1       1.003   8.228  19.859  0.00  0.00    +0.000 A 
ATOM      9  C   UNL     1       2.009   7.323  19.482  0.00  0.00    +0.000 A 
ATOM     10  N   UNL     1       2.209   6.084  20.105  0.00  0.00    +0.000 N 
ATOM     11  C   UNL     1       1.564   5.479  21.148  0.00  0.00    +0.000 A 
ATOM     12  N   UNL     1       2.095   4.307  21.435  0.00  0.00    +0.000 NA
ATOM     13  C   UNL     1       3.116   4.144  20.532  0.00  0.00    +0.000 A 
ATOM     14  C   UNL     1       3.210   5.235  19.700  0.00  0.00    +0.000 A 
ATOM     15  H   UNL     1       5.720   4.497  18.927  0.00  0.00    +0.000 HD
ENDROOT
BRANCH   1  23
ATOM     16  C   UNL     1       7.663   6.171  17.650  0.00  0.00    +0.000 C 
ATOM     17  C   UNL     1       6.896   5.363  16.634  0.00  0.00    +0.000 A 
ATOM     18  C   UNL     1       7.377   5.397  15.308  0.00  0.00    +0.000 A 
ATOM     19  C   UNL     1       6.715   4.741  14.272  0.00  0.00    +0.000 A 
ATOM     20  C   UNL     1       5.562   4.020  14.544  0.00  0.00    +0.000 A 
ATOM     21  C   UNL     1       5.063   3.982  15.847  0.00  0.00    +0.000 A 
ATOM     22 CL   UNL     1       3.605   3.082  16.124  0.00  0.00    +0.000 Cl
ATOM     23  C   UNL     1       5.701   4.661  16.917  0.00  0.00    +0.000 A 
ENDBRANCH   1  23
BRANCH   7  24
ATOM     24  N   UNL     1      -0.120  10.458  19.588  0.00  0.00    +0.000 N 
ATOM     25  C   UNL     1      -1.138  10.842  18.610  0.00  0.00    +0.000 C 
ATOM     26  C   UNL     1      -0.072  11.103  20.845  0.00  0.00    +0.000 C 
ATOM     27  O   UNL     1       0.796  10.952  21.703  0.00  0.00    +0.000 OA
BRANCH  26  28
ATOM     28  C   UNL     1      -1.139  12.111  21.129  0.00  0.00    +0.000 C 
ATOM     29  C   UNL     1      -1.763  12.078  22.318  0.00  0.00    +0.000 C 
BRANCH  29  30
ATOM     30  C   UNL     1      -2.803  13.063  22.750  0.00  0.00    +0.000 C 
BRANCH  30  31
ATOM     31  N   UNL     1      -4.060  12.403  23.131  0.00  0.00    +0.000 NA
ATOM     32  C   UNL     1      -4.318  12.478  24.571  0.00  0.00    +0.000 C 
ATOM     33  C   UNL     1      -5.177  13.003  22.398  0.00  0.00    +0.000 C 
ENDBRANCH  30  31
ENDBRANCH  29  30
ENDBRANCH  26  28
ENDBRANCH   7  24
TORSDOF 5
ENDMDL
MODEL 2
REMARK VINA RESULT:      -7.3      3.552     10.832
REMARK  Name = 
REMARK  9 active torsions:
REMARK  status: ('A' for Active; 'I' for Inactive)
REMARK    1  A    between atoms: C_1  and  C_2
REMARK    2  A    between atoms: C_8  and  N_9
REMARK    3  A    between atoms: C_15  and  N_16
REMARK    4  A    between atoms: N_16  and  C_17
REMARK    5  A    between atoms: C_18  and  C_20
REMARK    6  A    between atoms: C_21  and  C_22
REMARK    7  A    between atoms: C_22  and  N_23
REMARK    8  A    between atoms: N_23  and  C_24
REMARK    9  A    between atoms: N_23  and  C_25
REMARK                            x       y       z     vdW  Elec       q    Type
REMARK                         _______ _______ _______ _____ _____    ______ ____
ROOT
ATOM      1  N   UNL     1      -4.593  13.151  19.614  0.00  0.00    +0.000 N 
ATOM      2  C   UNL     1      -3.560  12.299  19.278  0.00  0.00    +0.000 A 
ATOM      3  N   UNL     1      -2.540  12.114  20.070  0.00  0.00    +0.000 NA
ATOM      4  C   UNL     1      -1.507  11.227  19.717  0.00  0.00    +0.000 A 
ATOM      5  C   UNL     1      -0.459  11.061  20.604  0.00  0.00    +0.000 A 
ATOM      6  C   UNL     1       0.609  10.211  20.294  0.00  0.00    +0.000 A 
ATOM      7  C   UNL     1       0.653   9.458  19.108  0.00  0.00    +0.000 A 
ATOM      8  C   UNL     1      -0.431   9.616  18.219  0.00  0.00    +0.000 A 
ATOM      9  C   UNL     1      -1.481  10.499  18.523  0.00  0.00    +0.000 A 
ATOM     10  N   UNL     1      -2.569  10.730  17.671  0.00  0.00    +0.000 N 
ATOM     11  C   UNL     1      -2.878  10.227  16.437  0.00  0.00    +0.000 A 
ATOM     12  N   UNL     1      -4.002  10.734  15.971  0.00  0.00    +0.000 NA
ATOM     13  C   UNL     1      -4.444  11.588  16.951  0.00  0.00    +0.000 A 
ATOM     14  C   UNL     1      -3.569  11.607  18.013  0.00  0.00    +0.000 A 
ATOM     15  H   UNL     1      -4.673  13.919  18.951  0.00  0.00    +0.000 HD
ENDROOT
BRANCH   1  23
ATOM     16  C   UNL     1      -3.211  15.502  20.986  0.00  0.00    +0.000 C 
ATOM     17  C   UNL     1      -4.301  14.656  21.592  0.00  0.00    +0.000 A 
ATOM     18  C   UNL     1      -4.621  14.913  22.943  0.00  0.00    +0.000 A 
ATOM     19  C   UNL     1      -5.567  14.154  23.628  0.00  0.00    +0.000 A 
ATOM     20  C   UNL     1      -6.229  13.127  22.970  0.00  0.00    +0.000 A 
ATOM     21  C   UNL     1      -5.920  12.849  21.638  0.00  0.00    +0.000 A 
ATOM     22 CL   UNL     1      -6.765  11.539  20.874  0.00  0.00    +0.000 Cl
ATOM     23  C   UNL     1      -4.944  13.588  20.922  0.00  0.00    +0.000 A 
ENDBRANCH   1  23
BRANCH   7  24
ATOM     24  N   UNL     1       1.778   8.584  18.822  0.00  0.00    +0.000 N 
ATOM     25  C   UNL     1       2.521   8.772  17.575  0.00  0.00    +0.000 C 
ATOM     26  C   UNL     1       2.105   7.511  19.682  0.00  0.00    +0.000 C 
ATOM     27  O   UNL     1       1.489   7.182  20.694  0.00  0.00    +0.000 OA
BRANCH  26  28
ATOM     28  C   UNL     1       3.269   6.660  19.289  0.00  0.00    +0.000 C 
ATOM     29  C   UNL     1       3.040   5.483  18.684  0.00  0.00    +0.000 C 
BRANCH  29  30
ATOM     30  C   UNL     1       4.115   4.568  18.187  0.00  0.00    +0.000 C 
BRANCH  30  31
ATOM     31  N   UNL     1       3.763   3.154  18.379  0.00  0.00    +0.000 NA
ATOM     32  C   UNL     1       3.960   2.711  19.762  0.00  0.00    +0.000 C 
ATOM     33  C   UNL     1       2.370   2.932  17.983  0.00  0.00    +0.000 C 
ENDBRANCH  30  31
ENDBRANCH  29  30
ENDBRANCH  26  28
ENDBRANCH   7  24
TORSDOF 5
ENDMDL
MODEL 3
REMARK VINA RESULT:      -7.3      2.035      2.449
REMARK  Name = 
REMARK  9 active torsions:
REMARK  status: ('A' for Active; 'I' for Inactive)
REMARK    1  A    between atoms: C_1  and  C_2
REMARK    2  A    between atoms: C_8  and  N_9
REMARK    3  A    between atoms: C_15  and  N_16
REMARK    4  A    between atoms: N_16  and  C_17
REMARK    5  A    between atoms: C_18  and  C_20
REMARK    6  A    between atoms: C_21  and  C_22
REMARK    7  A    between atoms: C_22  and  N_23
REMARK    8  A    between atoms: N_23  and  C_24
REMARK    9  A    between atoms: N_23  and  C_25
REMARK                            x       y       z     vdW  Elec       q    Type
REMARK                         _______ _______ _______ _____ _____    ______ ____
ROOT
ATOM      1  N   UNL     1       5.156   4.877  18.268  0.00  0.00    +0.000 N 
ATOM      2  C   UNL     1       4.127   5.737  18.593  0.00  0.00    +0.000 A 
ATOM      3  N   UNL     1       3.951   6.864  17.960  0.00  0.00    +0.000 NA
ATOM      4  C   UNL     1       2.885   7.718  18.294  0.00  0.00    +0.000 A 
ATOM      5  C   UNL     1       2.740   8.892  17.577  0.00  0.00    +0.000 A 
ATOM      6  C   UNL     1       1.713   9.792  17.884  0.00  0.00    +0.000 A 
ATOM      7  C   UNL     1       0.761   9.537  18.886  0.00  0.00    +0.000 A 
ATOM      8  C   UNL     1       0.901   8.326  19.596  0.00  0.00    +0.000 A 
ATOM      9  C   UNL     1       1.957   7.446  19.306  0.00  0.00    +0.000 A 
ATOM     10  N   UNL     1       2.176   6.245  19.995  0.00  0.00    +0.000 N 
ATOM     11  C   UNL     1       1.507   5.661  21.035  0.00  0.00    +0.000 A 
ATOM     12  N   UNL     1       2.069   4.526  21.399  0.00  0.00    +0.000 NA
ATOM     13  C   UNL     1       3.136   4.364  20.551  0.00  0.00    +0.000 A 
ATOM     14  C   UNL     1       3.227   5.421  19.674  0.00  0.00    +0.000 A 
ATOM     15  H   UNL     1       5.796   4.751  19.048  0.00  0.00    +0.000 HD
ENDROOT
BRANCH   1  23
ATOM     16  C   UNL     1       7.638   6.569  17.724  0.00  0.00    +0.000 C 
ATOM     17  C   UNL     1       6.999   5.617  16.745  0.00  0.00    +0.000 A 
ATOM     18  C   UNL     1       7.536   5.600  15.440  0.00  0.00    +0.000 A 
ATOM     19  C   UNL     1       6.989   4.808  14.434  0.00  0.00    +0.000 A 
ATOM     20  C   UNL     1       5.898   3.999  14.715  0.00  0.00    +0.000 A 
ATOM     21  C   UNL     1       5.344   4.009  15.996  0.00  0.00    +0.000 A 
ATOM     22 CL   UNL     1       3.966   2.993  16.283  0.00  0.00    +0.000 Cl
ATOM     23  C   UNL     1       5.864   4.824  17.034  0.00  0.00    +0.000 A 
ENDBRANCH   1  23
BRANCH   7  24
ATOM     24  N   UNL     1      -0.293  10.494  19.173  0.00  0.00    +0.000 N 
ATOM     25  C   UNL     1      -0.213  11.288  20.400  0.00  0.00    +0.000 C 
ATOM     26  C   UNL     1      -1.427  10.604  18.336  0.00  0.00    +0.000 C 
ATOM     27  O   UNL     1      -1.664   9.915  17.345  0.00  0.00    +0.000 OA
BRANCH  26  28
ATOM     28  C   UNL     1      -2.463  11.607  18.728  0.00  0.00    +0.000 C 
ATOM     29  C   UNL     1      -3.733  11.419  18.333  0.00  0.00    +0.000 C 
BRANCH  29  30
ATOM     30  C   UNL     1      -4.873  12.314  18.708  0.00  0.00    +0.000 C 
BRANCH  30  31
ATOM     31  N   UNL     1      -6.096  11.984  17.964  0.00  0.00    +0.000 NA
ATOM     32  C   UNL     1      -7.196  11.584  18.844  0.00  0.00    +0.000 C 
ATOM     33  C   UNL     1      -6.506  13.132  17.152  0.00  0.00    +0.000 C 
ENDBRANCH  30  31
ENDBRANCH  29  30
ENDBRANCH  26  28
ENDBRANCH   7  24
TORSDOF 5
ENDMDL
MODEL 4
REMARK VINA RESULT:      -7.2      1.045      1.611
REMARK  Name = 
REMARK  9 active torsions:
REMARK  status: ('A' for Active; 'I' for Inactive)
REMARK    1  A    between atoms: C_1  and  C_2
REMARK    2  A    between atoms: C_8  and  N_9
REMARK    3  A    between atoms: C_15  and  N_16
REMARK    4  A    between atoms: N_16  and  C_17
REMARK    5  A    between atoms: C_18  and  C_20
REMARK    6  A    between atoms: C_21  and  C_22
REMARK    7  A    between atoms: C_22  and  N_23
REMARK    8  A    between atoms: N_23  and  C_24
REMARK    9  A    between atoms: N_23  and  C_25
REMARK                            x       y       z     vdW  Elec       q    Type
REMARK                         _______ _______ _______ _____ _____    ______ ____
ROOT
ATOM      1  N   UNL     1       5.059   4.756  17.928  0.00  0.00    +0.000 N 
ATOM      2  C   UNL     1       4.097   5.602  18.440  0.00  0.00    +0.000 A 
ATOM      3  N   UNL     1       3.885   6.785  17.931  0.00  0.00    +0.000 NA
ATOM      4  C   UNL     1       2.888   7.626  18.457  0.00  0.00    +0.000 A 
ATOM      5  C   UNL     1       2.699   8.862  17.865  0.00  0.00    +0.000 A 
ATOM      6  C   UNL     1       1.738   9.750  18.363  0.00  0.00    +0.000 A 
ATOM      7  C   UNL     1       0.896   9.425  19.439  0.00  0.00    +0.000 A 
ATOM      8  C   UNL     1       1.078   8.152  20.021  0.00  0.00    +0.000 A 
ATOM      9  C   UNL     1       2.070   7.282  19.539  0.00  0.00    +0.000 A 
ATOM     10  N   UNL     1       2.329   6.020  20.091  0.00  0.00    +0.000 N 
ATOM     11  C   UNL     1       1.762   5.358  21.145  0.00  0.00    +0.000 A 
ATOM     12  N   UNL     1       2.327   4.184  21.344  0.00  0.00    +0.000 NA
ATOM     13  C   UNL     1       3.289   4.079  20.370  0.00  0.00    +0.000 A 
ATOM     14  C   UNL     1       3.313   5.208  19.584  0.00  0.00    +0.000 A 
ATOM     15  H   UNL     1       5.777   4.548  18.617  0.00  0.00    +0.000 HD
ENDROOT
BRANCH   1  23
ATOM     16  C   UNL     1       3.809   3.313  15.545  0.00  0.00    +0.000 C 
ATOM     17  C   UNL     1       5.082   4.118  15.507  0.00  0.00    +0.000 A 
ATOM     18  C   UNL     1       5.802   4.104  14.293  0.00  0.00    +0.000 A 
ATOM     19  C   UNL     1       7.023   4.760  14.158  0.00  0.00    +0.000 A 
ATOM     20  C   UNL     1       7.547   5.462  15.235  0.00  0.00    +0.000 A 
ATOM     21  C   UNL     1       6.857   5.479  16.448  0.00  0.00    +0.000 A 
ATOM     22 CL   UNL     1       7.572   6.355  17.765  0.00  0.00    +0.000 Cl
ATOM     23  C   UNL     1       5.624   4.800  16.622  0.00  0.00    +0.000 A 
ENDBRANCH   1  23
BRANCH   7  24
ATOM     24  N   UNL     1      -0.092  10.372  19.925  0.00  0.00    +0.000 N 
ATOM     25  C   UNL     1      -1.279  10.636  19.111  0.00  0.00    +0.000 C 
ATOM     26  C   UNL     1       0.118  11.098  21.120  0.00  0.00    +0.000 C 
ATOM     27  O   UNL     1       1.122  11.049  21.828  0.00  0.00    +0.000 OA
BRANCH  26  28
ATOM     28  C   UNL     1      -0.952  12.060  21.524  0.00  0.00    +0.000 C 
ATOM     29  C   UNL     1      -1.500  11.948  22.745  0.00  0.00    +0.000 C 
BRANCH  29  30
ATOM     30  C   UNL     1      -2.533  12.882  23.293  0.00  0.00    +0.000 C 
BRANCH  30  31
ATOM     31  N   UNL     1      -3.873  12.278  23.292  0.00  0.00    +0.000 NA
ATOM     32  C   UNL     1      -4.621  12.575  24.516  0.00  0.00    +0.000 C 
ATOM     33  C   UNL     1      -4.627  12.747  22.127  0.00  0.00    +0.000 C 
ENDBRANCH  30  31
ENDBRANCH  29  30
ENDBRANCH  26  28
ENDBRANCH   7  24
TORSDOF 5
ENDMDL
MODEL 5
REMARK VINA RESULT:      -7.1      1.340      1.736
REMARK  Name = 
REMARK  9 active torsions:
REMARK  status: ('A' for Active; 'I' for Inactive)
REMARK    1  A    between atoms: C_1  and  C_2
REMARK    2  A    between atoms: C_8  and  N_9
REMARK    3  A    between atoms: C_15  and  N_16
REMARK    4  A    between atoms: N_16  and  C_17
REMARK    5  A    between atoms: C_18  and  C_20
REMARK    6  A    between atoms: C_21  and  C_22
REMARK    7  A    between atoms: C_22  and  N_23
REMARK    8  A    between atoms: N_23  and  C_24
REMARK    9  A    between atoms: N_23  and  C_25
REMARK                            x       y       z     vdW  Elec       q    Type
REMARK                         _______ _______ _______ _____ _____    ______ ____
ROOT
ATOM      1  N   UNL     1       5.051   4.869  18.178  0.00  0.00    +0.000 N 
ATOM      2  C   UNL     1       4.065   5.766  18.536  0.00  0.00    +0.000 A 
ATOM      3  N   UNL     1       3.915   6.903  17.914  0.00  0.00    +0.000 NA
ATOM      4  C   UNL     1       2.893   7.796  18.283  0.00  0.00    +0.000 A 
ATOM      5  C   UNL     1       2.774   8.979  17.577  0.00  0.00    +0.000 A 
ATOM      6  C   UNL     1       1.791   9.916  17.917  0.00  0.00    +0.000 A 
ATOM      7  C   UNL     1       0.858   9.691  18.944  0.00  0.00    +0.000 A 
ATOM      8  C   UNL     1       0.971   8.471  19.644  0.00  0.00    +0.000 A 
ATOM      9  C   UNL     1       1.984   7.553  19.319  0.00  0.00    +0.000 A 
ATOM     10  N   UNL     1       2.176   6.340  19.995  0.00  0.00    +0.000 N 
ATOM     11  C   UNL     1       1.514   5.776  21.051  0.00  0.00    +0.000 A 
ATOM     12  N   UNL     1       2.041   4.617  21.393  0.00  0.00    +0.000 NA
ATOM     13  C   UNL     1       3.078   4.420  20.514  0.00  0.00    +0.000 A 
ATOM     14  C   UNL     1       3.184   5.478  19.641  0.00  0.00    +0.000 A 
ATOM     15  H   UNL     1       5.707   4.714  18.939  0.00  0.00    +0.000 HD
ENDROOT
BRANCH   1  23
ATOM     16  C   UNL     1       7.588   6.456  17.578  0.00  0.00    +0.000 C 
ATOM     17  C   UNL     1       6.882   5.543  16.610  0.00  0.00    +0.000 A 
ATOM     18  C   UNL     1       7.381   5.514  15.290  0.00  0.00    +0.000 A 
ATOM     19  C   UNL     1       6.772   4.756  14.293  0.00  0.00    +0.000 A 
ATOM     20  C   UNL     1       5.654   3.993  14.599  0.00  0.00    +0.000 A 
ATOM     21  C   UNL     1       5.137   4.016  15.894  0.00  0.00    +0.000 A 
ATOM     22 CL   UNL     1       3.724   3.058  16.212  0.00  0.00    +0.000 Cl
ATOM     23  C   UNL     1       5.721   4.797  16.924  0.00  0.00    +0.000 A 
ENDBRANCH   1  23
BRANCH   7  24
ATOM     24  N   UNL     1      -0.150  10.686  19.266  0.00  0.00    +0.000 N 
ATOM     25  C   UNL     1      -0.013  11.457  20.502  0.00  0.00    +0.000 C 
ATOM     26  C   UNL     1      -1.293  10.856  18.453  0.00  0.00    +0.000 C 
ATOM     27  O   UNL     1      -1.577  10.193  17.457  0.00  0.00    +0.000 OA
BRANCH  26  28
ATOM     28  C   UNL     1      -2.279  11.895  18.881  0.00  0.00    +0.000 C 
ATOM     29  C   UNL     1      -3.589  11.600  18.849  0.00  0.00    +0.000 C 
BRANCH  29  30
ATOM     30  C   UNL     1      -4.672  12.526  19.307  0.00  0.00    +0.000 C 
BRANCH  30  31
ATOM     31  N   UNL     1      -4.994  12.334  20.728  0.00  0.00    +0.000 NA
ATOM     32  C   UNL     1      -4.398  13.366  21.581  0.00  0.00    +0.000 C 
ATOM     33  C   UNL     1      -6.447  12.322  20.909  0.00  0.00    +0.000 C 
ENDBRANCH  30  31
ENDBRANCH  29  30
ENDBRANCH  26  28
ENDBRANCH   7  24
TORSDOF 5
ENDMDL
MODEL 6
REMARK VINA RESULT:      -7.0      1.512      2.038
REMARK  Name = 
REMARK  9 active torsions:
REMARK  status: ('A' for Active; 'I' for Inactive)
REMARK    1  A    between atoms: C_1  and  C_2
REMARK    2  A    between atoms: C_8  and  N_9
REMARK    3  A    between atoms: C_15  and  N_16
REMARK    4  A    between atoms: N_16  and  C_17
REMARK    5  A    between atoms: C_18  and  C_20
REMARK    6  A    between atoms: C_21  and  C_22
REMARK    7  A    between atoms: C_22  and  N_23
REMARK    8  A    between atoms: N_23  and  C_24
REMARK    9  A    between atoms: N_23  and  C_25
REMARK                            x       y       z     vdW  Elec       q    Type
REMARK                         _______ _______ _______ _____ _____    ______ ____
ROOT
ATOM      1  N   UNL     1       5.076   4.011  18.226  0.00  0.00    +0.000 N 
ATOM      2  C   UNL     1       4.115   4.752  18.883  0.00  0.00    +0.000 A 
ATOM      3  N   UNL     1       3.868   5.992  18.561  0.00  0.00    +0.000 NA
ATOM      4  C   UNL     1       2.871   6.724  19.231  0.00  0.00    +0.000 A 
ATOM      5  C   UNL     1       2.644   8.030  18.834  0.00  0.00    +0.000 A 
ATOM      6  C   UNL     1       1.682   8.814  19.483  0.00  0.00    +0.000 A 
ATOM      7  C   UNL     1       0.877   8.314  20.521  0.00  0.00    +0.000 A 
ATOM      8  C   UNL     1       1.099   6.974  20.903  0.00  0.00    +0.000 A 
ATOM      9  C   UNL     1       2.092   6.206  20.271  0.00  0.00    +0.000 A 
ATOM     10  N   UNL     1       2.388   4.883  20.623  0.00  0.00    +0.000 N 
ATOM     11  C   UNL     1       1.864   4.060  21.582  0.00  0.00    +0.000 A 
ATOM     12  N   UNL     1       2.455   2.882  21.589  0.00  0.00    +0.000 NA
ATOM     13  C   UNL     1       3.391   2.943  20.586  0.00  0.00    +0.000 A 
ATOM     14  C   UNL     1       3.372   4.176  19.976  0.00  0.00    +0.000 A 
ATOM     15  H   UNL     1       5.818   3.720  18.858  0.00  0.00    +0.000 HD
ENDROOT
BRANCH   1  23
ATOM     16  C   UNL     1       3.521   3.388  15.675  0.00  0.00    +0.000 C 
ATOM     17  C   UNL     1       4.916   3.955  15.729  0.00  0.00    +0.000 A 
ATOM     18  C   UNL     1       5.586   4.101  14.495  0.00  0.00    +0.000 A 
ATOM     19  C   UNL     1       6.901   4.556  14.426  0.00  0.00    +0.000 A 
ATOM     20  C   UNL     1       7.572   4.892  15.592  0.00  0.00    +0.000 A 
ATOM     21  C   UNL     1       6.932   4.745  16.824  0.00  0.00    +0.000 A 
ATOM     22 CL   UNL     1       7.830   5.160  18.251  0.00  0.00    +0.000 Cl
ATOM     23  C   UNL     1       5.603   4.261  16.928  0.00  0.00    +0.000 A 
ENDBRANCH   1  23
BRANCH   7  24
ATOM     24  N   UNL     1      -0.113   9.157  21.167  0.00  0.00    +0.000 N 
ATOM     25  C   UNL     1      -1.253   9.638  20.385  0.00  0.00    +0.000 C 
ATOM     26  C   UNL     1       0.053   9.586  22.504  0.00  0.00    +0.000 C 
ATOM     27  O   UNL     1       1.020   9.345  23.225  0.00  0.00    +0.000 OA
BRANCH  26  28
ATOM     28  C   UNL     1      -1.014  10.465  23.071  0.00  0.00    +0.000 C 
ATOM     29  C   UNL     1      -0.942  11.790  22.865  0.00  0.00    +0.000 C 
BRANCH  29  30
ATOM     30  C   UNL     1      -1.974  12.771  23.325  0.00  0.00    +0.000 C 
BRANCH  30  31
ATOM     31  N   UNL     1      -3.330  12.207  23.269  0.00  0.00    +0.000 NA
ATOM     32  C   UNL     1      -4.122  12.536  24.457  0.00  0.00    +0.000 C 
ATOM     33  C   UNL     1      -4.017  12.689  22.069  0.00  0.00    +0.000 C 
ENDBRANCH  30  31
ENDBRANCH  29  30
ENDBRANCH  26  28
ENDBRANCH   7  24
TORSDOF 5
ENDMDL
MODEL 7
REMARK VINA RESULT:      -7.0      1.496      1.781
REMARK  Name = 
REMARK  9 active torsions:
REMARK  status: ('A' for Active; 'I' for Inactive)
REMARK    1  A    between atoms: C_1  and  C_2
REMARK    2  A    between atoms: C_8  and  N_9
REMARK    3  A    between atoms: C_15  and  N_16
REMARK    4  A    between atoms: N_16  and  C_17
REMARK    5  A    between atoms: C_18  and  C_20
REMARK    6  A    between atoms: C_21  and  C_22
REMARK    7  A    between atoms: C_22  and  N_23
REMARK    8  A    between atoms: N_23  and  C_24
REMARK    9  A    between atoms: N_23  and  C_25
REMARK                            x       y       z     vdW  Elec       q    Type
REMARK                         _______ _______ _______ _____ _____    ______ ____
ROOT
ATOM      1  N   UNL     1       5.072   3.849  18.379  0.00  0.00    +0.000 N 
ATOM      2  C   UNL     1       4.121   4.643  18.987  0.00  0.00    +0.000 A 
ATOM      3  N   UNL     1       3.928   5.881  18.622  0.00  0.00    +0.000 NA
ATOM      4  C   UNL     1       2.940   6.668  19.241  0.00  0.00    +0.000 A 
ATOM      5  C   UNL     1       2.772   7.969  18.800  0.00  0.00    +0.000 A 
ATOM      6  C   UNL     1       1.822   8.805  19.398  0.00  0.00    +0.000 A 
ATOM      7  C   UNL     1       0.970   8.366  20.426  0.00  0.00    +0.000 A 
ATOM      8  C   UNL     1       1.132   7.031  20.853  0.00  0.00    +0.000 A 
ATOM      9  C   UNL     1       2.113   6.210  20.272  0.00  0.00    +0.000 A 
ATOM     10  N   UNL     1       2.351   4.888  20.671  0.00  0.00    +0.000 N 
ATOM     11  C   UNL     1       1.771   4.113  21.637  0.00  0.00    +0.000 A 
ATOM     12  N   UNL     1       2.318   2.915  21.696  0.00  0.00    +0.000 NA
ATOM     13  C   UNL     1       3.283   2.913  20.719  0.00  0.00    +0.000 A 
ATOM     14  C   UNL     1       3.326   4.127  20.073  0.00  0.00    +0.000 A 
ATOM     15  H   UNL     1       5.785   3.551  19.041  0.00  0.00    +0.000 HD
ENDROOT
BRANCH   1  23
ATOM     16  C   UNL     1       7.950   4.785  17.981  0.00  0.00    +0.000 C 
ATOM     17  C   UNL     1       6.965   4.500  16.876  0.00  0.00    +0.000 A 
ATOM     18  C   UNL     1       7.385   4.801  15.563  0.00  0.00    +0.000 A 
ATOM     19  C   UNL     1       6.538   4.639  14.469  0.00  0.00    +0.000 A 
ATOM     20  C   UNL     1       5.253   4.155  14.662  0.00  0.00    +0.000 A 
ATOM     21  C   UNL     1       4.813   3.863  15.954  0.00  0.00    +0.000 A 
ATOM     22 CL   UNL     1       3.187   3.281  16.137  0.00  0.00    +0.000 Cl
ATOM     23  C   UNL     1       5.644   4.041  17.090  0.00  0.00    +0.000 A 
ENDBRANCH   1  23
BRANCH   7  24
ATOM     24  N   UNL     1      -0.006   9.263  21.019  0.00  0.00    +0.000 N 
ATOM     25  C   UNL     1      -1.091   9.779  20.183  0.00  0.00    +0.000 C 
ATOM     26  C   UNL     1       0.127   9.707  22.354  0.00  0.00    +0.000 C 
ATOM     27  O   UNL     1       1.052   9.437  23.117  0.00  0.00    +0.000 OA
BRANCH  26  28
ATOM     28  C   UNL     1      -0.922  10.642  22.863  0.00  0.00    +0.000 C 
ATOM     29  C   UNL     1      -0.741  11.965  22.716  0.00  0.00    +0.000 C 
BRANCH  29  30
ATOM     30  C   UNL     1      -1.739  13.002  23.126  0.00  0.00    +0.000 C 
BRANCH  30  31
ATOM     31  N   UNL     1      -1.633  14.219  22.308  0.00  0.00    +0.000 NA
ATOM     32  C   UNL     1      -0.279  14.779  22.312  0.00  0.00    +0.000 C 
ATOM     33  C   UNL     1      -2.043  13.928  20.933  0.00  0.00    +0.000 C 
ENDBRANCH  30  31
ENDBRANCH  29  30
ENDBRANCH  26  28
ENDBRANCH   7  24
TORSDOF 5
ENDMDL
MODEL 8
REMARK VINA RESULT:      -7.0      3.808     10.934
REMARK  Name = 
REMARK  9 active torsions:
REMARK  status: ('A' for Active; 'I' for Inactive)
REMARK    1  A    between atoms: C_1  and  C_2
REMARK    2  A    between atoms: C_8  and  N_9
REMARK    3  A    between atoms: C_15  and  N_16
REMARK    4  A    between atoms: N_16  and  C_17
REMARK    5  A    between atoms: C_18  and  C_20
REMARK    6  A    between atoms: C_21  and  C_22
REMARK    7  A    between atoms: C_22  and  N_23
REMARK    8  A    between atoms: N_23  and  C_24
REMARK    9  A    between atoms: N_23  and  C_25
REMARK                            x       y       z     vdW  Elec       q    Type
REMARK                         _______ _______ _______ _____ _____    ______ ____
ROOT
ATOM      1  N   UNL     1      -4.258  14.049  20.342  0.00  0.00    +0.000 N 
ATOM      2  C   UNL     1      -3.377  13.054  19.969  0.00  0.00    +0.000 A 
ATOM      3  N   UNL     1      -2.198  12.944  20.516  0.00  0.00    +0.000 NA
ATOM      4  C   UNL     1      -1.322  11.912  20.135  0.00  0.00    +0.000 A 
ATOM      5  C   UNL     1      -0.091  11.837  20.762  0.00  0.00    +0.000 A 
ATOM      6  C   UNL     1       0.831  10.846  20.404  0.00  0.00    +0.000 A 
ATOM      7  C   UNL     1       0.546   9.863  19.441  0.00  0.00    +0.000 A 
ATOM      8  C   UNL     1      -0.721   9.932  18.824  0.00  0.00    +0.000 A 
ATOM      9  C   UNL     1      -1.626  10.952  19.163  0.00  0.00    +0.000 A 
ATOM     10  N   UNL     1      -2.885  11.101  18.566  0.00  0.00    +0.000 N 
ATOM     11  C   UNL     1      -3.514  10.384  17.585  0.00  0.00    +0.000 A 
ATOM     12  N   UNL     1      -4.699  10.884  17.300  0.00  0.00    +0.000 NA
ATOM     13  C   UNL     1      -4.846  11.961  18.140  0.00  0.00    +0.000 A 
ATOM     14  C   UNL     1      -3.731  12.118  18.931  0.00  0.00    +0.000 A 
ATOM     15  H   UNL     1      -4.474  14.666  19.563  0.00  0.00    +0.000 HD
ENDROOT
BRANCH   1  23
ATOM     16  C   UNL     1      -2.677  16.635  20.701  0.00  0.00    +0.000 C 
ATOM     17  C   UNL     1      -3.504  15.964  21.766  0.00  0.00    +0.000 A 
ATOM     18  C   UNL     1      -3.445  16.527  23.059  0.00  0.00    +0.000 A 
ATOM     19  C   UNL     1      -4.118  15.957  24.137  0.00  0.00    +0.000 A 
ATOM     20  C   UNL     1      -4.881  14.815  23.943  0.00  0.00    +0.000 A 
ATOM     21  C   UNL     1      -4.944  14.235  22.675  0.00  0.00    +0.000 A 
ATOM     22 CL   UNL     1      -5.897  12.795  22.497  0.00  0.00    +0.000 Cl
ATOM     23  C   UNL     1      -4.250  14.779  21.564  0.00  0.00    +0.000 A 
ENDBRANCH   1  23
BRANCH   7  24
ATOM     24  N   UNL     1       1.528   8.848  19.099  0.00  0.00    +0.000 N 
ATOM     25  C   UNL     1       2.175   8.904  17.787  0.00  0.00    +0.000 C 
ATOM     26  C   UNL     1       1.799   7.771  19.973  0.00  0.00    +0.000 C 
ATOM     27  O   UNL     1       1.239   7.552  21.046  0.00  0.00    +0.000 OA
BRANCH  26  28
ATOM     28  C   UNL     1       2.813   6.771  19.520  0.00  0.00    +0.000 C 
ATOM     29  C   UNL     1       2.641   5.479  19.842  0.00  0.00    +0.000 C 
BRANCH  29  30
ATOM     30  C   UNL     1       3.548   4.373  19.401  0.00  0.00    +0.000 C 
BRANCH  30  31
ATOM     31  N   UNL     1       2.796   3.202  18.929  0.00  0.00    +0.000 NA
ATOM     32  C   UNL     1       1.478   3.093  19.558  0.00  0.00    +0.000 C 
ATOM     33  C   UNL     1       2.645   3.264  17.474  0.00  0.00    +0.000 C 
ENDBRANCH  30  31
ENDBRANCH  29  30
ENDBRANCH  26  28
ENDBRANCH   7  24
TORSDOF 5
ENDMDL
MODEL 9
REMARK VINA RESULT:      -6.9      3.527     10.988
REMARK  Name = 
REMARK  9 active torsions:
REMARK  status: ('A' for Active; 'I' for Inactive)
REMARK    1  A    between atoms: C_1  and  C_2
REMARK    2  A    between atoms: C_8  and  N_9
REMARK    3  A    between atoms: C_15  and  N_16
REMARK    4  A    between atoms: N_16  and  C_17
REMARK    5  A    between atoms: C_18  and  C_20
REMARK    6  A    between atoms: C_21  and  C_22
REMARK    7  A    between atoms: C_22  and  N_23
REMARK    8  A    between atoms: N_23  and  C_24
REMARK    9  A    between atoms: N_23  and  C_25
REMARK                            x       y       z     vdW  Elec       q    Type
REMARK                         _______ _______ _______ _____ _____    ______ ____
ROOT
ATOM      1  N   UNL     1      -4.349  13.746  20.123  0.00  0.00    +0.000 N 
ATOM      2  C   UNL     1      -3.421  12.793  19.757  0.00  0.00    +0.000 A 
ATOM      3  N   UNL     1      -2.280  12.675  20.378  0.00  0.00    +0.000 NA
ATOM      4  C   UNL     1      -1.354  11.685  20.002  0.00  0.00    +0.000 A 
ATOM      5  C   UNL     1      -0.168  11.598  20.708  0.00  0.00    +0.000 A 
ATOM      6  C   UNL     1       0.800  10.648  20.361  0.00  0.00    +0.000 A 
ATOM      7  C   UNL     1       0.606   9.718  19.326  0.00  0.00    +0.000 A 
ATOM      8  C   UNL     1      -0.617   9.797  18.626  0.00  0.00    +0.000 A 
ATOM      9  C   UNL     1      -1.567  10.778  18.958  0.00  0.00    +0.000 A 
ATOM     10  N   UNL     1      -2.785  10.935  18.283  0.00  0.00    +0.000 N 
ATOM     11  C   UNL     1      -3.327  10.265  17.221  0.00  0.00    +0.000 A 
ATOM     12  N   UNL     1      -4.502  10.757  16.882  0.00  0.00    +0.000 NA
ATOM     13  C   UNL     1      -4.733  11.780  17.770  0.00  0.00    +0.000 A 
ATOM     14  C   UNL     1      -3.679  11.913  18.645  0.00  0.00    +0.000 A 
ATOM     15  H   UNL     1      -4.525  14.404  19.367  0.00  0.00    +0.000 HD
ENDROOT
BRANCH   1  23
ATOM     16  C   UNL     1      -2.684  16.208  20.820  0.00  0.00    +0.000 C 
ATOM     17  C   UNL     1      -3.663  15.528  21.741  0.00  0.00    +0.000 A 
ATOM     18  C   UNL     1      -3.724  16.012  23.066  0.00  0.00    +0.000 A 
ATOM     19  C   UNL     1      -4.546  15.423  24.024  0.00  0.00    +0.000 A 
ATOM     20  C   UNL     1      -5.341  14.342  23.673  0.00  0.00    +0.000 A 
ATOM     21  C   UNL     1      -5.288  13.840  22.372  0.00  0.00    +0.000 A 
ATOM     22 CL   UNL     1      -6.290  12.473  21.997  0.00  0.00    +0.000 Cl
ATOM     23  C   UNL     1      -4.443  14.404  21.382  0.00  0.00    +0.000 A 
ENDBRANCH   1  23
BRANCH   7  24
ATOM     24  N   UNL     1       1.633   8.745  18.996  0.00  0.00    +0.000 N 
ATOM     25  C   UNL     1       2.340   8.867  17.721  0.00  0.00    +0.000 C 
ATOM     26  C   UNL     1       1.894   7.644  19.844  0.00  0.00    +0.000 C 
ATOM     27  O   UNL     1       1.291   7.370  20.880  0.00  0.00    +0.000 OA
BRANCH  26  28
ATOM     28  C   UNL     1       2.959   6.691  19.406  0.00  0.00    +0.000 C 
ATOM     29  C   UNL     1       2.651   5.739  18.510  0.00  0.00    +0.000 C 
BRANCH  29  30
ATOM     30  C   UNL     1       3.636   4.764  17.945  0.00  0.00    +0.000 C 
BRANCH  30  31
ATOM     31  N   UNL     1       4.719   4.467  18.894  0.00  0.00    +0.000 NA
ATOM     32  C   UNL     1       4.552   3.163  19.542  0.00  0.00    +0.000 C 
ATOM     33  C   UNL     1       6.009   4.514  18.203  0.00  0.00    +0.000 C 
ENDBRANCH  30  31
ENDBRANCH  29  30
ENDBRANCH  26  28
ENDBRANCH   7  24
TORSDOF 5
ENDMDL
