MODEL 1
REMARK VINA RESULT:      -7.0      0.000      0.000
REMARK  Name = 
REMARK  8 active torsions:
REMARK  status: ('A' for Active; 'I' for Inactive)
REMARK    1  A    between atoms: C_1  and  O_2
REMARK    2  A    between atoms: O_2  and  C_3
REMARK    3  A    between atoms: C_6  and  C_7
REMARK    4  A    between atoms: C_8  and  C_9
REMARK    5  A    between atoms: C_17  and  O_18
REMARK    6  A    between atoms: O_18  and  C_19
REMARK    7  A    between atoms: C_20  and  O_21
REMARK    8  A    between atoms: O_21  and  C_22
REMARK                            x       y       z     vdW  Elec       q    Type
REMARK                         _______ _______ _______ _____ _____    ______ ____
ROOT
ATOM      1  C   UNL     1       5.264   4.942  17.528  0.00  0.00    +0.000 A 
ATOM      2  C   UNL     1       5.273   6.227  16.970  0.00  0.00    +0.000 A 
ATOM      3  C   UNL     1       4.213   7.099  17.184  0.00  0.00    +0.000 A 
ATOM      4  C   UNL     1       3.117   6.693  17.947  0.00  0.00    +0.000 A 
ATOM      5  C   UNL     1       3.051   5.370  18.445  0.00  0.00    +0.000 A 
ATOM      6  C   UNL     1       4.124   4.473  18.218  0.00  0.00    +0.000 A 
ENDROOT
BRANCH   1   8
ATOM      7  C   UNL     1       7.615   4.712  17.787  0.00  0.00    +0.000 C 
ATOM      8  O   UNL     1       6.367   4.134  17.389  0.00  0.00    +0.000 OA
ENDBRANCH   1   8
BRANCH   4   9
ATOM      9  C   UNL     1       2.097   7.705  18.249  0.00  0.00    +0.000 C 
ATOM     10  C   UNL     1       2.156   8.978  17.826  0.00  0.00    +0.000 C 
BRANCH  10  11
ATOM     11  C   UNL     1       1.106   9.923  18.303  0.00  0.00    +0.000 C 
ATOM     12  O   UNL     1       1.334  10.706  19.215  0.00  0.00    +0.000 OA
ATOM     13  N   UNL     1      -0.101   9.754  17.655  0.00  0.00    +0.000 N 
ATOM     14  C   UNL     1      -1.267  10.442  17.844  0.00  0.00    +0.000 C 
ATOM     15  N   UNL     1      -2.373   9.921  17.436  0.00  0.00    +0.000 NA
ATOM     16  C   UNL     1      -3.492  10.829  17.779  0.00  0.00    +0.000 C 
ATOM     17  C   UNL     1      -3.077  11.804  18.872  0.00  0.00    +0.000 C 
ATOM     18  S   UNL     1      -1.317  12.005  18.585  0.00  0.00    +0.000 S 
ATOM     19  H   UNL     1      -0.229   8.935  17.084  0.00  0.00    +0.000 HD
ENDBRANCH  10  11
ENDBRANCH   4   9
BRANCH   5  20
ATOM     20  O   UNL     1       1.938   5.130  19.224  0.00  0.00    +0.000 OA
ATOM     21  C   UNL     1       2.097   5.081  20.634  0.00  0.00    +0.000 C 
ENDBRANCH   5  20
BRANCH   6  22
ATOM     22  O   UNL     1       3.963   3.216  18.743  0.00  0.00    +0.000 OA
ATOM     23  C   UNL     1       3.395   2.166  17.979  0.00  0.00    +0.000 C 
ENDBRANCH   6  22
TORSDOF 5
ENDMDL
MODEL 2
REMARK VINA RESULT:      -6.9      2.163      2.409
REMARK  Name = 
REMARK  8 active torsions:
REMARK  status: ('A' for Active; 'I' for Inactive)
REMARK    1  A    between atoms: C_1  and  O_2
REMARK    2  A    between atoms: O_2  and  C_3
REMARK    3  A    between atoms: C_6  and  C_7
REMARK    4  A    between atoms: C_8  and  C_9
REMARK    5  A    between atoms: C_17  and  O_18
REMARK    6  A    between atoms: O_18  and  C_19
REMARK    7  A    between atoms: C_20  and  O_21
REMARK    8  A    between atoms: O_21  and  C_22
REMARK                            x       y       z     vdW  Elec       q    Type
REMARK                         _______ _______ _______ _____ _____    ______ ____
ROOT
ATOM      1  C   UNL     1       5.060   4.758  16.747  0.00  0.00    +0.000 A 
ATOM      2  C   UNL     1       5.102   6.117  16.414  0.00  0.00    +0.000 A 
ATOM      3  C   UNL     1       4.221   7.017  16.999  0.00  0.00    +0.000 A 
ATOM      4  C   UNL     1       3.270   6.568  17.916  0.00  0.00    +0.000 A 
ATOM      5  C   UNL     1       3.155   5.186  18.200  0.00  0.00    +0.000 A 
ATOM      6  C   UNL     1       4.043   4.263  17.595  0.00  0.00    +0.000 A 
ENDROOT
BRANCH   1   8
ATOM      7  C   UNL     1       6.220   3.987  14.822  0.00  0.00    +0.000 C 
ATOM      8  O   UNL     1       6.006   3.903  16.235  0.00  0.00    +0.000 OA
ENDBRANCH   1   8
BRANCH   4   9
ATOM      9  C   UNL     1       2.463   7.587  18.599  0.00  0.00    +0.000 C 
ATOM     10  C   UNL     1       2.002   8.700  18.007  0.00  0.00    +0.000 C 
BRANCH  10  11
ATOM     11  C   UNL     1       1.290   9.700  18.853  0.00  0.00    +0.000 C 
ATOM     12  O   UNL     1       1.218  10.872  18.512  0.00  0.00    +0.000 OA
ATOM     13  N   UNL     1       0.811   9.161  20.030  0.00  0.00    +0.000 N 
ATOM     14  C   UNL     1       0.121   9.789  21.029  0.00  0.00    +0.000 C 
ATOM     15  N   UNL     1       0.079   9.245  22.197  0.00  0.00    +0.000 NA
ATOM     16  C   UNL     1      -0.691  10.119  23.112  0.00  0.00    +0.000 C 
ATOM     17  C   UNL     1      -0.778  11.534  22.557  0.00  0.00    +0.000 C 
ATOM     18  S   UNL     1      -0.730  11.275  20.782  0.00  0.00    +0.000 S 
ATOM     19  H   UNL     1       1.123   8.242  20.300  0.00  0.00    +0.000 HD
ENDBRANCH  10  11
ENDBRANCH   4   9
BRANCH   5  20
ATOM     20  O   UNL     1       2.211   4.898  19.162  0.00  0.00    +0.000 OA
ATOM     21  C   UNL     1       2.645   4.710  20.501  0.00  0.00    +0.000 C 
ENDBRANCH   5  20
BRANCH   6  22
ATOM     22  O   UNL     1       3.850   2.949  17.936  0.00  0.00    +0.000 OA
ATOM     23  C   UNL     1       2.681   2.250  17.542  0.00  0.00    +0.000 C 
ENDBRANCH   6  22
TORSDOF 5
ENDMDL
MODEL 3
REMARK VINA RESULT:      -6.6      2.165      2.503
REMARK  Name = 
REMARK  8 active torsions:
REMARK  status: ('A' for Active; 'I' for Inactive)
REMARK    1  A    between atoms: C_1  and  O_2
REMARK    2  A    between atoms: O_2  and  C_3
REMARK    3  A    between atoms: C_6  and  C_7
REMARK    4  A    between atoms: C_8  and  C_9
REMARK    5  A    between atoms: C_17  and  O_18
REMARK    6  A    between atoms: O_18  and  C_19
REMARK    7  A    between atoms: C_20  and  O_21
REMARK    8  A    between atoms: O_21  and  C_22
REMARK                            x       y       z     vdW  Elec       q    Type
REMARK                         _______ _______ _______ _____ _____    ______ ____
ROOT
ATOM      1  C   UNL     1       5.022   4.709  16.662  0.00  0.00    +0.000 A 
ATOM      2  C   UNL     1       5.137   6.041  16.245  0.00  0.00    +0.000 A 
ATOM      3  C   UNL     1       4.317   7.024  16.784  0.00  0.00    +0.000 A 
ATOM      4  C   UNL     1       3.355   6.687  17.739  0.00  0.00    +0.000 A 
ATOM      5  C   UNL     1       3.166   5.334  18.107  0.00  0.00    +0.000 A 
ATOM      6  C   UNL     1       3.992   4.326  17.549  0.00  0.00    +0.000 A 
ENDROOT
BRANCH   1   8
ATOM      7  C   UNL     1       6.196   3.834  14.790  0.00  0.00    +0.000 C 
ATOM      8  O   UNL     1       5.911   3.772  16.191  0.00  0.00    +0.000 OA
ENDBRANCH   1   8
BRANCH   4   9
ATOM      9  C   UNL     1       2.618   7.790  18.367  0.00  0.00    +0.000 C 
ATOM     10  C   UNL     1       2.031   8.785  17.684  0.00  0.00    +0.000 C 
BRANCH  10  11
ATOM     11  C   UNL     1       1.413   9.898  18.461  0.00  0.00    +0.000 C 
ATOM     12  O   UNL     1       0.471   9.689  19.214  0.00  0.00    +0.000 OA
ATOM     13  N   UNL     1       1.977  11.126  18.181  0.00  0.00    +0.000 N 
ATOM     14  C   UNL     1       1.653  12.345  18.705  0.00  0.00    +0.000 C 
ATOM     15  N   UNL     1       2.010  13.412  18.074  0.00  0.00    +0.000 NA
ATOM     16  C   UNL     1       1.521  14.599  18.813  0.00  0.00    +0.000 C 
ATOM     17  C   UNL     1       0.400  14.214  19.768  0.00  0.00    +0.000 C 
ATOM     18  S   UNL     1       0.807  12.521  20.204  0.00  0.00    +0.000 S 
ATOM     19  H   UNL     1       2.590  11.201  17.386  0.00  0.00    +0.000 HD
ENDBRANCH  10  11
ENDBRANCH   4   9
BRANCH   5  20
ATOM     20  O   UNL     1       2.222   5.159  19.096  0.00  0.00    +0.000 OA
ATOM     21  C   UNL     1       2.668   4.946  20.427  0.00  0.00    +0.000 C 
ENDBRANCH   5  20
BRANCH   6  22
ATOM     22  O   UNL     1       3.729   3.048  17.971  0.00  0.00    +0.000 OA
ATOM     23  C   UNL     1       2.599   2.334  17.499  0.00  0.00    +0.000 C 
ENDBRANCH   6  22
TORSDOF 5
ENDMDL
MODEL 4
REMARK VINA RESULT:      -6.5      1.793      2.140
REMARK  Name = 
REMARK  8 active torsions:
REMARK  status: ('A' for Active; 'I' for Inactive)
REMARK    1  A    between atoms: C_1  and  O_2
REMARK    2  A    between atoms: O_2  and  C_3
REMARK    3  A    between atoms: C_6  and  C_7
REMARK    4  A    between atoms: C_8  and  C_9
REMARK    5  A    between atoms: C_17  and  O_18
REMARK    6  A    between atoms: O_18  and  C_19
REMARK    7  A    between atoms: C_20  and  O_21
REMARK    8  A    between atoms: O_21  and  C_22
REMARK                            x       y       z     vdW  Elec       q    Type
REMARK                         _______ _______ _______ _____ _____    ______ ____
ROOT
ATOM      1  C   UNL     1       5.290   5.045  17.430  0.00  0.00    +0.000 A 
ATOM      2  C   UNL     1       5.228   6.340  16.900  0.00  0.00    +0.000 A 
ATOM      3  C   UNL     1       4.141   7.162  17.165  0.00  0.00    +0.000 A 
ATOM      4  C   UNL     1       3.087   6.695  17.953  0.00  0.00    +0.000 A 
ATOM      5  C   UNL     1       3.091   5.361  18.424  0.00  0.00    +0.000 A 
ATOM      6  C   UNL     1       4.193   4.514  18.144  0.00  0.00    +0.000 A 
ENDROOT
BRANCH   1   8
ATOM      7  C   UNL     1       7.594   4.737  17.923  0.00  0.00    +0.000 C 
ATOM      8  O   UNL     1       6.420   4.287  17.239  0.00  0.00    +0.000 OA
ENDBRANCH   1   8
BRANCH   4   9
ATOM      9  C   UNL     1       2.037   7.658  18.308  0.00  0.00    +0.000 C 
ATOM     10  C   UNL     1       2.004   8.927  17.872  0.00  0.00    +0.000 C 
BRANCH  10  11
ATOM     11  C   UNL     1       0.938   9.822  18.405  0.00  0.00    +0.000 C 
ATOM     12  O   UNL     1      -0.161   9.876  17.870  0.00  0.00    +0.000 OA
ATOM     13  N   UNL     1       1.361  10.580  19.478  0.00  0.00    +0.000 N 
ATOM     14  C   UNL     1       0.650  11.498  20.199  0.00  0.00    +0.000 C 
ATOM     15  N   UNL     1       1.288  12.367  20.906  0.00  0.00    +0.000 NA
ATOM     16  C   UNL     1       0.312  13.267  21.564  0.00  0.00    +0.000 C 
ATOM     17  C   UNL     1      -1.037  13.202  20.862  0.00  0.00    +0.000 C 
ATOM     18  S   UNL     1      -1.080  11.525  20.226  0.00  0.00    +0.000 S 
ATOM     19  H   UNL     1       2.346  10.611  19.685  0.00  0.00    +0.000 HD
ENDBRANCH  10  11
ENDBRANCH   4   9
BRANCH   5  20
ATOM     20  O   UNL     1       2.015   5.058  19.231  0.00  0.00    +0.000 OA
ATOM     21  C   UNL     1       2.210   5.031  20.637  0.00  0.00    +0.000 C 
ENDBRANCH   5  20
BRANCH   6  22
ATOM     22  O   UNL     1       4.100   3.242  18.645  0.00  0.00    +0.000 OA
ATOM     23  C   UNL     1       3.426   2.216  17.934  0.00  0.00    +0.000 C 
ENDBRANCH   6  22
TORSDOF 5
ENDMDL
MODEL 5
REMARK VINA RESULT:      -6.5      1.030      1.051
REMARK  Name = 
REMARK  8 active torsions:
REMARK  status: ('A' for Active; 'I' for Inactive)
REMARK    1  A    between atoms: C_1  and  O_2
REMARK    2  A    between atoms: O_2  and  C_3
REMARK    3  A    between atoms: C_6  and  C_7
REMARK    4  A    between atoms: C_8  and  C_9
REMARK    5  A    between atoms: C_17  and  O_18
REMARK    6  A    between atoms: O_18  and  C_19
REMARK    7  A    between atoms: C_20  and  O_21
REMARK    8  A    between atoms: O_21  and  C_22
REMARK                            x       y       z     vdW  Elec       q    Type
REMARK                         _______ _______ _______ _____ _____    ______ ____
ROOT
ATOM      1  C   UNL     1       5.343   4.978  16.920  0.00  0.00    +0.000 A 
ATOM      2  C   UNL     1       5.301   6.305  16.474  0.00  0.00    +0.000 A 
ATOM      3  C   UNL     1       4.334   7.181  16.949  0.00  0.00    +0.000 A 
ATOM      4  C   UNL     1       3.379   6.737  17.867  0.00  0.00    +0.000 A 
ATOM      5  C   UNL     1       3.353   5.379  18.261  0.00  0.00    +0.000 A 
ATOM      6  C   UNL     1       4.330   4.478  17.769  0.00  0.00    +0.000 A 
ENDROOT
BRANCH   1   8
ATOM      7  C   UNL     1       6.611   4.114  15.106  0.00  0.00    +0.000 C 
ATOM      8  O   UNL     1       6.370   4.158  16.516  0.00  0.00    +0.000 OA
ENDBRANCH   1   8
BRANCH   4   9
ATOM      9  C   UNL     1       2.473   7.744  18.431  0.00  0.00    +0.000 C 
ATOM     10  C   UNL     1       1.780   8.628  17.695  0.00  0.00    +0.000 C 
BRANCH  10  11
ATOM     11  C   UNL     1       0.985   9.665  18.412  0.00  0.00    +0.000 C 
ATOM     12  O   UNL     1       1.400  10.172  19.445  0.00  0.00    +0.000 OA
ATOM     13  N   UNL     1      -0.236   9.909  17.817  0.00  0.00    +0.000 N 
ATOM     14  C   UNL     1      -1.208  10.787  18.208  0.00  0.00    +0.000 C 
ATOM     15  N   UNL     1      -2.410  10.624  17.772  0.00  0.00    +0.000 NA
ATOM     16  C   UNL     1      -3.284  11.669  18.355  0.00  0.00    +0.000 C 
ATOM     17  C   UNL     1      -2.639  12.279  19.592  0.00  0.00    +0.000 C 
ATOM     18  S   UNL     1      -0.884  12.134  19.245  0.00  0.00    +0.000 S 
ATOM     19  H   UNL     1      -0.558   9.275  17.104  0.00  0.00    +0.000 HD
ENDBRANCH  10  11
ENDBRANCH   4   9
BRANCH   5  20
ATOM     20  O   UNL     1       2.392   5.099  19.210  0.00  0.00    +0.000 OA
ATOM     21  C   UNL     1       1.343   4.206  18.868  0.00  0.00    +0.000 C 
ENDBRANCH   5  20
BRANCH   6  22
ATOM     22  O   UNL     1       4.218   3.186  18.212  0.00  0.00    +0.000 OA
ATOM     23  C   UNL     1       4.652   2.810  19.508  0.00  0.00    +0.000 C 
ENDBRANCH   6  22
TORSDOF 5
ENDMDL
MODEL 6
REMARK VINA RESULT:      -6.4      1.699      1.807
REMARK  Name = 
REMARK  8 active torsions:
REMARK  status: ('A' for Active; 'I' for Inactive)
REMARK    1  A    between atoms: C_1  and  O_2
REMARK    2  A    between atoms: O_2  and  C_3
REMARK    3  A    between atoms: C_6  and  C_7
REMARK    4  A    between atoms: C_8  and  C_9
REMARK    5  A    between atoms: C_17  and  O_18
REMARK    6  A    between atoms: O_18  and  C_19
REMARK    7  A    between atoms: C_20  and  O_21
REMARK    8  A    between atoms: O_21  and  C_22
REMARK                            x       y       z     vdW  Elec       q    Type
REMARK                         _______ _______ _______ _____ _____    ______ ____
ROOT
ATOM      1  C   UNL     1       4.842   4.835  17.428  0.00  0.00    +0.000 A 
ATOM      2  C   UNL     1       4.541   6.142  17.023  0.00  0.00    +0.000 A 
ATOM      3  C   UNL     1       3.652   6.921  17.751  0.00  0.00    +0.000 A 
ATOM      4  C   UNL     1       3.034   6.398  18.889  0.00  0.00    +0.000 A 
ATOM      5  C   UNL     1       3.259   5.053  19.263  0.00  0.00    +0.000 A 
ATOM      6  C   UNL     1       4.156   4.250  18.515  0.00  0.00    +0.000 A 
ENDROOT
BRANCH   1   8
ATOM      7  C   UNL     1       7.152   4.547  16.951  0.00  0.00    +0.000 C 
ATOM      8  O   UNL     1       5.801   4.120  16.752  0.00  0.00    +0.000 OA
ENDBRANCH   1   8
BRANCH   4   9
ATOM      9  C   UNL     1       2.214   7.316  19.689  0.00  0.00    +0.000 C 
ATOM     10  C   UNL     1       1.683   8.454  19.215  0.00  0.00    +0.000 C 
BRANCH  10  11
ATOM     11  C   UNL     1       0.964   9.344  20.172  0.00  0.00    +0.000 C 
ATOM     12  O   UNL     1       1.140   9.239  21.378  0.00  0.00    +0.000 OA
ATOM     13  N   UNL     1       0.083  10.203  19.547  0.00  0.00    +0.000 N 
ATOM     14  C   UNL     1      -0.732  11.141  20.116  0.00  0.00    +0.000 C 
ATOM     15  N   UNL     1      -1.740  11.583  19.445  0.00  0.00    +0.000 NA
ATOM     16  C   UNL     1      -2.486  12.557  20.276  0.00  0.00    +0.000 C 
ATOM     17  C   UNL     1      -2.139  12.384  21.748  0.00  0.00    +0.000 C 
ATOM     18  S   UNL     1      -0.448  11.786  21.696  0.00  0.00    +0.000 S 
ATOM     19  H   UNL     1      -0.136  10.043  18.577  0.00  0.00    +0.000 HD
ENDBRANCH  10  11
ENDBRANCH   4   9
BRANCH   5  20
ATOM     20  O   UNL     1       2.627   4.693  20.435  0.00  0.00    +0.000 OA
ATOM     21  C   UNL     1       1.345   4.089  20.354  0.00  0.00    +0.000 C 
ENDBRANCH   5  20
BRANCH   6  22
ATOM     22  O   UNL     1       4.305   2.962  18.960  0.00  0.00    +0.000 OA
ATOM     23  C   UNL     1       3.576   1.893  18.380  0.00  0.00    +0.000 C 
ENDBRANCH   6  22
TORSDOF 5
ENDMDL
MODEL 7
REMARK VINA RESULT:      -6.4      3.665      8.153
REMARK  Name = 
REMARK  8 active torsions:
REMARK  status: ('A' for Active; 'I' for Inactive)
REMARK    1  A    between atoms: C_1  and  O_2
REMARK    2  A    between atoms: O_2  and  C_3
REMARK    3  A    between atoms: C_6  and  C_7
REMARK    4  A    between atoms: C_8  and  C_9
REMARK    5  A    between atoms: C_17  and  O_18
REMARK    6  A    between atoms: O_18  and  C_19
REMARK    7  A    between atoms: C_20  and  O_21
REMARK    8  A    between atoms: O_21  and  C_22
REMARK                            x       y       z     vdW  Elec       q    Type
REMARK                         _______ _______ _______ _____ _____    ______ ____
ROOT
ATOM      1  C   UNL     1       0.032  10.634  22.044  0.00  0.00    +0.000 A 
ATOM      2  C   UNL     1       0.483   9.441  22.622  0.00  0.00    +0.000 A 
ATOM      3  C   UNL     1       1.078   8.458  21.843  0.00  0.00    +0.000 A 
ATOM      4  C   UNL     1       1.216   8.644  20.466  0.00  0.00    +0.000 A 
ATOM      5  C   UNL     1       0.687   9.804  19.852  0.00  0.00    +0.000 A 
ATOM      6  C   UNL     1       0.067  10.804  20.642  0.00  0.00    +0.000 A 
ENDROOT
BRANCH   1   8
ATOM      7  C   UNL     1      -1.853  11.550  23.164  0.00  0.00    +0.000 C 
ATOM      8  O   UNL     1      -0.460  11.634  22.847  0.00  0.00    +0.000 OA
ENDBRANCH   1   8
BRANCH   4   9
ATOM      9  C   UNL     1       1.975   7.630  19.724  0.00  0.00    +0.000 C 
ATOM     10  C   UNL     1       2.146   6.366  20.143  0.00  0.00    +0.000 C 
BRANCH  10  11
ATOM     11  C   UNL     1       3.035   5.478  19.340  0.00  0.00    +0.000 C 
ATOM     12  O   UNL     1       3.361   4.375  19.757  0.00  0.00    +0.000 OA
ATOM     13  N   UNL     1       3.460   6.065  18.165  0.00  0.00    +0.000 N 
ATOM     14  C   UNL     1       4.277   5.540  17.204  0.00  0.00    +0.000 C 
ATOM     15  N   UNL     1       4.863   6.337  16.378  0.00  0.00    +0.000 NA
ATOM     16  C   UNL     1       5.714   5.545  15.460  0.00  0.00    +0.000 C 
ATOM     17  C   UNL     1       6.000   4.169  16.046  0.00  0.00    +0.000 C 
ATOM     18  S   UNL     1       4.536   3.838  17.029  0.00  0.00    +0.000 S 
ATOM     19  H   UNL     1       3.305   7.052  18.039  0.00  0.00    +0.000 HD
ENDBRANCH  10  11
ENDBRANCH   4   9
BRANCH   5  20
ATOM     20  O   UNL     1       0.945   9.877  18.499  0.00  0.00    +0.000 OA
ATOM     21  C   UNL     1       2.050  10.653  18.062  0.00  0.00    +0.000 C 
ENDBRANCH   5  20
BRANCH   6  22
ATOM     22  O   UNL     1      -0.411  11.888  19.951  0.00  0.00    +0.000 OA
ATOM     23  C   UNL     1      -1.730  11.907  19.432  0.00  0.00    +0.000 C 
ENDBRANCH   6  22
TORSDOF 5
ENDMDL
MODEL 8
REMARK VINA RESULT:      -6.4      7.591      9.896
REMARK  Name = 
REMARK  8 active torsions:
REMARK  status: ('A' for Active; 'I' for Inactive)
REMARK    1  A    between atoms: C_1  and  O_2
REMARK    2  A    between atoms: O_2  and  C_3
REMARK    3  A    between atoms: C_6  and  C_7
REMARK    4  A    between atoms: C_8  and  C_9
REMARK    5  A    between atoms: C_17  and  O_18
REMARK    6  A    between atoms: O_18  and  C_19
REMARK    7  A    between atoms: C_20  and  O_21
REMARK    8  A    between atoms: O_21  and  C_22
REMARK                            x       y       z     vdW  Elec       q    Type
REMARK                         _______ _______ _______ _____ _____    ______ ____
ROOT
ATOM      1  C   UNL     1      10.702  14.011  18.451  0.00  0.00    +0.000 A 
ATOM      2  C   UNL     1      11.128  12.998  17.584  0.00  0.00    +0.000 A 
ATOM      3  C   UNL     1      10.683  11.692  17.747  0.00  0.00    +0.000 A 
ATOM      4  C   UNL     1       9.815  11.376  18.794  0.00  0.00    +0.000 A 
ATOM      5  C   UNL     1       9.444  12.368  19.732  0.00  0.00    +0.000 A 
ATOM      6  C   UNL     1       9.906  13.698  19.576  0.00  0.00    +0.000 A 
ENDROOT
BRANCH   1   8
ATOM      7  C   UNL     1      10.247  16.034  17.291  0.00  0.00    +0.000 C 
ATOM      8  O   UNL     1      11.073  15.312  18.210  0.00  0.00    +0.000 OA
ENDBRANCH   1   8
BRANCH   4   9
ATOM      9  C   UNL     1       9.276  10.011  18.828  0.00  0.00    +0.000 C 
ATOM     10  C   UNL     1       8.611   9.441  17.811  0.00  0.00    +0.000 C 
BRANCH  10  11
ATOM     11  C   UNL     1       8.023   8.088  18.030  0.00  0.00    +0.000 C 
ATOM     12  O   UNL     1       8.444   7.356  18.915  0.00  0.00    +0.000 OA
ATOM     13  N   UNL     1       7.043   7.775  17.109  0.00  0.00    +0.000 N 
ATOM     14  C   UNL     1       6.306   6.628  17.015  0.00  0.00    +0.000 C 
ATOM     15  N   UNL     1       5.718   6.353  15.901  0.00  0.00    +0.000 NA
ATOM     16  C   UNL     1       5.015   5.055  16.031  0.00  0.00    +0.000 C 
ATOM     17  C   UNL     1       5.571   4.259  17.203  0.00  0.00    +0.000 C 
ATOM     18  S   UNL     1       6.104   5.538  18.343  0.00  0.00    +0.000 S 
ATOM     19  H   UNL     1       6.941   8.364  16.299  0.00  0.00    +0.000 HD
ENDBRANCH  10  11
ENDBRANCH   4   9
BRANCH   5  20
ATOM     20  O   UNL     1       8.543  11.924  20.676  0.00  0.00    +0.000 OA
ATOM     21  C   UNL     1       9.017  11.641  21.984  0.00  0.00    +0.000 C 
ENDBRANCH   5  20
BRANCH   6  22
ATOM     22  O   UNL     1       9.489  14.583  20.537  0.00  0.00    +0.000 OA
ATOM     23  C   UNL     1      10.366  15.033  21.556  0.00  0.00    +0.000 C 
ENDBRANCH   6  22
TORSDOF 5
ENDMDL
MODEL 9
REMARK VINA RESULT:      -6.3      1.579      1.685
REMARK  Name = 
REMARK  8 active torsions:
REMARK  status: ('A' for Active; 'I' for Inactive)
REMARK    1  A    between atoms: C_1  and  O_2
REMARK    2  A    between atoms: O_2  and  C_3
REMARK    3  A    between atoms: C_6  and  C_7
REMARK    4  A    between atoms: C_8  and  C_9
REMARK    5  A    between atoms: C_17  and  O_18
REMARK    6  A    between atoms: O_18  and  C_19
REMARK    7  A    between atoms: C_20  and  O_21
REMARK    8  A    between atoms: O_21  and  C_22
REMARK                            x       y       z     vdW  Elec       q    Type
REMARK                         _______ _______ _______ _____ _____    ______ ____
ROOT
ATOM      1  C   UNL     1       4.723   4.546  16.748  0.00  0.00    +0.000 A 
ATOM      2  C   UNL     1       5.004   5.917  16.801  0.00  0.00    +0.000 A 
ATOM      3  C   UNL     1       4.163   6.786  17.484  0.00  0.00    +0.000 A 
ATOM      4  C   UNL     1       3.015   6.298  18.111  0.00  0.00    +0.000 A 
ATOM      5  C   UNL     1       2.668   4.932  17.994  0.00  0.00    +0.000 A 
ATOM      6  C   UNL     1       3.517   4.044  17.287  0.00  0.00    +0.000 A 
ENDROOT
BRANCH   1   8
ATOM      7  C   UNL     1       6.031   4.042  14.829  0.00  0.00    +0.000 C 
ATOM      8  O   UNL     1       5.621   3.691  16.155  0.00  0.00    +0.000 OA
ENDBRANCH   1   8
BRANCH   4   9
ATOM      9  C   UNL     1       2.245   7.244  18.929  0.00  0.00    +0.000 C 
ATOM     10  C   UNL     1       1.785   8.422  18.481  0.00  0.00    +0.000 C 
BRANCH  10  11
ATOM     11  C   UNL     1       1.115   9.329  19.456  0.00  0.00    +0.000 C 
ATOM     12  O   UNL     1       1.360   9.255  20.653  0.00  0.00    +0.000 OA
ATOM     13  N   UNL     1       0.192  10.166  18.863  0.00  0.00    +0.000 N 
ATOM     14  C   UNL     1      -0.597  11.112  19.455  0.00  0.00    +0.000 C 
ATOM     15  N   UNL     1      -1.646  11.530  18.833  0.00  0.00    +0.000 NA
ATOM     16  C   UNL     1      -2.352  12.518  19.681  0.00  0.00    +0.000 C 
ATOM     17  C   UNL     1      -1.921  12.383  21.135  0.00  0.00    +0.000 C 
ATOM     18  S   UNL     1      -0.230  11.797  21.001  0.00  0.00    +0.000 S 
ATOM     19  H   UNL     1      -0.081   9.982  17.911  0.00  0.00    +0.000 HD
ENDBRANCH  10  11
ENDBRANCH   4   9
BRANCH   5  20
ATOM     20  O   UNL     1       1.541   4.586  18.709  0.00  0.00    +0.000 OA
ATOM     21  C   UNL     1       1.697   4.159  20.054  0.00  0.00    +0.000 C 
ENDBRANCH   5  20
BRANCH   6  22
ATOM     22  O   UNL     1       3.093   2.741  17.233  0.00  0.00    +0.000 OA
ATOM     23  C   UNL     1       3.578   1.769  18.143  0.00  0.00    +0.000 C 
ENDBRANCH   6  22
TORSDOF 5
ENDMDL
