MODEL 1
REMARK VINA RESULT:      -7.2      0.000      0.000
REMARK  Name = 
REMARK  5 active torsions:
REMARK  status: ('A' for Active; 'I' for Inactive)
REMARK    1  A    between atoms: N_1  and  C_2
REMARK    2  A    between atoms: C_2  and  N_4
REMARK    3  A    between atoms: N_4  and  N_5
REMARK    4  A    between atoms: C_8  and  N_9
REMARK    5  A    between atoms: N_9  and  C_10
REMARK                            x       y       z     vdW  Elec       q    Type
REMARK                         _______ _______ _______ _____ _____    ______ ____
ROOT
ATOM      1  N   UNL     1       4.655   4.616  17.048  0.00  0.00    +0.000 NA
ATOM      2  C   UNL     1       4.004   5.608  17.562  0.00  0.00    +0.000 C 
ATOM      3  C   UNL     1       3.970   7.050  17.133  0.00  0.00    +0.000 C 
ATOM      4  C   UNL     1       3.076   7.765  18.177  0.00  0.00    +0.000 C 
ATOM      5  C   UNL     1       2.605   6.649  19.075  0.00  0.00    +0.000 A 
ATOM      6  C   UNL     1       1.781   6.720  20.192  0.00  0.00    +0.000 A 
ATOM      7  C   UNL     1       1.535   5.550  20.927  0.00  0.00    +0.000 A 
ATOM      8  C   UNL     1       2.118   4.330  20.546  0.00  0.00    +0.000 A 
ATOM      9 BR   UNL     1       1.792   2.771  21.565  0.00  0.00    +0.000 Br
ATOM     10  C   UNL     1       2.946   4.254  19.433  0.00  0.00    +0.000 A 
ATOM     11  C   UNL     1       3.164   5.425  18.729  0.00  0.00    +0.000 A 
ENDROOT
BRANCH   1  12
ATOM     12  N   UNL     1       5.420   4.846  15.948  0.00  0.00    +0.000 N 
ATOM     13  H   UNL     1       5.014   4.891  15.019  0.00  0.00    +0.000 HD
BRANCH  12  14
ATOM     14  C   UNL     1       6.781   4.958  16.071  0.00  0.00    +0.000 C 
ATOM     15  S   UNL     1       7.582   4.632  17.485  0.00  0.00    +0.000 S 
BRANCH  14  16
ATOM     16  N   UNL     1       7.431   5.352  14.948  0.00  0.00    +0.000 N 
ATOM     17  H   UNL     1       7.560   4.733  14.162  0.00  0.00    +0.000 HD
ATOM     18  H   UNL     1       7.907   6.245  14.991  0.00  0.00    +0.000 HD
ENDBRANCH  14  16
ENDBRANCH  12  14
ENDBRANCH   1  12
BRANCH   4  19
ATOM     19  N   UNL     1       1.948   8.442  17.537  0.00  0.00    +0.000 N 
ATOM     20  H   UNL     1       1.156   7.829  17.366  0.00  0.00    +0.000 HD
BRANCH  19  21
ATOM     21  C   UNL     1       1.529   9.682  18.048  0.00  0.00    +0.000 A 
ATOM     22  C   UNL     1       2.341  10.823  18.069  0.00  0.00    +0.000 A 
ATOM     23  C   UNL     1       1.866  12.048  18.549  0.00  0.00    +0.000 A 
ATOM     24  C   UNL     1       0.553  12.162  18.994  0.00  0.00    +0.000 A 
ATOM     25  C   UNL     1      -0.287  11.056  18.934  0.00  0.00    +0.000 A 
ATOM     26  C   UNL     1       0.192   9.834  18.448  0.00  0.00    +0.000 A 
ENDBRANCH  19  21
ENDBRANCH   4  19
TORSDOF 5
ENDMDL
MODEL 2
REMARK VINA RESULT:      -7.2      3.346      5.681
REMARK  Name = 
REMARK  5 active torsions:
REMARK  status: ('A' for Active; 'I' for Inactive)
REMARK    1  A    between atoms: N_1  and  C_2
REMARK    2  A    between atoms: C_2  and  N_4
REMARK    3  A    between atoms: N_4  and  N_5
REMARK    4  A    between atoms: C_8  and  N_9
REMARK    5  A    between atoms: N_9  and  C_10
REMARK                            x       y       z     vdW  Elec       q    Type
REMARK                         _______ _______ _______ _____ _____    ______ ____
ROOT
ATOM      1  N   UNL     1       6.454   5.895  15.734  0.00  0.00    +0.000 NA
ATOM      2  C   UNL     1       5.524   5.199  16.303  0.00  0.00    +0.000 C 
ATOM      3  C   UNL     1       5.379   3.705  16.403  0.00  0.00    +0.000 C 
ATOM      4  C   UNL     1       4.032   3.474  17.132  0.00  0.00    +0.000 C 
ATOM      5  C   UNL     1       3.556   4.865  17.463  0.00  0.00    +0.000 A 
ATOM      6  C   UNL     1       2.391   5.256  18.112  0.00  0.00    +0.000 A 
ATOM      7  C   UNL     1       2.116   6.625  18.245  0.00  0.00    +0.000 A 
ATOM      8  C   UNL     1       2.998   7.586  17.723  0.00  0.00    +0.000 A 
ATOM      9 BR   UNL     1       2.596   9.425  17.892  0.00  0.00    +0.000 Br
ATOM     10  C   UNL     1       4.163   7.202  17.070  0.00  0.00    +0.000 A 
ATOM     11  C   UNL     1       4.405   5.844  16.960  0.00  0.00    +0.000 A 
ENDROOT
BRANCH   1  12
ATOM     12  N   UNL     1       7.484   5.235  15.142  0.00  0.00    +0.000 N 
ATOM     13  H   UNL     1       8.281   4.905  15.676  0.00  0.00    +0.000 HD
BRANCH  12  14
ATOM     14  C   UNL     1       7.494   5.061  13.782  0.00  0.00    +0.000 C 
ATOM     15  S   UNL     1       6.502   3.981  13.010  0.00  0.00    +0.000 S 
BRANCH  14  16
ATOM     16  N   UNL     1       8.375   5.840  13.108  0.00  0.00    +0.000 N 
ATOM     17  H   UNL     1       8.830   6.628  13.542  0.00  0.00    +0.000 HD
ATOM     18  H   UNL     1       8.443   5.686  12.109  0.00  0.00    +0.000 HD
ENDBRANCH  14  16
ENDBRANCH  12  14
ENDBRANCH   1  12
BRANCH   4  19
ATOM     19  N   UNL     1       4.213   2.674  18.343  0.00  0.00    +0.000 N 
ATOM     20  H   UNL     1       5.125   2.797  18.773  0.00  0.00    +0.000 HD
BRANCH  19  21
ATOM     21  C   UNL     1       3.193   2.672  19.309  0.00  0.00    +0.000 A 
ATOM     22  C   UNL     1       1.882   2.251  19.047  0.00  0.00    +0.000 A 
ATOM     23  C   UNL     1       0.909   2.227  20.052  0.00  0.00    +0.000 A 
ATOM     24  C   UNL     1       1.237   2.599  21.351  0.00  0.00    +0.000 A 
ATOM     25  C   UNL     1       2.544   2.971  21.646  0.00  0.00    +0.000 A 
ATOM     26  C   UNL     1       3.515   2.988  20.638  0.00  0.00    +0.000 A 
ENDBRANCH  19  21
ENDBRANCH   4  19
TORSDOF 5
ENDMDL
MODEL 3
REMARK VINA RESULT:      -7.2      3.348      5.617
REMARK  Name = 
REMARK  5 active torsions:
REMARK  status: ('A' for Active; 'I' for Inactive)
REMARK    1  A    between atoms: N_1  and  C_2
REMARK    2  A    between atoms: C_2  and  N_4
REMARK    3  A    between atoms: N_4  and  N_5
REMARK    4  A    between atoms: C_8  and  N_9
REMARK    5  A    between atoms: N_9  and  C_10
REMARK                            x       y       z     vdW  Elec       q    Type
REMARK                         _______ _______ _______ _____ _____    ______ ____
ROOT
ATOM      1  N   UNL     1       6.449   5.873  15.705  0.00  0.00    +0.000 NA
ATOM      2  C   UNL     1       5.545   5.178  16.316  0.00  0.00    +0.000 C 
ATOM      3  C   UNL     1       5.426   3.685  16.459  0.00  0.00    +0.000 C 
ATOM      4  C   UNL     1       4.102   3.454  17.229  0.00  0.00    +0.000 C 
ATOM      5  C   UNL     1       3.612   4.846  17.534  0.00  0.00    +0.000 A 
ATOM      6  C   UNL     1       2.457   5.236  18.201  0.00  0.00    +0.000 A 
ATOM      7  C   UNL     1       2.163   6.605  18.303  0.00  0.00    +0.000 A 
ATOM      8  C   UNL     1       3.017   7.564  17.734  0.00  0.00    +0.000 A 
ATOM      9 BR   UNL     1       2.589   9.401  17.863  0.00  0.00    +0.000 Br
ATOM     10  C   UNL     1       4.171   7.181  17.062  0.00  0.00    +0.000 A 
ATOM     11  C   UNL     1       4.432   5.823  16.983  0.00  0.00    +0.000 A 
ENDROOT
BRANCH   1  12
ATOM     12  N   UNL     1       7.474   5.212  15.105  0.00  0.00    +0.000 N 
ATOM     13  H   UNL     1       8.272   4.877  15.634  0.00  0.00    +0.000 HD
BRANCH  12  14
ATOM     14  C   UNL     1       7.478   5.044  13.744  0.00  0.00    +0.000 C 
ATOM     15  S   UNL     1       6.499   3.952  12.973  0.00  0.00    +0.000 S 
BRANCH  14  16
ATOM     16  N   UNL     1       8.341   5.842  13.068  0.00  0.00    +0.000 N 
ATOM     17  H   UNL     1       8.946   6.495  13.541  0.00  0.00    +0.000 HD
ATOM     18  H   UNL     1       8.246   5.858  12.059  0.00  0.00    +0.000 HD
ENDBRANCH  14  16
ENDBRANCH  12  14
ENDBRANCH   1  12
BRANCH   4  19
ATOM     19  N   UNL     1       4.326   2.690  18.456  0.00  0.00    +0.000 N 
ATOM     20  H   UNL     1       5.225   2.881  18.889  0.00  0.00    +0.000 HD
BRANCH  19  21
ATOM     21  C   UNL     1       3.300   2.641  19.415  0.00  0.00    +0.000 A 
ATOM     22  C   UNL     1       3.457   3.079  20.737  0.00  0.00    +0.000 A 
ATOM     23  C   UNL     1       2.394   3.051  21.646  0.00  0.00    +0.000 A 
ATOM     24  C   UNL     1       1.141   2.606  21.241  0.00  0.00    +0.000 A 
ATOM     25  C   UNL     1       0.947   2.216  19.921  0.00  0.00    +0.000 A 
ATOM     26  C   UNL     1       2.013   2.252  19.014  0.00  0.00    +0.000 A 
ENDBRANCH  19  21
ENDBRANCH   4  19
TORSDOF 5
ENDMDL
MODEL 4
REMARK VINA RESULT:      -7.2      2.615      5.738
REMARK  Name = 
REMARK  5 active torsions:
REMARK  status: ('A' for Active; 'I' for Inactive)
REMARK    1  A    between atoms: N_1  and  C_2
REMARK    2  A    between atoms: C_2  and  N_4
REMARK    3  A    between atoms: N_4  and  N_5
REMARK    4  A    between atoms: C_8  and  N_9
REMARK    5  A    between atoms: N_9  and  C_10
REMARK                            x       y       z     vdW  Elec       q    Type
REMARK                         _______ _______ _______ _____ _____    ______ ____
ROOT
ATOM      1  N   UNL     1       2.509   7.268  18.579  0.00  0.00    +0.000 NA
ATOM      2  C   UNL     1       3.142   6.278  18.039  0.00  0.00    +0.000 C 
ATOM      3  C   UNL     1       3.980   6.249  16.790  0.00  0.00    +0.000 C 
ATOM      4  C   UNL     1       4.408   4.770  16.620  0.00  0.00    +0.000 C 
ATOM      5  C   UNL     1       3.843   4.087  17.839  0.00  0.00    +0.000 A 
ATOM      6  C   UNL     1       3.917   2.746  18.198  0.00  0.00    +0.000 A 
ATOM      7  C   UNL     1       3.244   2.317  19.352  0.00  0.00    +0.000 A 
ATOM      8  C   UNL     1       2.501   3.223  20.127  0.00  0.00    +0.000 A 
ATOM      9 BR   UNL     1       1.583   2.617  21.664  0.00  0.00    +0.000 Br
ATOM     10  C   UNL     1       2.420   4.563  19.770  0.00  0.00    +0.000 A 
ATOM     11  C   UNL     1       3.099   4.954  18.628  0.00  0.00    +0.000 A 
ENDROOT
BRANCH   1  12
ATOM     12  N   UNL     1       2.595   8.488  17.986  0.00  0.00    +0.000 N 
ATOM     13  H   UNL     1       3.260   8.672  17.242  0.00  0.00    +0.000 HD
BRANCH  12  14
ATOM     14  C   UNL     1       1.819   9.525  18.437  0.00  0.00    +0.000 C 
ATOM     15  S   UNL     1       0.894   9.421  19.808  0.00  0.00    +0.000 S 
BRANCH  14  16
ATOM     16  N   UNL     1       1.863  10.649  17.680  0.00  0.00    +0.000 N 
ATOM     17  H   UNL     1       1.137  10.875  17.018  0.00  0.00    +0.000 HD
ATOM     18  H   UNL     1       2.727  11.176  17.703  0.00  0.00    +0.000 HD
ENDBRANCH  14  16
ENDBRANCH  12  14
ENDBRANCH   1  12
BRANCH   4  19
ATOM     19  N   UNL     1       5.864   4.641  16.567  0.00  0.00    +0.000 N 
ATOM     20  H   UNL     1       6.227   4.574  15.620  0.00  0.00    +0.000 HD
BRANCH  19  21
ATOM     21  C   UNL     1       6.647   5.505  17.351  0.00  0.00    +0.000 A 
ATOM     22  C   UNL     1       7.233   5.126  18.566  0.00  0.00    +0.000 A 
ATOM     23  C   UNL     1       8.041   6.009  19.292  0.00  0.00    +0.000 A 
ATOM     24  C   UNL     1       8.300   7.283  18.800  0.00  0.00    +0.000 A 
ATOM     25  C   UNL     1       7.773   7.662  17.571  0.00  0.00    +0.000 A 
ATOM     26  C   UNL     1       6.970   6.774  16.847  0.00  0.00    +0.000 A 
ENDBRANCH  19  21
ENDBRANCH   4  19
TORSDOF 5
ENDMDL
MODEL 5
REMARK VINA RESULT:      -7.2      2.593      5.693
REMARK  Name = 
REMARK  5 active torsions:
REMARK  status: ('A' for Active; 'I' for Inactive)
REMARK    1  A    between atoms: N_1  and  C_2
REMARK    2  A    between atoms: C_2  and  N_4
REMARK    3  A    between atoms: N_4  and  N_5
REMARK    4  A    between atoms: C_8  and  N_9
REMARK    5  A    between atoms: N_9  and  C_10
REMARK                            x       y       z     vdW  Elec       q    Type
REMARK                         _______ _______ _______ _____ _____    ______ ____
ROOT
ATOM      1  N   UNL     1       2.594   7.256  18.555  0.00  0.00    +0.000 NA
ATOM      2  C   UNL     1       3.198   6.250  18.009  0.00  0.00    +0.000 C 
ATOM      3  C   UNL     1       4.024   6.202  16.753  0.00  0.00    +0.000 C 
ATOM      4  C   UNL     1       4.416   4.714  16.578  0.00  0.00    +0.000 C 
ATOM      5  C   UNL     1       3.845   4.043  17.802  0.00  0.00    +0.000 A 
ATOM      6  C   UNL     1       3.890   2.701  18.161  0.00  0.00    +0.000 A 
ATOM      7  C   UNL     1       3.217   2.287  19.320  0.00  0.00    +0.000 A 
ATOM      8  C   UNL     1       2.503   3.211  20.102  0.00  0.00    +0.000 A 
ATOM      9 BR   UNL     1       1.584   2.627  21.646  0.00  0.00    +0.000 Br
ATOM     10  C   UNL     1       2.450   4.553  19.746  0.00  0.00    +0.000 A 
ATOM     11  C   UNL     1       3.128   4.928  18.599  0.00  0.00    +0.000 A 
ENDROOT
BRANCH   1  12
ATOM     12  N   UNL     1       2.704   8.473  17.961  0.00  0.00    +0.000 N 
ATOM     13  H   UNL     1       3.393   8.652  17.238  0.00  0.00    +0.000 HD
BRANCH  12  14
ATOM     14  C   UNL     1       1.918   9.514  18.384  0.00  0.00    +0.000 C 
ATOM     15  S   UNL     1       0.927   9.408  19.708  0.00  0.00    +0.000 S 
BRANCH  14  16
ATOM     16  N   UNL     1       2.012  10.645  17.642  0.00  0.00    +0.000 N 
ATOM     17  H   UNL     1       2.873  10.921  17.196  0.00  0.00    +0.000 HD
ATOM     18  H   UNL     1       1.219  11.276  17.677  0.00  0.00    +0.000 HD
ENDBRANCH  14  16
ENDBRANCH  12  14
ENDBRANCH   1  12
BRANCH   4  19
ATOM     19  N   UNL     1       5.868   4.549  16.513  0.00  0.00    +0.000 N 
ATOM     20  H   UNL     1       6.214   4.411  15.568  0.00  0.00    +0.000 HD
BRANCH  19  21
ATOM     21  C   UNL     1       6.681   5.447  17.225  0.00  0.00    +0.000 A 
ATOM     22  C   UNL     1       6.949   6.753  16.794  0.00  0.00    +0.000 A 
ATOM     23  C   UNL     1       7.730   7.628  17.558  0.00  0.00    +0.000 A 
ATOM     24  C   UNL     1       8.237   7.218  18.786  0.00  0.00    +0.000 A 
ATOM     25  C   UNL     1       7.939   5.945  19.259  0.00  0.00    +0.000 A 
ATOM     26  C   UNL     1       7.153   5.077  18.493  0.00  0.00    +0.000 A 
ENDBRANCH  19  21
ENDBRANCH   4  19
TORSDOF 5
ENDMDL
MODEL 6
REMARK VINA RESULT:      -7.2      0.266      1.030
REMARK  Name = 
REMARK  5 active torsions:
REMARK  status: ('A' for Active; 'I' for Inactive)
REMARK    1  A    between atoms: N_1  and  C_2
REMARK    2  A    between atoms: C_2  and  N_4
REMARK    3  A    between atoms: N_4  and  N_5
REMARK    4  A    between atoms: C_8  and  N_9
REMARK    5  A    between atoms: N_9  and  C_10
REMARK                            x       y       z     vdW  Elec       q    Type
REMARK                         _______ _______ _______ _____ _____    ______ ____
ROOT
ATOM      1  N   UNL     1       4.590   4.704  16.985  0.00  0.00    +0.000 NA
ATOM      2  C   UNL     1       3.950   5.681  17.541  0.00  0.00    +0.000 C 
ATOM      3  C   UNL     1       3.923   7.138  17.167  0.00  0.00    +0.000 C 
ATOM      4  C   UNL     1       3.042   7.819  18.243  0.00  0.00    +0.000 C 
ATOM      5  C   UNL     1       2.569   6.674  19.102  0.00  0.00    +0.000 A 
ATOM      6  C   UNL     1       1.754   6.708  20.228  0.00  0.00    +0.000 A 
ATOM      7  C   UNL     1       1.506   5.514  20.920  0.00  0.00    +0.000 A 
ATOM      8  C   UNL     1       2.077   4.304  20.489  0.00  0.00    +0.000 A 
ATOM      9 BR   UNL     1       1.747   2.711  21.451  0.00  0.00    +0.000 Br
ATOM     10  C   UNL     1       2.896   4.265  19.368  0.00  0.00    +0.000 A 
ATOM     11  C   UNL     1       3.117   5.460  18.706  0.00  0.00    +0.000 A 
ENDROOT
BRANCH   1  12
ATOM     12  N   UNL     1       5.348   4.971  15.888  0.00  0.00    +0.000 N 
ATOM     13  H   UNL     1       4.929   5.127  14.978  0.00  0.00    +0.000 HD
BRANCH  12  14
ATOM     14  C   UNL     1       6.716   4.966  15.984  0.00  0.00    +0.000 C 
ATOM     15  S   UNL     1       7.514   4.636  17.398  0.00  0.00    +0.000 S 
BRANCH  14  16
ATOM     16  N   UNL     1       7.375   5.248  14.833  0.00  0.00    +0.000 N 
ATOM     17  H   UNL     1       8.060   5.986  14.778  0.00  0.00    +0.000 HD
ATOM     18  H   UNL     1       7.043   4.783  13.996  0.00  0.00    +0.000 HD
ENDBRANCH  14  16
ENDBRANCH  12  14
ENDBRANCH   1  12
BRANCH   4  19
ATOM     19  N   UNL     1       1.914   8.528  17.638  0.00  0.00    +0.000 N 
ATOM     20  H   UNL     1       1.112   7.929  17.462  0.00  0.00    +0.000 HD
BRANCH  19  21
ATOM     21  C   UNL     1       1.518   9.759  18.189  0.00  0.00    +0.000 A 
ATOM     22  C   UNL     1       0.437   9.899  19.069  0.00  0.00    +0.000 A 
ATOM     23  C   UNL     1       0.106  11.139  19.626  0.00  0.00    +0.000 A 
ATOM     24  C   UNL     1       0.871  12.262  19.333  0.00  0.00    +0.000 A 
ATOM     25  C   UNL     1       1.980  12.137  18.505  0.00  0.00    +0.000 A 
ATOM     26  C   UNL     1       2.310  10.893  17.954  0.00  0.00    +0.000 A 
ENDBRANCH  19  21
ENDBRANCH   4  19
TORSDOF 5
ENDMDL
MODEL 7
REMARK VINA RESULT:      -7.2      3.089      6.433
REMARK  Name = 
REMARK  5 active torsions:
REMARK  status: ('A' for Active; 'I' for Inactive)
REMARK    1  A    between atoms: N_1  and  C_2
REMARK    2  A    between atoms: C_2  and  N_4
REMARK    3  A    between atoms: N_4  and  N_5
REMARK    4  A    between atoms: C_8  and  N_9
REMARK    5  A    between atoms: N_9  and  C_10
REMARK                            x       y       z     vdW  Elec       q    Type
REMARK                         _______ _______ _______ _____ _____    ______ ____
ROOT
ATOM      1  N   UNL     1       1.259   8.149  20.503  0.00  0.00    +0.000 NA
ATOM      2  C   UNL     1       2.007   7.580  19.614  0.00  0.00    +0.000 C 
ATOM      3  C   UNL     1       2.676   8.179  18.408  0.00  0.00    +0.000 C 
ATOM      4  C   UNL     1       3.368   6.992  17.693  0.00  0.00    +0.000 C 
ATOM      5  C   UNL     1       3.102   5.818  18.601  0.00  0.00    +0.000 A 
ATOM      6  C   UNL     1       3.485   4.491  18.443  0.00  0.00    +0.000 A 
ATOM      7  C   UNL     1       3.055   3.546  19.387  0.00  0.00    +0.000 A 
ATOM      8  C   UNL     1       2.245   3.931  20.468  0.00  0.00    +0.000 A 
ATOM      9 BR   UNL     1       1.658   2.637  21.715  0.00  0.00    +0.000 Br
ATOM     10  C   UNL     1       1.855   5.255  20.629  0.00  0.00    +0.000 A 
ATOM     11  C   UNL     1       2.300   6.162  19.682  0.00  0.00    +0.000 A 
ENDROOT
BRANCH   1  12
ATOM     12  N   UNL     1       1.027   9.483  20.393  0.00  0.00    +0.000 N 
ATOM     13  H   UNL     1       1.594  10.073  19.793  0.00  0.00    +0.000 HD
BRANCH  12  14
ATOM     14  C   UNL     1       0.052  10.074  21.155  0.00  0.00    +0.000 C 
ATOM     15  S   UNL     1      -0.193   9.693  22.749  0.00  0.00    +0.000 S 
BRANCH  14  16
ATOM     16  N   UNL     1      -0.701  10.999  20.510  0.00  0.00    +0.000 N 
ATOM     17  H   UNL     1      -1.559  11.355  20.901  0.00  0.00    +0.000 HD
ATOM     18  H   UNL     1      -0.440  11.208  19.554  0.00  0.00    +0.000 HD
ENDBRANCH  14  16
ENDBRANCH  12  14
ENDBRANCH   1  12
BRANCH   4  19
ATOM     19  N   UNL     1       4.803   7.226  17.537  0.00  0.00    +0.000 N 
ATOM     20  H   UNL     1       5.266   7.470  18.408  0.00  0.00    +0.000 HD
BRANCH  19  21
ATOM     21  C   UNL     1       5.561   6.301  16.800  0.00  0.00    +0.000 A 
ATOM     22  C   UNL     1       6.634   5.580  17.338  0.00  0.00    +0.000 A 
ATOM     23  C   UNL     1       7.334   4.636  16.577  0.00  0.00    +0.000 A 
ATOM     24  C   UNL     1       6.953   4.377  15.265  0.00  0.00    +0.000 A 
ATOM     25  C   UNL     1       5.858   5.042  14.727  0.00  0.00    +0.000 A 
ATOM     26  C   UNL     1       5.159   5.981  15.494  0.00  0.00    +0.000 A 
ENDBRANCH  19  21
ENDBRANCH   4  19
TORSDOF 5
ENDMDL
MODEL 8
REMARK VINA RESULT:      -7.1      3.075      6.444
REMARK  Name = 
REMARK  5 active torsions:
REMARK  status: ('A' for Active; 'I' for Inactive)
REMARK    1  A    between atoms: N_1  and  C_2
REMARK    2  A    between atoms: C_2  and  N_4
REMARK    3  A    between atoms: N_4  and  N_5
REMARK    4  A    between atoms: C_8  and  N_9
REMARK    5  A    between atoms: N_9  and  C_10
REMARK                            x       y       z     vdW  Elec       q    Type
REMARK                         _______ _______ _______ _____ _____    ______ ____
ROOT
ATOM      1  N   UNL     1       1.284   8.188  20.497  0.00  0.00    +0.000 NA
ATOM      2  C   UNL     1       1.995   7.603  19.589  0.00  0.00    +0.000 C 
ATOM      3  C   UNL     1       2.614   8.179  18.344  0.00  0.00    +0.000 C 
ATOM      4  C   UNL     1       3.277   6.979  17.625  0.00  0.00    +0.000 C 
ATOM      5  C   UNL     1       3.051   5.822  18.566  0.00  0.00    +0.000 A 
ATOM      6  C   UNL     1       3.430   4.493  18.419  0.00  0.00    +0.000 A 
ATOM      7  C   UNL     1       3.041   3.566  19.398  0.00  0.00    +0.000 A 
ATOM      8  C   UNL     1       2.275   3.972  20.504  0.00  0.00    +0.000 A 
ATOM      9 BR   UNL     1       1.743   2.702  21.798  0.00  0.00    +0.000 Br
ATOM     10  C   UNL     1       1.890   5.298  20.654  0.00  0.00    +0.000 A 
ATOM     11  C   UNL     1       2.294   6.187  19.672  0.00  0.00    +0.000 A 
ENDROOT
BRANCH   1  12
ATOM     12  N   UNL     1       1.045   9.520  20.370  0.00  0.00    +0.000 N 
ATOM     13  H   UNL     1       1.320  10.032  19.538  0.00  0.00    +0.000 HD
BRANCH  12  14
ATOM     14  C   UNL     1       0.482  10.217  21.408  0.00  0.00    +0.000 C 
ATOM     15  S   UNL     1      -0.127   9.475  22.759  0.00  0.00    +0.000 S 
BRANCH  14  16
ATOM     16  N   UNL     1       0.460  11.564  21.254  0.00  0.00    +0.000 N 
ATOM     17  H   UNL     1      -0.172  12.017  20.612  0.00  0.00    +0.000 HD
ATOM     18  H   UNL     1       1.206  12.082  21.702  0.00  0.00    +0.000 HD
ENDBRANCH  14  16
ENDBRANCH  12  14
ENDBRANCH   1  12
BRANCH   4  19
ATOM     19  N   UNL     1       4.705   7.212  17.406  0.00  0.00    +0.000 N 
ATOM     20  H   UNL     1       5.195   7.515  18.243  0.00  0.00    +0.000 HD
BRANCH  19  21
ATOM     21  C   UNL     1       5.446   6.245  16.706  0.00  0.00    +0.000 A 
ATOM     22  C   UNL     1       5.191   5.892  15.374  0.00  0.00    +0.000 A 
ATOM     23  C   UNL     1       5.983   4.953  14.704  0.00  0.00    +0.000 A 
ATOM     24  C   UNL     1       7.068   4.368  15.348  0.00  0.00    +0.000 A 
ATOM     25  C   UNL     1       7.372   4.742  16.651  0.00  0.00    +0.000 A 
ATOM     26  C   UNL     1       6.579   5.685  17.315  0.00  0.00    +0.000 A 
ENDBRANCH  19  21
ENDBRANCH   4  19
TORSDOF 5
ENDMDL
MODEL 9
REMARK VINA RESULT:      -7.0      1.015      1.022
REMARK  Name = 
REMARK  5 active torsions:
REMARK  status: ('A' for Active; 'I' for Inactive)
REMARK    1  A    between atoms: N_1  and  C_2
REMARK    2  A    between atoms: C_2  and  N_4
REMARK    3  A    between atoms: N_4  and  N_5
REMARK    4  A    between atoms: C_8  and  N_9
REMARK    5  A    between atoms: N_9  and  C_10
REMARK                            x       y       z     vdW  Elec       q    Type
REMARK                         _______ _______ _______ _____ _____    ______ ____
ROOT
ATOM      1  N   UNL     1       4.940   5.265  17.092  0.00  0.00    +0.000 NA
ATOM      2  C   UNL     1       4.119   6.114  17.619  0.00  0.00    +0.000 C 
ATOM      3  C   UNL     1       3.846   7.543  17.232  0.00  0.00    +0.000 C 
ATOM      4  C   UNL     1       2.824   8.060  18.274  0.00  0.00    +0.000 C 
ATOM      5  C   UNL     1       2.533   6.851  19.127  0.00  0.00    +0.000 A 
ATOM      6  C   UNL     1       1.687   6.743  20.224  0.00  0.00    +0.000 A 
ATOM      7  C   UNL     1       1.631   5.525  20.918  0.00  0.00    +0.000 A 
ATOM      8  C   UNL     1       2.421   4.435  20.516  0.00  0.00    +0.000 A 
ATOM      9 BR   UNL     1       2.347   2.810  21.480  0.00  0.00    +0.000 Br
ATOM     10  C   UNL     1       3.271   4.538  19.422  0.00  0.00    +0.000 A 
ATOM     11  C   UNL     1       3.299   5.753  18.758  0.00  0.00    +0.000 A 
ENDROOT
BRANCH   1  12
ATOM     12  N   UNL     1       5.674   5.659  16.019  0.00  0.00    +0.000 N 
ATOM     13  H   UNL     1       5.537   6.566  15.584  0.00  0.00    +0.000 HD
BRANCH  12  14
ATOM     14  C   UNL     1       6.581   4.798  15.456  0.00  0.00    +0.000 C 
ATOM     15  S   UNL     1       6.337   4.077  13.984  0.00  0.00    +0.000 S 
BRANCH  14  16
ATOM     16  N   UNL     1       7.699   4.578  16.190  0.00  0.00    +0.000 N 
ATOM     17  H   UNL     1       8.587   4.371  15.760  0.00  0.00    +0.000 HD
ATOM     18  H   UNL     1       7.572   4.486  17.191  0.00  0.00    +0.000 HD
ENDBRANCH  14  16
ENDBRANCH  12  14
ENDBRANCH   1  12
BRANCH   4  19
ATOM     19  N   UNL     1       1.609   8.556  17.627  0.00  0.00    +0.000 N 
ATOM     20  H   UNL     1       0.911   7.834  17.476  0.00  0.00    +0.000 HD
BRANCH  19  21
ATOM     21  C   UNL     1       1.022   9.737  18.112  0.00  0.00    +0.000 A 
ATOM     22  C   UNL     1       1.759  10.859  18.510  0.00  0.00    +0.000 A 
ATOM     23  C   UNL     1       1.129  12.029  18.947  0.00  0.00    +0.000 A 
ATOM     24  C   UNL     1      -0.260  12.108  18.967  0.00  0.00    +0.000 A 
ATOM     25  C   UNL     1      -1.013  11.026  18.526  0.00  0.00    +0.000 A 
ATOM     26  C   UNL     1      -0.376   9.860  18.086  0.00  0.00    +0.000 A 
ENDBRANCH  19  21
ENDBRANCH   4  19
TORSDOF 5
ENDMDL
