MODEL 1
REMARK VINA RESULT:      -8.5      0.000      0.000
REMARK  Name = 
REMARK  6 active torsions:
REMARK  status: ('A' for Active; 'I' for Inactive)
REMARK    1  A    between atoms: C_1  and  C_2
REMARK    2  A    between atoms: N_4  and  C_5
REMARK    3  A    between atoms: C_5  and  C_13
REMARK    4  A    between atoms: C_6  and  C_7
REMARK    5  A    between atoms: N_15  and  C_16
REMARK    6  A    between atoms: C_19  and  O_20
REMARK                            x       y       z     vdW  Elec       q    Type
REMARK                         _______ _______ _______ _____ _____    ______ ____
ROOT
ATOM      1  C   UNL     1       5.884   4.558  16.835  0.00  0.00    +0.000 C 
ATOM      2  C   UNL     1       5.523   3.988  15.672  0.00  0.00    +0.000 C 
ENDROOT
BRANCH   2   3
ATOM      3  C   UNL     1       6.215   4.167  14.389  0.00  0.00    +0.000 A 
ATOM      4  C   UNL     1       5.806   3.430  13.271  0.00  0.00    +0.000 A 
ATOM      5  C   UNL     1       6.413   3.629  12.028  0.00  0.00    +0.000 A 
ATOM      6  C   UNL     1       7.434   4.565  11.895  0.00  0.00    +0.000 A 
ATOM      7  C   UNL     1       7.859   5.294  13.008  0.00  0.00    +0.000 A 
ATOM      8  C   UNL     1       7.253   5.096  14.252  0.00  0.00    +0.000 A 
ENDBRANCH   2   3
BRANCH   1  12
ATOM      9  C   UNL     1       7.683   7.733  17.509  0.00  0.00    +0.000 C 
ATOM     10  C   UNL     1       6.500   6.849  17.208  0.00  0.00    +0.000 C 
ATOM     11  O   UNL     1       5.346   7.268  17.263  0.00  0.00    +0.000 OA
ATOM     12  N   UNL     1       6.872   5.535  16.934  0.00  0.00    +0.000 N 
ATOM     13  H   UNL     1       7.600   5.266  17.592  0.00  0.00    +0.000 HD
ENDBRANCH   1  12
BRANCH   1  14
ATOM     14  C   UNL     1       5.213   4.239  18.153  0.00  0.00    +0.000 C 
ATOM     15  O   UNL     1       5.928   4.143  19.151  0.00  0.00    +0.000 OA
ATOM     16  N   UNL     1       3.873   3.918  18.092  0.00  0.00    +0.000 N 
ATOM     17  H   UNL     1       3.466   3.770  17.183  0.00  0.00    +0.000 HD
BRANCH  16  18
ATOM     18  C   UNL     1       3.066   3.583  19.205  0.00  0.00    +0.000 A 
ATOM     19  C   UNL     1       1.782   4.100  19.399  0.00  0.00    +0.000 A 
ATOM     20  C   UNL     1       1.028   3.750  20.524  0.00  0.00    +0.000 A 
ATOM     21  C   UNL     1       1.567   2.878  21.458  0.00  0.00    +0.000 A 
ATOM     22  C   UNL     1       2.836   2.345  21.281  0.00  0.00    +0.000 A 
ATOM     23  C   UNL     1       3.581   2.686  20.147  0.00  0.00    +0.000 A 
BRANCH  21  24
ATOM     24  O   UNL     1       0.869   2.515  22.576  0.00  0.00    +0.000 OA
ATOM     25  H   UNL     1       1.505   2.277  23.272  0.00  0.00    +0.000 HD
ENDBRANCH  21  24
ENDBRANCH  16  18
ENDBRANCH   1  14
TORSDOF 5
ENDMDL
MODEL 2
REMARK VINA RESULT:      -8.5      0.134      1.035
REMARK  Name = 
REMARK  6 active torsions:
REMARK  status: ('A' for Active; 'I' for Inactive)
REMARK    1  A    between atoms: C_1  and  C_2
REMARK    2  A    between atoms: N_4  and  C_5
REMARK    3  A    between atoms: C_5  and  C_13
REMARK    4  A    between atoms: C_6  and  C_7
REMARK    5  A    between atoms: N_15  and  C_16
REMARK    6  A    between atoms: C_19  and  O_20
REMARK                            x       y       z     vdW  Elec       q    Type
REMARK                         _______ _______ _______ _____ _____    ______ ____
ROOT
ATOM      1  C   UNL     1       5.944   4.578  16.899  0.00  0.00    +0.000 C 
ATOM      2  C   UNL     1       5.569   3.987  15.751  0.00  0.00    +0.000 C 
ENDROOT
BRANCH   2   3
ATOM      3  C   UNL     1       6.229   4.164  14.451  0.00  0.00    +0.000 A 
ATOM      4  C   UNL     1       5.764   3.458  13.335  0.00  0.00    +0.000 A 
ATOM      5  C   UNL     1       6.341   3.658  12.078  0.00  0.00    +0.000 A 
ATOM      6  C   UNL     1       7.387   4.562  11.929  0.00  0.00    +0.000 A 
ATOM      7  C   UNL     1       7.868   5.259  13.039  0.00  0.00    +0.000 A 
ATOM      8  C   UNL     1       7.293   5.061  14.297  0.00  0.00    +0.000 A 
ENDBRANCH   2   3
BRANCH   1  12
ATOM      9  C   UNL     1       7.690   7.802  17.473  0.00  0.00    +0.000 C 
ATOM     10  C   UNL     1       6.521   6.889  17.204  0.00  0.00    +0.000 C 
ATOM     11  O   UNL     1       5.360   7.289  17.254  0.00  0.00    +0.000 OA
ATOM     12  N   UNL     1       6.915   5.574  16.965  0.00  0.00    +0.000 N 
ATOM     13  H   UNL     1       7.651   5.337  17.626  0.00  0.00    +0.000 HD
ENDBRANCH   1  12
BRANCH   1  14
ATOM     14  C   UNL     1       5.308   4.262  18.235  0.00  0.00    +0.000 C 
ATOM     15  O   UNL     1       6.029   4.290  19.233  0.00  0.00    +0.000 OA
ATOM     16  N   UNL     1       4.007   3.806  18.198  0.00  0.00    +0.000 N 
ATOM     17  H   UNL     1       3.617   3.571  17.300  0.00  0.00    +0.000 HD
BRANCH  16  18
ATOM     18  C   UNL     1       3.238   3.450  19.331  0.00  0.00    +0.000 A 
ATOM     19  C   UNL     1       3.697   2.578  20.323  0.00  0.00    +0.000 A 
ATOM     20  C   UNL     1       2.893   2.246  21.417  0.00  0.00    +0.000 A 
ATOM     21  C   UNL     1       1.621   2.791  21.515  0.00  0.00    +0.000 A 
ATOM     22  C   UNL     1       1.148   3.666  20.549  0.00  0.00    +0.000 A 
ATOM     23  C   UNL     1       1.961   4.008  19.463  0.00  0.00    +0.000 A 
BRANCH  21  24
ATOM     24  O   UNL     1       0.798   2.487  22.564  0.00  0.00    +0.000 OA
ATOM     25  H   UNL     1       0.491   1.570  22.458  0.00  0.00    +0.000 HD
ENDBRANCH  21  24
ENDBRANCH  16  18
ENDBRANCH   1  14
TORSDOF 5
ENDMDL
MODEL 3
REMARK VINA RESULT:      -8.5      0.121      1.458
REMARK  Name = 
REMARK  6 active torsions:
REMARK  status: ('A' for Active; 'I' for Inactive)
REMARK    1  A    between atoms: C_1  and  C_2
REMARK    2  A    between atoms: N_4  and  C_5
REMARK    3  A    between atoms: C_5  and  C_13
REMARK    4  A    between atoms: C_6  and  C_7
REMARK    5  A    between atoms: N_15  and  C_16
REMARK    6  A    between atoms: C_19  and  O_20
REMARK                            x       y       z     vdW  Elec       q    Type
REMARK                         _______ _______ _______ _____ _____    ______ ____
ROOT
ATOM      1  C   UNL     1       5.873   4.586  16.875  0.00  0.00    +0.000 C 
ATOM      2  C   UNL     1       5.467   4.020  15.725  0.00  0.00    +0.000 C 
ENDROOT
BRANCH   2   3
ATOM      3  C   UNL     1       6.107   4.206  14.416  0.00  0.00    +0.000 A 
ATOM      4  C   UNL     1       7.208   5.062  14.297  0.00  0.00    +0.000 A 
ATOM      5  C   UNL     1       7.868   5.206  13.073  0.00  0.00    +0.000 A 
ATOM      6  C   UNL     1       7.430   4.496  11.960  0.00  0.00    +0.000 A 
ATOM      7  C   UNL     1       6.323   3.650  12.065  0.00  0.00    +0.000 A 
ATOM      8  C   UNL     1       5.662   3.505  13.288  0.00  0.00    +0.000 A 
ENDBRANCH   2   3
BRANCH   1  12
ATOM      9  C   UNL     1       7.683   7.771  17.466  0.00  0.00    +0.000 C 
ATOM     10  C   UNL     1       6.494   6.882  17.202  0.00  0.00    +0.000 C 
ATOM     11  O   UNL     1       5.341   7.301  17.277  0.00  0.00    +0.000 OA
ATOM     12  N   UNL     1       6.861   5.565  16.938  0.00  0.00    +0.000 N 
ATOM     13  H   UNL     1       7.603   5.306  17.584  0.00  0.00    +0.000 HD
ENDBRANCH   1  12
BRANCH   1  14
ATOM     14  C   UNL     1       5.255   4.260  18.217  0.00  0.00    +0.000 C 
ATOM     15  O   UNL     1       5.994   4.254  19.201  0.00  0.00    +0.000 OA
ATOM     16  N   UNL     1       3.943   3.833  18.196  0.00  0.00    +0.000 N 
ATOM     17  H   UNL     1       3.531   3.624  17.302  0.00  0.00    +0.000 HD
BRANCH  16  18
ATOM     18  C   UNL     1       3.187   3.474  19.337  0.00  0.00    +0.000 A 
ATOM     19  C   UNL     1       3.657   2.596  20.318  0.00  0.00    +0.000 A 
ATOM     20  C   UNL     1       2.866   2.261  21.421  0.00  0.00    +0.000 A 
ATOM     21  C   UNL     1       1.597   2.808  21.538  0.00  0.00    +0.000 A 
ATOM     22  C   UNL     1       1.113   3.689  20.582  0.00  0.00    +0.000 A 
ATOM     23  C   UNL     1       1.914   4.035  19.487  0.00  0.00    +0.000 A 
BRANCH  21  24
ATOM     24  O   UNL     1       0.786   2.501  22.595  0.00  0.00    +0.000 OA
ATOM     25  H   UNL     1       1.191   1.769  23.091  0.00  0.00    +0.000 HD
ENDBRANCH  21  24
ENDBRANCH  16  18
ENDBRANCH   1  14
TORSDOF 5
ENDMDL
MODEL 4
REMARK VINA RESULT:      -8.4      0.113      1.035
REMARK  Name = 
REMARK  6 active torsions:
REMARK  status: ('A' for Active; 'I' for Inactive)
REMARK    1  A    between atoms: C_1  and  C_2
REMARK    2  A    between atoms: N_4  and  C_5
REMARK    3  A    between atoms: C_5  and  C_13
REMARK    4  A    between atoms: C_6  and  C_7
REMARK    5  A    between atoms: N_15  and  C_16
REMARK    6  A    between atoms: C_19  and  O_20
REMARK                            x       y       z     vdW  Elec       q    Type
REMARK                         _______ _______ _______ _____ _____    ______ ____
ROOT
ATOM      1  C   UNL     1       5.814   4.603  16.879  0.00  0.00    +0.000 C 
ATOM      2  C   UNL     1       5.410   4.053  15.720  0.00  0.00    +0.000 C 
ENDROOT
BRANCH   2   3
ATOM      3  C   UNL     1       6.078   4.222  14.423  0.00  0.00    +0.000 A 
ATOM      4  C   UNL     1       7.163   5.099  14.310  0.00  0.00    +0.000 A 
ATOM      5  C   UNL     1       7.848   5.229  13.098  0.00  0.00    +0.000 A 
ATOM      6  C   UNL     1       7.453   4.483  11.993  0.00  0.00    +0.000 A 
ATOM      7  C   UNL     1       6.363   3.616  12.092  0.00  0.00    +0.000 A 
ATOM      8  C   UNL     1       5.676   3.485  13.302  0.00  0.00    +0.000 A 
ENDBRANCH   2   3
BRANCH   1  12
ATOM      9  C   UNL     1       7.710   7.731  17.502  0.00  0.00    +0.000 C 
ATOM     10  C   UNL     1       6.500   6.879  17.214  0.00  0.00    +0.000 C 
ATOM     11  O   UNL     1       5.360   7.334  17.262  0.00  0.00    +0.000 OA
ATOM     12  N   UNL     1       6.832   5.550  16.962  0.00  0.00    +0.000 N 
ATOM     13  H   UNL     1       7.551   5.270  17.624  0.00  0.00    +0.000 HD
ENDBRANCH   1  12
BRANCH   1  14
ATOM     14  C   UNL     1       5.164   4.293  18.209  0.00  0.00    +0.000 C 
ATOM     15  O   UNL     1       5.882   4.286  19.209  0.00  0.00    +0.000 OA
ATOM     16  N   UNL     1       3.849   3.880  18.163  0.00  0.00    +0.000 N 
ATOM     17  H   UNL     1       3.454   3.668  17.262  0.00  0.00    +0.000 HD
BRANCH  16  18
ATOM     18  C   UNL     1       3.065   3.536  19.290  0.00  0.00    +0.000 A 
ATOM     19  C   UNL     1       1.793   4.065  19.524  0.00  0.00    +0.000 A 
ATOM     20  C   UNL     1       1.062   3.705  20.660  0.00  0.00    +0.000 A 
ATOM     21  C   UNL     1       1.612   2.811  21.567  0.00  0.00    +0.000 A 
ATOM     22  C   UNL     1       2.869   2.266  21.350  0.00  0.00    +0.000 A 
ATOM     23  C   UNL     1       3.591   2.616  20.204  0.00  0.00    +0.000 A 
BRANCH  21  24
ATOM     24  O   UNL     1       0.937   2.439  22.695  0.00  0.00    +0.000 OA
ATOM     25  H   UNL     1       1.441   1.734  23.137  0.00  0.00    +0.000 HD
ENDBRANCH  21  24
ENDBRANCH  16  18
ENDBRANCH   1  14
TORSDOF 5
ENDMDL
MODEL 5
REMARK VINA RESULT:      -8.2      4.171      5.565
REMARK  Name = 
REMARK  6 active torsions:
REMARK  status: ('A' for Active; 'I' for Inactive)
REMARK    1  A    between atoms: C_1  and  C_2
REMARK    2  A    between atoms: N_4  and  C_5
REMARK    3  A    between atoms: C_5  and  C_13
REMARK    4  A    between atoms: C_6  and  C_7
REMARK    5  A    between atoms: N_15  and  C_16
REMARK    6  A    between atoms: C_19  and  O_20
REMARK                            x       y       z     vdW  Elec       q    Type
REMARK                         _______ _______ _______ _____ _____    ______ ____
ROOT
ATOM      1  C   UNL     1       3.214   5.635  19.151  0.00  0.00    +0.000 C 
ATOM      2  C   UNL     1       4.233   6.244  18.519  0.00  0.00    +0.000 C 
ENDROOT
BRANCH   2   3
ATOM      3  C   UNL     1       5.147   5.598  17.568  0.00  0.00    +0.000 A 
ATOM      4  C   UNL     1       4.797   5.517  16.215  0.00  0.00    +0.000 A 
ATOM      5  C   UNL     1       5.679   4.960  15.285  0.00  0.00    +0.000 A 
ATOM      6  C   UNL     1       6.916   4.480  15.701  0.00  0.00    +0.000 A 
ATOM      7  C   UNL     1       7.269   4.542  17.051  0.00  0.00    +0.000 A 
ATOM      8  C   UNL     1       6.388   5.099  17.983  0.00  0.00    +0.000 A 
ENDBRANCH   2   3
BRANCH   1  12
ATOM      9  C   UNL     1       2.182   2.233  18.088  0.00  0.00    +0.000 C 
ATOM     10  C   UNL     1       2.130   3.738  18.155  0.00  0.00    +0.000 C 
ATOM     11  O   UNL     1       1.425   4.398  17.395  0.00  0.00    +0.000 OA
ATOM     12  N   UNL     1       3.000   4.260  19.109  0.00  0.00    +0.000 N 
ATOM     13  H   UNL     1       3.876   3.747  19.055  0.00  0.00    +0.000 HD
ENDBRANCH   1  12
BRANCH   1  14
ATOM     14  C   UNL     1       2.224   6.377  20.023  0.00  0.00    +0.000 C 
ATOM     15  O   UNL     1       1.454   5.707  20.711  0.00  0.00    +0.000 OA
ATOM     16  N   UNL     1       2.158   7.743  19.844  0.00  0.00    +0.000 N 
ATOM     17  H   UNL     1       2.650   8.139  19.059  0.00  0.00    +0.000 HD
BRANCH  16  18
ATOM     18  C   UNL     1       1.298   8.615  20.552  0.00  0.00    +0.000 A 
ATOM     19  C   UNL     1       1.221   8.645  21.947  0.00  0.00    +0.000 A 
ATOM     20  C   UNL     1       0.344   9.516  22.600  0.00  0.00    +0.000 A 
ATOM     21  C   UNL     1      -0.461  10.359  21.849  0.00  0.00    +0.000 A 
ATOM     22  C   UNL     1      -0.395  10.354  20.464  0.00  0.00    +0.000 A 
ATOM     23  C   UNL     1       0.495   9.492  19.813  0.00  0.00    +0.000 A 
BRANCH  21  24
ATOM     24  O   UNL     1      -1.339  11.220  22.446  0.00  0.00    +0.000 OA
ATOM     25  H   UNL     1      -2.240  10.986  22.163  0.00  0.00    +0.000 HD
ENDBRANCH  21  24
ENDBRANCH  16  18
ENDBRANCH   1  14
TORSDOF 5
ENDMDL
MODEL 6
REMARK VINA RESULT:      -8.2      4.160      5.472
REMARK  Name = 
REMARK  6 active torsions:
REMARK  status: ('A' for Active; 'I' for Inactive)
REMARK    1  A    between atoms: C_1  and  C_2
REMARK    2  A    between atoms: N_4  and  C_5
REMARK    3  A    between atoms: C_5  and  C_13
REMARK    4  A    between atoms: C_6  and  C_7
REMARK    5  A    between atoms: N_15  and  C_16
REMARK    6  A    between atoms: C_19  and  O_20
REMARK                            x       y       z     vdW  Elec       q    Type
REMARK                         _______ _______ _______ _____ _____    ______ ____
ROOT
ATOM      1  C   UNL     1       3.204   5.665  19.113  0.00  0.00    +0.000 C 
ATOM      2  C   UNL     1       4.222   6.284  18.489  0.00  0.00    +0.000 C 
ENDROOT
BRANCH   2   3
ATOM      3  C   UNL     1       5.144   5.651  17.538  0.00  0.00    +0.000 A 
ATOM      4  C   UNL     1       4.835   5.644  16.172  0.00  0.00    +0.000 A 
ATOM      5  C   UNL     1       5.728   5.099  15.245  0.00  0.00    +0.000 A 
ATOM      6  C   UNL     1       6.934   4.556  15.677  0.00  0.00    +0.000 A 
ATOM      7  C   UNL     1       7.244   4.544  17.039  0.00  0.00    +0.000 A 
ATOM      8  C   UNL     1       6.352   5.089  17.968  0.00  0.00    +0.000 A 
ENDBRANCH   2   3
BRANCH   1  12
ATOM      9  C   UNL     1       2.180   2.265  18.037  0.00  0.00    +0.000 C 
ATOM     10  C   UNL     1       2.118   3.769  18.118  0.00  0.00    +0.000 C 
ATOM     11  O   UNL     1       1.396   4.430  17.376  0.00  0.00    +0.000 OA
ATOM     12  N   UNL     1       3.000   4.289  19.063  0.00  0.00    +0.000 N 
ATOM     13  H   UNL     1       3.879   3.782  18.990  0.00  0.00    +0.000 HD
ENDBRANCH   1  12
BRANCH   1  14
ATOM     14  C   UNL     1       2.206   6.395  19.986  0.00  0.00    +0.000 C 
ATOM     15  O   UNL     1       1.444   5.716  20.674  0.00  0.00    +0.000 OA
ATOM     16  N   UNL     1       2.124   7.760  19.807  0.00  0.00    +0.000 N 
ATOM     17  H   UNL     1       2.611   8.162  19.022  0.00  0.00    +0.000 HD
BRANCH  16  18
ATOM     18  C   UNL     1       1.254   8.622  20.515  0.00  0.00    +0.000 A 
ATOM     19  C   UNL     1       0.387   9.519  19.884  0.00  0.00    +0.000 A 
ATOM     20  C   UNL     1      -0.444  10.360  20.628  0.00  0.00    +0.000 A 
ATOM     21  C   UNL     1      -0.404  10.303  22.013  0.00  0.00    +0.000 A 
ATOM     22  C   UNL     1       0.441   9.414  22.662  0.00  0.00    +0.000 A 
ATOM     23  C   UNL     1       1.260   8.562  21.913  0.00  0.00    +0.000 A 
BRANCH  21  24
ATOM     24  O   UNL     1      -1.193  11.114  22.780  0.00  0.00    +0.000 OA
ATOM     25  H   UNL     1      -2.070  10.701  22.863  0.00  0.00    +0.000 HD
ENDBRANCH  21  24
ENDBRANCH  16  18
ENDBRANCH   1  14
TORSDOF 5
ENDMDL
MODEL 7
REMARK VINA RESULT:      -8.2      4.166      5.587
REMARK  Name = 
REMARK  6 active torsions:
REMARK  status: ('A' for Active; 'I' for Inactive)
REMARK    1  A    between atoms: C_1  and  C_2
REMARK    2  A    between atoms: N_4  and  C_5
REMARK    3  A    between atoms: C_5  and  C_13
REMARK    4  A    between atoms: C_6  and  C_7
REMARK    5  A    between atoms: N_15  and  C_16
REMARK    6  A    between atoms: C_19  and  O_20
REMARK                            x       y       z     vdW  Elec       q    Type
REMARK                         _______ _______ _______ _____ _____    ______ ____
ROOT
ATOM      1  C   UNL     1       3.242   5.683  19.072  0.00  0.00    +0.000 C 
ATOM      2  C   UNL     1       4.237   6.314  18.425  0.00  0.00    +0.000 C 
ENDROOT
BRANCH   2   3
ATOM      3  C   UNL     1       5.152   5.689  17.461  0.00  0.00    +0.000 A 
ATOM      4  C   UNL     1       6.368   5.155  17.903  0.00  0.00    +0.000 A 
ATOM      5  C   UNL     1       7.224   4.504  17.011  0.00  0.00    +0.000 A 
ATOM      6  C   UNL     1       6.871   4.383  15.671  0.00  0.00    +0.000 A 
ATOM      7  C   UNL     1       5.666   4.926  15.217  0.00  0.00    +0.000 A 
ATOM      8  C   UNL     1       4.808   5.577  16.107  0.00  0.00    +0.000 A 
ENDBRANCH   2   3
BRANCH   1  12
ATOM      9  C   UNL     1       2.262   2.257  18.035  0.00  0.00    +0.000 C 
ATOM     10  C   UNL     1       2.176   3.761  18.105  0.00  0.00    +0.000 C 
ATOM     11  O   UNL     1       1.434   4.404  17.366  0.00  0.00    +0.000 OA
ATOM     12  N   UNL     1       3.059   4.303  19.035  0.00  0.00    +0.000 N 
ATOM     13  H   UNL     1       3.946   3.811  18.957  0.00  0.00    +0.000 HD
ENDBRANCH   1  12
BRANCH   1  14
ATOM     14  C   UNL     1       2.248   6.402  19.958  0.00  0.00    +0.000 C 
ATOM     15  O   UNL     1       1.485   5.716  20.638  0.00  0.00    +0.000 OA
ATOM     16  N   UNL     1       2.170   7.770  19.800  0.00  0.00    +0.000 N 
ATOM     17  H   UNL     1       2.656   8.182  19.021  0.00  0.00    +0.000 HD
BRANCH  16  18
ATOM     18  C   UNL     1       1.304   8.624  20.524  0.00  0.00    +0.000 A 
ATOM     19  C   UNL     1       1.233   8.634  21.920  0.00  0.00    +0.000 A 
ATOM     20  C   UNL     1       0.350   9.487  22.589  0.00  0.00    +0.000 A 
ATOM     21  C   UNL     1      -0.466  10.333  21.853  0.00  0.00    +0.000 A 
ATOM     22  C   UNL     1      -0.406  10.347  20.467  0.00  0.00    +0.000 A 
ATOM     23  C   UNL     1       0.490   9.503  19.801  0.00  0.00    +0.000 A 
BRANCH  21  24
ATOM     24  O   UNL     1      -1.350  11.177  22.465  0.00  0.00    +0.000 OA
ATOM     25  H   UNL     1      -2.251  10.843  22.312  0.00  0.00    +0.000 HD
ENDBRANCH  21  24
ENDBRANCH  16  18
ENDBRANCH   1  14
TORSDOF 5
ENDMDL
MODEL 8
REMARK VINA RESULT:      -8.1      4.133      5.496
REMARK  Name = 
REMARK  6 active torsions:
REMARK  status: ('A' for Active; 'I' for Inactive)
REMARK    1  A    between atoms: C_1  and  C_2
REMARK    2  A    between atoms: N_4  and  C_5
REMARK    3  A    between atoms: C_5  and  C_13
REMARK    4  A    between atoms: C_6  and  C_7
REMARK    5  A    between atoms: N_15  and  C_16
REMARK    6  A    between atoms: C_19  and  O_20
REMARK                            x       y       z     vdW  Elec       q    Type
REMARK                         _______ _______ _______ _____ _____    ______ ____
ROOT
ATOM      1  C   UNL     1       3.240   5.668  19.090  0.00  0.00    +0.000 C 
ATOM      2  C   UNL     1       4.220   6.311  18.432  0.00  0.00    +0.000 C 
ENDROOT
BRANCH   2   3
ATOM      3  C   UNL     1       5.159   5.689  17.489  0.00  0.00    +0.000 A 
ATOM      4  C   UNL     1       6.391   5.210  17.949  0.00  0.00    +0.000 A 
ATOM      5  C   UNL     1       7.272   4.562  17.079  0.00  0.00    +0.000 A 
ATOM      6  C   UNL     1       6.927   4.389  15.743  0.00  0.00    +0.000 A 
ATOM      7  C   UNL     1       5.706   4.876  15.270  0.00  0.00    +0.000 A 
ATOM      8  C   UNL     1       4.824   5.525  16.139  0.00  0.00    +0.000 A 
ENDBRANCH   2   3
BRANCH   1  12
ATOM      9  C   UNL     1       2.390   2.187  18.124  0.00  0.00    +0.000 C 
ATOM     10  C   UNL     1       2.259   3.689  18.148  0.00  0.00    +0.000 C 
ATOM     11  O   UNL     1       1.522   4.289  17.369  0.00  0.00    +0.000 OA
ATOM     12  N   UNL     1       3.099   4.283  19.088  0.00  0.00    +0.000 N 
ATOM     13  H   UNL     1       4.001   3.815  19.049  0.00  0.00    +0.000 HD
ENDBRANCH   1  12
BRANCH   1  14
ATOM     14  C   UNL     1       2.221   6.380  19.951  0.00  0.00    +0.000 C 
ATOM     15  O   UNL     1       1.420   5.689  20.580  0.00  0.00    +0.000 OA
ATOM     16  N   UNL     1       2.170   7.753  19.826  0.00  0.00    +0.000 N 
ATOM     17  H   UNL     1       2.695   8.177  19.079  0.00  0.00    +0.000 HD
BRANCH  16  18
ATOM     18  C   UNL     1       1.287   8.602  20.535  0.00  0.00    +0.000 A 
ATOM     19  C   UNL     1       0.393   9.471  19.903  0.00  0.00    +0.000 A 
ATOM     20  C   UNL     1      -0.450  10.301  20.648  0.00  0.00    +0.000 A 
ATOM     21  C   UNL     1      -0.395  10.259  22.033  0.00  0.00    +0.000 A 
ATOM     22  C   UNL     1       0.477   9.397  22.681  0.00  0.00    +0.000 A 
ATOM     23  C   UNL     1       1.309   8.557  21.933  0.00  0.00    +0.000 A 
BRANCH  21  24
ATOM     24  O   UNL     1      -1.195  11.059  22.800  0.00  0.00    +0.000 OA
ATOM     25  H   UNL     1      -0.628  11.604  23.372  0.00  0.00    +0.000 HD
ENDBRANCH  21  24
ENDBRANCH  16  18
ENDBRANCH   1  14
TORSDOF 5
ENDMDL
MODEL 9
REMARK VINA RESULT:      -8.1      4.823      6.289
REMARK  Name = 
REMARK  6 active torsions:
REMARK  status: ('A' for Active; 'I' for Inactive)
REMARK    1  A    between atoms: C_1  and  C_2
REMARK    2  A    between atoms: N_4  and  C_5
REMARK    3  A    between atoms: C_5  and  C_13
REMARK    4  A    between atoms: C_6  and  C_7
REMARK    5  A    between atoms: N_15  and  C_16
REMARK    6  A    between atoms: C_19  and  O_20
REMARK                            x       y       z     vdW  Elec       q    Type
REMARK                         _______ _______ _______ _____ _____    ______ ____
ROOT
ATOM      1  C   UNL     1       3.123   6.891  18.047  0.00  0.00    +0.000 C 
ATOM      2  C   UNL     1       4.412   7.099  17.728  0.00  0.00    +0.000 C 
ENDROOT
BRANCH   2   3
ATOM      3  C   UNL     1       5.278   6.142  17.027  0.00  0.00    +0.000 A 
ATOM      4  C   UNL     1       5.161   5.986  15.641  0.00  0.00    +0.000 A 
ATOM      5  C   UNL     1       6.016   5.124  14.948  0.00  0.00    +0.000 A 
ATOM      6  C   UNL     1       6.991   4.411  15.637  0.00  0.00    +0.000 A 
ATOM      7  C   UNL     1       7.106   4.548  17.022  0.00  0.00    +0.000 A 
ATOM      8  C   UNL     1       6.252   5.410  17.717  0.00  0.00    +0.000 A 
ENDBRANCH   2   3
BRANCH   1  12
ATOM      9  C   UNL     1       1.669   3.544  18.720  0.00  0.00    +0.000 C 
ATOM     10  C   UNL     1       2.590   4.720  18.923  0.00  0.00    +0.000 C 
ATOM     11  O   UNL     1       3.297   4.826  19.923  0.00  0.00    +0.000 OA
ATOM     12  N   UNL     1       2.488   5.660  17.901  0.00  0.00    +0.000 N 
ATOM     13  H   UNL     1       1.504   5.772  17.668  0.00  0.00    +0.000 HD
ENDBRANCH   1  12
BRANCH   1  14
ATOM     14  C   UNL     1       2.241   7.960  18.655  0.00  0.00    +0.000 C 
ATOM     15  O   UNL     1       1.978   7.871  19.854  0.00  0.00    +0.000 OA
ATOM     16  N   UNL     1       1.670   8.853  17.772  0.00  0.00    +0.000 N 
ATOM     17  H   UNL     1       1.748   8.656  16.787  0.00  0.00    +0.000 HD
BRANCH  16  18
ATOM     18  C   UNL     1       0.811   9.918  18.135  0.00  0.00    +0.000 A 
ATOM     19  C   UNL     1       1.266  11.090  18.746  0.00  0.00    +0.000 A 
ATOM     20  C   UNL     1       0.376  12.109  19.098  0.00  0.00    +0.000 A 
ATOM     21  C   UNL     1      -0.977  11.950  18.837  0.00  0.00    +0.000 A 
ATOM     22  C   UNL     1      -1.450  10.799  18.222  0.00  0.00    +0.000 A 
ATOM     23  C   UNL     1      -0.554   9.788  17.857  0.00  0.00    +0.000 A 
BRANCH  21  24
ATOM     24  O   UNL     1      -1.883  12.916  19.172  0.00  0.00    +0.000 OA
ATOM     25  H   UNL     1      -2.560  12.518  19.746  0.00  0.00    +0.000 HD
ENDBRANCH  21  24
ENDBRANCH  16  18
ENDBRANCH   1  14
TORSDOF 5
ENDMDL
