MODEL 1
REMARK VINA RESULT:      -6.6      0.000      0.000
REMARK  Name = 
REMARK  10 active torsions:
REMARK  status: ('A' for Active; 'I' for Inactive)
REMARK    1  A    between atoms: C_1  and  O_2
REMARK    2  A    between atoms: O_2  and  C_3
REMARK    3  A    between atoms: C_8  and  O_9
REMARK    4  A    between atoms: O_9  and  C_10
REMARK    5  A    between atoms: C_12  and  C_13
REMARK    6  A    between atoms: C_14  and  O_15
REMARK    7  A    between atoms: O_15  and  C_16
REMARK    8  A    between atoms: C_19  and  O_20
REMARK    9  A    between atoms: O_20  and  C_21
REMARK   10  A    between atoms: C_22  and  O_23
REMARK                            x       y       z     vdW  Elec       q    Type
REMARK                         _______ _______ _______ _____ _____    ______ ____
ROOT
ATOM      1  C   UNL     1      -4.579  11.399  17.555  0.00  0.00    +0.000 A 
ATOM      2  C   UNL     1      -4.080  11.821  18.804  0.00  0.00    +0.000 A 
ATOM      3  C   UNL     1      -2.705  11.909  19.045  0.00  0.00    +0.000 A 
ATOM      4  C   UNL     1      -1.825  11.568  18.026  0.00  0.00    +0.000 A 
ATOM      5  C   UNL     1      -2.305  11.115  16.791  0.00  0.00    +0.000 A 
ATOM      6  C   UNL     1      -3.678  11.048  16.538  0.00  0.00    +0.000 A 
ATOM      7  O   UNL     1      -0.477  11.762  18.105  0.00  0.00    +0.000 OA
ATOM      8  C   UNL     1       0.109  11.838  19.423  0.00  0.00    +0.000 C 
ATOM      9  C   UNL     1      -0.723  12.694  20.380  0.00  0.00    +0.000 C 
ATOM     10  C   UNL     1      -2.213  12.382  20.378  0.00  0.00    +0.000 C 
ENDROOT
BRANCH   8  11
ATOM     11  C   UNL     1       0.631  10.451  19.770  0.00  0.00    +0.000 A 
ATOM     12  C   UNL     1       0.367   9.978  21.080  0.00  0.00    +0.000 A 
ATOM     13  C   UNL     1       0.911   8.780  21.541  0.00  0.00    +0.000 A 
ATOM     14  C   UNL     1       1.640   7.972  20.659  0.00  0.00    +0.000 A 
ATOM     15  C   UNL     1       1.806   8.344  19.323  0.00  0.00    +0.000 A 
ATOM     16  C   UNL     1       1.301   9.581  18.890  0.00  0.00    +0.000 A 
BRANCH  12  17
ATOM     17  O   UNL     1      -0.680  10.570  21.751  0.00  0.00    +0.000 OA
ATOM     18  C   UNL     1      -0.839  10.246  23.123  0.00  0.00    +0.000 C 
ENDBRANCH  12  17
BRANCH  15  19
ATOM     19  O   UNL     1       2.377   7.367  18.547  0.00  0.00    +0.000 OA
ATOM     20  C   UNL     1       2.790   6.165  19.183  0.00  0.00    +0.000 C 
ENDBRANCH  15  19
BRANCH  16  21
ATOM     21  O   UNL     1       1.318   9.896  17.562  0.00  0.00    +0.000 OA
ATOM     22  H   UNL     1       1.429  10.865  17.535  0.00  0.00    +0.000 HD
ENDBRANCH  16  21
ENDBRANCH   8  11
BRANCH   1  24
ATOM     23  C   UNL     1      -6.573  12.706  17.402  0.00  0.00    +0.000 C 
ATOM     24  O   UNL     1      -5.950  11.429  17.478  0.00  0.00    +0.000 OA
ENDBRANCH   1  24
BRANCH   6  25
ATOM     25  O   UNL     1      -4.167  10.815  15.279  0.00  0.00    +0.000 OA
ATOM     26  C   UNL     1      -3.322  10.131  14.364  0.00  0.00    +0.000 C 
ENDBRANCH   6  25
TORSDOF 6
ENDMDL
MODEL 2
REMARK VINA RESULT:      -6.5      2.240      4.245
REMARK  Name = 
REMARK  10 active torsions:
REMARK  status: ('A' for Active; 'I' for Inactive)
REMARK    1  A    between atoms: C_1  and  O_2
REMARK    2  A    between atoms: O_2  and  C_3
REMARK    3  A    between atoms: C_8  and  O_9
REMARK    4  A    between atoms: O_9  and  C_10
REMARK    5  A    between atoms: C_12  and  C_13
REMARK    6  A    between atoms: C_14  and  O_15
REMARK    7  A    between atoms: O_15  and  C_16
REMARK    8  A    between atoms: C_19  and  O_20
REMARK    9  A    between atoms: O_20  and  C_21
REMARK   10  A    between atoms: C_22  and  O_23
REMARK                            x       y       z     vdW  Elec       q    Type
REMARK                         _______ _______ _______ _____ _____    ______ ____
ROOT
ATOM      1  C   UNL     1      -3.466  10.722  16.525  0.00  0.00    +0.000 A 
ATOM      2  C   UNL     1      -2.180  10.161  16.655  0.00  0.00    +0.000 A 
ATOM      3  C   UNL     1      -1.395  10.395  17.789  0.00  0.00    +0.000 A 
ATOM      4  C   UNL     1      -1.904  11.201  18.799  0.00  0.00    +0.000 A 
ATOM      5  C   UNL     1      -3.167  11.793  18.670  0.00  0.00    +0.000 A 
ATOM      6  C   UNL     1      -3.963  11.543  17.549  0.00  0.00    +0.000 A 
ATOM      7  O   UNL     1      -1.289  11.369  20.004  0.00  0.00    +0.000 OA
ATOM      8  C   UNL     1       0.135  11.136  20.064  0.00  0.00    +0.000 C 
ATOM      9  C   UNL     1       0.551   9.879  19.297  0.00  0.00    +0.000 C 
ATOM     10  C   UNL     1      -0.041   9.764  17.899  0.00  0.00    +0.000 C 
ENDROOT
BRANCH   8  11
ATOM     11  C   UNL     1       0.824  12.485  19.908  0.00  0.00    +0.000 A 
ATOM     12  C   UNL     1       0.615  13.433  20.940  0.00  0.00    +0.000 A 
ATOM     13  C   UNL     1       1.092  14.738  20.832  0.00  0.00    +0.000 A 
ATOM     14  C   UNL     1       1.889  15.091  19.736  0.00  0.00    +0.000 A 
ATOM     15  C   UNL     1       2.227  14.143  18.767  0.00  0.00    +0.000 A 
ATOM     16  C   UNL     1       1.690  12.848  18.860  0.00  0.00    +0.000 A 
BRANCH  12  17
ATOM     17  O   UNL     1       0.214  12.938  22.161  0.00  0.00    +0.000 OA
ATOM     18  C   UNL     1      -0.850  13.610  22.817  0.00  0.00    +0.000 C 
ENDBRANCH  12  17
BRANCH  15  19
ATOM     19  O   UNL     1       3.159  14.589  17.863  0.00  0.00    +0.000 OA
ATOM     20  C   UNL     1       3.529  15.960  17.907  0.00  0.00    +0.000 C 
ENDBRANCH  15  19
BRANCH  16  21
ATOM     21  O   UNL     1       2.124  11.869  18.014  0.00  0.00    +0.000 OA
ATOM     22  H   UNL     1       2.900  11.479  18.458  0.00  0.00    +0.000 HD
ENDBRANCH  16  21
ENDBRANCH   8  11
BRANCH   1  24
ATOM     23  C   UNL     1      -3.312  10.056  14.237  0.00  0.00    +0.000 C 
ATOM     24  O   UNL     1      -4.115  10.339  15.377  0.00  0.00    +0.000 OA
ENDBRANCH   1  24
BRANCH   6  25
ATOM     25  O   UNL     1      -5.276  11.934  17.498  0.00  0.00    +0.000 OA
ATOM     26  C   UNL     1      -6.232  11.106  18.145  0.00  0.00    +0.000 C 
ENDBRANCH   6  25
TORSDOF 6
ENDMDL
MODEL 3
REMARK VINA RESULT:      -6.4      5.090     10.018
REMARK  Name = 
REMARK  10 active torsions:
REMARK  status: ('A' for Active; 'I' for Inactive)
REMARK    1  A    between atoms: C_1  and  O_2
REMARK    2  A    between atoms: O_2  and  C_3
REMARK    3  A    between atoms: C_8  and  O_9
REMARK    4  A    between atoms: O_9  and  C_10
REMARK    5  A    between atoms: C_12  and  C_13
REMARK    6  A    between atoms: C_14  and  O_15
REMARK    7  A    between atoms: O_15  and  C_16
REMARK    8  A    between atoms: C_19  and  O_20
REMARK    9  A    between atoms: O_20  and  C_21
REMARK   10  A    between atoms: C_22  and  O_23
REMARK                            x       y       z     vdW  Elec       q    Type
REMARK                         _______ _______ _______ _____ _____    ______ ____
ROOT
ATOM      1  C   UNL     1       6.879   4.668  13.447  0.00  0.00    +0.000 A 
ATOM      2  C   UNL     1       7.418   5.046  14.694  0.00  0.00    +0.000 A 
ATOM      3  C   UNL     1       6.750   4.764  15.890  0.00  0.00    +0.000 A 
ATOM      4  C   UNL     1       5.530   4.101  15.833  0.00  0.00    +0.000 A 
ATOM      5  C   UNL     1       4.965   3.750  14.600  0.00  0.00    +0.000 A 
ATOM      6  C   UNL     1       5.641   4.009  13.405  0.00  0.00    +0.000 A 
ATOM      7  O   UNL     1       4.874   3.647  16.939  0.00  0.00    +0.000 OA
ATOM      8  C   UNL     1       5.165   4.290  18.199  0.00  0.00    +0.000 C 
ATOM      9  C   UNL     1       6.663   4.534  18.393  0.00  0.00    +0.000 C 
ATOM     10  C   UNL     1       7.364   5.162  17.196  0.00  0.00    +0.000 C 
ENDROOT
BRANCH   8  11
ATOM     11  C   UNL     1       4.101   5.356  18.424  0.00  0.00    +0.000 A 
ATOM     12  C   UNL     1       3.178   5.126  19.475  0.00  0.00    +0.000 A 
ATOM     13  C   UNL     1       2.090   5.973  19.680  0.00  0.00    +0.000 A 
ATOM     14  C   UNL     1       1.966   7.134  18.907  0.00  0.00    +0.000 A 
ATOM     15  C   UNL     1       2.932   7.461  17.952  0.00  0.00    +0.000 A 
ATOM     16  C   UNL     1       3.991   6.567  17.717  0.00  0.00    +0.000 A 
BRANCH  12  17
ATOM     17  O   UNL     1       3.568   4.244  20.457  0.00  0.00    +0.000 OA
ATOM     18  C   UNL     1       2.675   3.188  20.774  0.00  0.00    +0.000 C 
ENDBRANCH  12  17
BRANCH  15  19
ATOM     19  O   UNL     1       2.771   8.712  17.412  0.00  0.00    +0.000 OA
ATOM     20  C   UNL     1       1.725   9.529  17.921  0.00  0.00    +0.000 C 
ENDBRANCH  15  19
BRANCH  16  21
ATOM     21  O   UNL     1       5.023   6.934  16.902  0.00  0.00    +0.000 OA
ATOM     22  H   UNL     1       5.814   6.912  17.473  0.00  0.00    +0.000 HD
ENDBRANCH  16  21
ENDBRANCH   8  11
BRANCH   1  24
ATOM     23  C   UNL     1       8.705   5.952  12.598  0.00  0.00    +0.000 C 
ATOM     24  O   UNL     1       7.696   4.972  12.385  0.00  0.00    +0.000 OA
ENDBRANCH   1  24
BRANCH   6  25
ATOM     25  O   UNL     1       5.214   3.488  12.211  0.00  0.00    +0.000 OA
ATOM     26  C   UNL     1       5.802   2.269  11.780  0.00  0.00    +0.000 C 
ENDBRANCH   6  25
TORSDOF 6
ENDMDL
MODEL 4
REMARK VINA RESULT:      -6.3      1.815      6.647
REMARK  Name = 
REMARK  10 active torsions:
REMARK  status: ('A' for Active; 'I' for Inactive)
REMARK    1  A    between atoms: C_1  and  O_2
REMARK    2  A    between atoms: O_2  and  C_3
REMARK    3  A    between atoms: C_8  and  O_9
REMARK    4  A    between atoms: O_9  and  C_10
REMARK    5  A    between atoms: C_12  and  C_13
REMARK    6  A    between atoms: C_14  and  O_15
REMARK    7  A    between atoms: O_15  and  C_16
REMARK    8  A    between atoms: C_19  and  O_20
REMARK    9  A    between atoms: O_20  and  C_21
REMARK   10  A    between atoms: C_22  and  O_23
REMARK                            x       y       z     vdW  Elec       q    Type
REMARK                         _______ _______ _______ _____ _____    ______ ____
ROOT
ATOM      1  C   UNL     1       2.611   6.512  18.982  0.00  0.00    +0.000 A 
ATOM      2  C   UNL     1       2.756   7.689  18.219  0.00  0.00    +0.000 A 
ATOM      3  C   UNL     1       2.156   8.889  18.614  0.00  0.00    +0.000 A 
ATOM      4  C   UNL     1       1.401   8.907  19.780  0.00  0.00    +0.000 A 
ATOM      5  C   UNL     1       1.220   7.738  20.530  0.00  0.00    +0.000 A 
ATOM      6  C   UNL     1       1.837   6.543  20.152  0.00  0.00    +0.000 A 
ATOM      7  O   UNL     1       0.903  10.051  20.331  0.00  0.00    +0.000 OA
ATOM      8  C   UNL     1       0.705  11.182  19.455  0.00  0.00    +0.000 C 
ATOM      9  C   UNL     1       1.882  11.387  18.498  0.00  0.00    +0.000 C 
ATOM     10  C   UNL     1       2.350  10.124  17.789  0.00  0.00    +0.000 C 
ENDROOT
BRANCH   8  11
ATOM     11  C   UNL     1      -0.751  11.166  19.010  0.00  0.00    +0.000 A 
ATOM     12  C   UNL     1      -1.622  12.089  19.640  0.00  0.00    +0.000 A 
ATOM     13  C   UNL     1      -2.995  12.068  19.400  0.00  0.00    +0.000 A 
ATOM     14  C   UNL     1      -3.511  11.194  18.435  0.00  0.00    +0.000 A 
ATOM     15  C   UNL     1      -2.662  10.364  17.698  0.00  0.00    +0.000 A 
ATOM     16  C   UNL     1      -1.289  10.356  17.993  0.00  0.00    +0.000 A 
BRANCH  12  17
ATOM     17  O   UNL     1      -1.037  13.184  20.234  0.00  0.00    +0.000 OA
ATOM     18  C   UNL     1      -1.612  13.653  21.443  0.00  0.00    +0.000 C 
ENDBRANCH  12  17
BRANCH  15  19
ATOM     19  O   UNL     1      -3.291   9.709  16.669  0.00  0.00    +0.000 OA
ATOM     20  C   UNL     1      -3.206  10.272  15.367  0.00  0.00    +0.000 C 
ENDBRANCH  15  19
BRANCH  16  21
ATOM     21  O   UNL     1      -0.424   9.670  17.190  0.00  0.00    +0.000 OA
ATOM     22  H   UNL     1      -0.256   8.832  17.660  0.00  0.00    +0.000 HD
ENDBRANCH  16  21
ENDBRANCH   8  11
BRANCH   1  24
ATOM     23  C   UNL     1       4.654   5.276  18.928  0.00  0.00    +0.000 C 
ATOM     24  O   UNL     1       3.316   5.446  18.477  0.00  0.00    +0.000 OA
ENDBRANCH   1  24
BRANCH   6  25
ATOM     25  O   UNL     1       1.851   5.448  20.977  0.00  0.00    +0.000 OA
ATOM     26  C   UNL     1       1.101   4.312  20.571  0.00  0.00    +0.000 C 
ENDBRANCH   6  25
TORSDOF 6
ENDMDL
MODEL 5
REMARK VINA RESULT:      -6.2      3.378      6.357
REMARK  Name = 
REMARK  10 active torsions:
REMARK  status: ('A' for Active; 'I' for Inactive)
REMARK    1  A    between atoms: C_1  and  O_2
REMARK    2  A    between atoms: O_2  and  C_3
REMARK    3  A    between atoms: C_8  and  O_9
REMARK    4  A    between atoms: O_9  and  C_10
REMARK    5  A    between atoms: C_12  and  C_13
REMARK    6  A    between atoms: C_14  and  O_15
REMARK    7  A    between atoms: O_15  and  C_16
REMARK    8  A    between atoms: C_19  and  O_20
REMARK    9  A    between atoms: O_20  and  C_21
REMARK   10  A    between atoms: C_22  and  O_23
REMARK                            x       y       z     vdW  Elec       q    Type
REMARK                         _______ _______ _______ _____ _____    ______ ____
ROOT
ATOM      1  C   UNL     1       2.503   6.854  19.597  0.00  0.00    +0.000 A 
ATOM      2  C   UNL     1       1.638   7.591  20.431  0.00  0.00    +0.000 A 
ATOM      3  C   UNL     1       1.087   8.807  20.014  0.00  0.00    +0.000 A 
ATOM      4  C   UNL     1       1.411   9.289  18.752  0.00  0.00    +0.000 A 
ATOM      5  C   UNL     1       2.296   8.584  17.925  0.00  0.00    +0.000 A 
ATOM      6  C   UNL     1       2.829   7.358  18.329  0.00  0.00    +0.000 A 
ATOM      7  O   UNL     1       0.814  10.380  18.192  0.00  0.00    +0.000 OA
ATOM      8  C   UNL     1       0.223  11.349  19.085  0.00  0.00    +0.000 C 
ATOM      9  C   UNL     1      -0.571  10.688  20.214  0.00  0.00    +0.000 C 
ATOM     10  C   UNL     1       0.156   9.551  20.920  0.00  0.00    +0.000 C 
ENDROOT
BRANCH   8  11
ATOM     11  C   UNL     1       1.251  12.449  19.310  0.00  0.00    +0.000 A 
ATOM     12  C   UNL     1       1.177  13.151  20.539  0.00  0.00    +0.000 A 
ATOM     13  C   UNL     1       1.985  14.259  20.789  0.00  0.00    +0.000 A 
ATOM     14  C   UNL     1       2.967  14.619  19.857  0.00  0.00    +0.000 A 
ATOM     15  C   UNL     1       3.157  13.867  18.696  0.00  0.00    +0.000 A 
ATOM     16  C   UNL     1       2.296  12.788  18.431  0.00  0.00    +0.000 A 
BRANCH  12  17
ATOM     17  O   UNL     1       0.524  12.519  21.573  0.00  0.00    +0.000 OA
ATOM     18  C   UNL     1      -0.376  13.297  22.345  0.00  0.00    +0.000 C 
ENDBRANCH  12  17
BRANCH  15  19
ATOM     19  O   UNL     1       4.270  14.231  17.980  0.00  0.00    +0.000 OA
ATOM     20  C   UNL     1       5.212  15.094  18.604  0.00  0.00    +0.000 C 
ENDBRANCH  15  19
BRANCH  16  21
ATOM     21  O   UNL     1       2.556  11.951  17.385  0.00  0.00    +0.000 OA
ATOM     22  H   UNL     1       1.986  11.174  17.538  0.00  0.00    +0.000 HD
ENDBRANCH  16  21
ENDBRANCH   8  11
BRANCH   1  24
ATOM     23  C   UNL     1       1.880   4.770  20.585  0.00  0.00    +0.000 C 
ATOM     24  O   UNL     1       2.900   5.658  20.145  0.00  0.00    +0.000 OA
ENDBRANCH   1  24
BRANCH   6  25
ATOM     25  O   UNL     1       3.520   6.554  17.460  0.00  0.00    +0.000 OA
ATOM     26  C   UNL     1       4.933   6.696  17.418  0.00  0.00    +0.000 C 
ENDBRANCH   6  25
TORSDOF 6
ENDMDL
MODEL 6
REMARK VINA RESULT:      -6.0      8.023      9.876
REMARK  Name = 
REMARK  10 active torsions:
REMARK  status: ('A' for Active; 'I' for Inactive)
REMARK    1  A    between atoms: C_1  and  O_2
REMARK    2  A    between atoms: O_2  and  C_3
REMARK    3  A    between atoms: C_8  and  O_9
REMARK    4  A    between atoms: O_9  and  C_10
REMARK    5  A    between atoms: C_12  and  C_13
REMARK    6  A    between atoms: C_14  and  O_15
REMARK    7  A    between atoms: O_15  and  C_16
REMARK    8  A    between atoms: C_19  and  O_20
REMARK    9  A    between atoms: O_20  and  C_21
REMARK   10  A    between atoms: C_22  and  O_23
REMARK                            x       y       z     vdW  Elec       q    Type
REMARK                         _______ _______ _______ _____ _____    ______ ____
ROOT
ATOM      1  C   UNL     1       4.364  16.604  18.961  0.00  0.00    +0.000 A 
ATOM      2  C   UNL     1       5.687  17.007  19.235  0.00  0.00    +0.000 A 
ATOM      3  C   UNL     1       6.781  16.240  18.823  0.00  0.00    +0.000 A 
ATOM      4  C   UNL     1       6.545  15.057  18.134  0.00  0.00    +0.000 A 
ATOM      5  C   UNL     1       5.236  14.626  17.884  0.00  0.00    +0.000 A 
ATOM      6  C   UNL     1       4.141  15.402  18.273  0.00  0.00    +0.000 A 
ATOM      7  O   UNL     1       7.536  14.316  17.558  0.00  0.00    +0.000 OA
ATOM      8  C   UNL     1       8.871  14.462  18.088  0.00  0.00    +0.000 C 
ATOM      9  C   UNL     1       9.233  15.924  18.356  0.00  0.00    +0.000 C 
ATOM     10  C   UNL     1       8.172  16.711  19.114  0.00  0.00    +0.000 C 
ENDROOT
BRANCH   8  11
ATOM     11  C   UNL     1       9.086  13.342  19.097  0.00  0.00    +0.000 A 
ATOM     12  C   UNL     1       9.692  12.155  18.614  0.00  0.00    +0.000 A 
ATOM     13  C   UNL     1       9.815  11.025  19.422  0.00  0.00    +0.000 A 
ATOM     14  C   UNL     1       9.436  11.097  20.768  0.00  0.00    +0.000 A 
ATOM     15  C   UNL     1       8.959  12.293  21.311  0.00  0.00    +0.000 A 
ATOM     16  C   UNL     1       8.787  13.405  20.470  0.00  0.00    +0.000 A 
BRANCH  12  17
ATOM     17  O   UNL     1      10.425  12.263  17.454  0.00  0.00    +0.000 OA
ATOM     18  C   UNL     1      11.826  12.445  17.585  0.00  0.00    +0.000 C 
ENDBRANCH  12  17
BRANCH  15  19
ATOM     19  O   UNL     1       8.808  12.256  22.675  0.00  0.00    +0.000 OA
ATOM     20  C   UNL     1       7.555  11.835  23.196  0.00  0.00    +0.000 C 
ENDBRANCH  15  19
BRANCH  16  21
ATOM     21  O   UNL     1       8.468  14.620  21.005  0.00  0.00    +0.000 OA
ATOM     22  H   UNL     1       7.533  14.761  20.766  0.00  0.00    +0.000 HD
ENDBRANCH  16  21
ENDBRANCH   8  11
BRANCH   1  24
ATOM     23  C   UNL     1       3.500  17.946  20.738  0.00  0.00    +0.000 C 
ATOM     24  O   UNL     1       3.420  17.506  19.388  0.00  0.00    +0.000 OA
ENDBRANCH   1  24
BRANCH   6  25
ATOM     25  O   UNL     1       2.869  15.110  17.855  0.00  0.00    +0.000 OA
ATOM     26  C   UNL     1       2.353  13.825  18.171  0.00  0.00    +0.000 C 
ENDBRANCH   6  25
TORSDOF 6
ENDMDL
MODEL 7
REMARK VINA RESULT:      -6.0      2.481      7.258
REMARK  Name = 
REMARK  10 active torsions:
REMARK  status: ('A' for Active; 'I' for Inactive)
REMARK    1  A    between atoms: C_1  and  O_2
REMARK    2  A    between atoms: O_2  and  C_3
REMARK    3  A    between atoms: C_8  and  O_9
REMARK    4  A    between atoms: O_9  and  C_10
REMARK    5  A    between atoms: C_12  and  C_13
REMARK    6  A    between atoms: C_14  and  O_15
REMARK    7  A    between atoms: O_15  and  C_16
REMARK    8  A    between atoms: C_19  and  O_20
REMARK    9  A    between atoms: O_20  and  C_21
REMARK   10  A    between atoms: C_22  and  O_23
REMARK                            x       y       z     vdW  Elec       q    Type
REMARK                         _______ _______ _______ _____ _____    ______ ____
ROOT
ATOM      1  C   UNL     1       1.517   3.677  18.775  0.00  0.00    +0.000 A 
ATOM      2  C   UNL     1       2.005   4.696  17.933  0.00  0.00    +0.000 A 
ATOM      3  C   UNL     1       2.203   5.997  18.405  0.00  0.00    +0.000 A 
ATOM      4  C   UNL     1       1.905   6.279  19.732  0.00  0.00    +0.000 A 
ATOM      5  C   UNL     1       1.387   5.285  20.573  0.00  0.00    +0.000 A 
ATOM      6  C   UNL     1       1.210   3.979  20.111  0.00  0.00    +0.000 A 
ATOM      7  O   UNL     1       2.202   7.468  20.330  0.00  0.00    +0.000 OA
ATOM      8  C   UNL     1       2.354   8.623  19.477  0.00  0.00    +0.000 C 
ATOM      9  C   UNL     1       3.168   8.313  18.219  0.00  0.00    +0.000 C 
ATOM     10  C   UNL     1       2.744   7.048  17.485  0.00  0.00    +0.000 C 
ENDROOT
BRANCH   8  11
ATOM     11  C   UNL     1       1.019   9.355  19.458  0.00  0.00    +0.000 A 
ATOM     12  C   UNL     1       0.470   9.717  20.714  0.00  0.00    +0.000 A 
ATOM     13  C   UNL     1      -0.804  10.272  20.815  0.00  0.00    +0.000 A 
ATOM     14  C   UNL     1      -1.513  10.582  19.647  0.00  0.00    +0.000 A 
ATOM     15  C   UNL     1      -0.946  10.362  18.390  0.00  0.00    +0.000 A 
ATOM     16  C   UNL     1       0.315   9.749  18.306  0.00  0.00    +0.000 A 
BRANCH  12  17
ATOM     17  O   UNL     1       1.349   9.796  21.772  0.00  0.00    +0.000 OA
ATOM     18  C   UNL     1       0.868   9.399  23.046  0.00  0.00    +0.000 C 
ENDBRANCH  12  17
BRANCH  15  19
ATOM     19  O   UNL     1      -1.681  10.887  17.356  0.00  0.00    +0.000 OA
ATOM     20  C   UNL     1      -2.553  10.016  16.648  0.00  0.00    +0.000 C 
ENDBRANCH  15  19
BRANCH  16  21
ATOM     21  O   UNL     1       0.951   9.663  17.101  0.00  0.00    +0.000 OA
ATOM     22  H   UNL     1       1.602   8.944  17.212  0.00  0.00    +0.000 HD
ENDBRANCH  16  21
ENDBRANCH   8  11
BRANCH   1  24
ATOM     23  C   UNL     1       2.662   1.760  17.927  0.00  0.00    +0.000 C 
ATOM     24  O   UNL     1       1.440   2.451  18.160  0.00  0.00    +0.000 OA
ENDBRANCH   1  24
BRANCH   6  25
ATOM     25  O   UNL     1       0.910   2.949  20.965  0.00  0.00    +0.000 OA
ATOM     26  C   UNL     1       1.968   2.419  21.750  0.00  0.00    +0.000 C 
ENDBRANCH   6  25
TORSDOF 6
ENDMDL
MODEL 8
REMARK VINA RESULT:      -5.9      3.594      6.749
REMARK  Name = 
REMARK  10 active torsions:
REMARK  status: ('A' for Active; 'I' for Inactive)
REMARK    1  A    between atoms: C_1  and  O_2
REMARK    2  A    between atoms: O_2  and  C_3
REMARK    3  A    between atoms: C_8  and  O_9
REMARK    4  A    between atoms: O_9  and  C_10
REMARK    5  A    between atoms: C_12  and  C_13
REMARK    6  A    between atoms: C_14  and  O_15
REMARK    7  A    between atoms: O_15  and  C_16
REMARK    8  A    between atoms: C_19  and  O_20
REMARK    9  A    between atoms: O_20  and  C_21
REMARK   10  A    between atoms: C_22  and  O_23
REMARK                            x       y       z     vdW  Elec       q    Type
REMARK                         _______ _______ _______ _____ _____    ______ ____
ROOT
ATOM      1  C   UNL     1       1.054  10.256  20.746  0.00  0.00    +0.000 A 
ATOM      2  C   UNL     1       1.164   9.909  19.384  0.00  0.00    +0.000 A 
ATOM      3  C   UNL     1       1.553   8.625  18.989  0.00  0.00    +0.000 A 
ATOM      4  C   UNL     1       1.839   7.683  19.970  0.00  0.00    +0.000 A 
ATOM      5  C   UNL     1       1.767   8.022  21.327  0.00  0.00    +0.000 A 
ATOM      6  C   UNL     1       1.355   9.296  21.725  0.00  0.00    +0.000 A 
ATOM      7  O   UNL     1       2.078   6.368  19.696  0.00  0.00    +0.000 OA
ATOM      8  C   UNL     1       2.549   6.038  18.372  0.00  0.00    +0.000 C 
ATOM      9  C   UNL     1       1.790   6.795  17.280  0.00  0.00    +0.000 C 
ATOM     10  C   UNL     1       1.638   8.289  17.533  0.00  0.00    +0.000 C 
ENDROOT
BRANCH   8  11
ATOM     11  C   UNL     1       4.068   5.950  18.436  0.00  0.00    +0.000 A 
ATOM     12  C   UNL     1       4.616   4.996  19.330  0.00  0.00    +0.000 A 
ATOM     13  C   UNL     1       5.989   4.925  19.560  0.00  0.00    +0.000 A 
ATOM     14  C   UNL     1       6.854   5.734  18.813  0.00  0.00    +0.000 A 
ATOM     15  C   UNL     1       6.357   6.590  17.828  0.00  0.00    +0.000 A 
ATOM     16  C   UNL     1       4.967   6.692  17.649  0.00  0.00    +0.000 A 
BRANCH  12  17
ATOM     17  O   UNL     1       3.793   3.958  19.705  0.00  0.00    +0.000 OA
ATOM     18  C   UNL     1       4.371   2.664  19.777  0.00  0.00    +0.000 C 
ENDBRANCH  12  17
BRANCH  15  19
ATOM     19  O   UNL     1       7.334   7.173  17.061  0.00  0.00    +0.000 OA
ATOM     20  C   UNL     1       7.961   8.348  17.557  0.00  0.00    +0.000 C 
ENDBRANCH  15  19
BRANCH  16  21
ATOM     21  O   UNL     1       4.467   7.404  16.597  0.00  0.00    +0.000 OA
ATOM     22  H   UNL     1       3.878   6.782  16.130  0.00  0.00    +0.000 HD
ENDBRANCH  16  21
ENDBRANCH   8  11
BRANCH   1  24
ATOM     23  C   UNL     1      -0.613  11.910  20.312  0.00  0.00    +0.000 C 
ATOM     24  O   UNL     1       0.603  11.537  20.948  0.00  0.00    +0.000 OA
ENDBRANCH   1  24
BRANCH   6  25
ATOM     25  O   UNL     1       1.073   9.584  23.035  0.00  0.00    +0.000 OA
ATOM     26  C   UNL     1      -0.290   9.552  23.435  0.00  0.00    +0.000 C 
ENDBRANCH   6  25
TORSDOF 6
ENDMDL
MODEL 9
REMARK VINA RESULT:      -5.9      3.053      5.516
REMARK  Name = 
REMARK  10 active torsions:
REMARK  status: ('A' for Active; 'I' for Inactive)
REMARK    1  A    between atoms: C_1  and  O_2
REMARK    2  A    between atoms: O_2  and  C_3
REMARK    3  A    between atoms: C_8  and  O_9
REMARK    4  A    between atoms: O_9  and  C_10
REMARK    5  A    between atoms: C_12  and  C_13
REMARK    6  A    between atoms: C_14  and  O_15
REMARK    7  A    between atoms: O_15  and  C_16
REMARK    8  A    between atoms: C_19  and  O_20
REMARK    9  A    between atoms: O_20  and  C_21
REMARK   10  A    between atoms: C_22  and  O_23
REMARK                            x       y       z     vdW  Elec       q    Type
REMARK                         _______ _______ _______ _____ _____    ______ ____
ROOT
ATOM      1  C   UNL     1       2.370  15.288  19.095  0.00  0.00    +0.000 A 
ATOM      2  C   UNL     1       1.240  14.638  18.560  0.00  0.00    +0.000 A 
ATOM      3  C   UNL     1       0.657  13.543  19.207  0.00  0.00    +0.000 A 
ATOM      4  C   UNL     1       1.217  13.095  20.398  0.00  0.00    +0.000 A 
ATOM      5  C   UNL     1       2.360  13.710  20.924  0.00  0.00    +0.000 A 
ATOM      6  C   UNL     1       2.931  14.818  20.293  0.00  0.00    +0.000 A 
ATOM      7  O   UNL     1       0.641  12.139  21.182  0.00  0.00    +0.000 OA
ATOM      8  C   UNL     1      -0.271  11.216  20.548  0.00  0.00    +0.000 C 
ATOM      9  C   UNL     1      -1.226  11.918  19.580  0.00  0.00    +0.000 C 
ATOM     10  C   UNL     1      -0.556  12.891  18.620  0.00  0.00    +0.000 C 
ENDROOT
BRANCH   8  11
ATOM     11  C   UNL     1       0.521   9.965  20.192  0.00  0.00    +0.000 A 
ATOM     12  C   UNL     1       0.581   8.946  21.175  0.00  0.00    +0.000 A 
ATOM     13  C   UNL     1       1.384   7.820  21.002  0.00  0.00    +0.000 A 
ATOM     14  C   UNL     1       2.057   7.635  19.787  0.00  0.00    +0.000 A 
ATOM     15  C   UNL     1       1.913   8.555  18.746  0.00  0.00    +0.000 A 
ATOM     16  C   UNL     1       1.146   9.713  18.957  0.00  0.00    +0.000 A 
BRANCH  12  17
ATOM     17  O   UNL     1      -0.405   8.956  22.136  0.00  0.00    +0.000 OA
ATOM     18  C   UNL     1      -0.060   9.462  23.416  0.00  0.00    +0.000 C 
ENDBRANCH  12  17
BRANCH  15  19
ATOM     19  O   UNL     1       2.480   8.143  17.566  0.00  0.00    +0.000 OA
ATOM     20  C   UNL     1       3.570   7.233  17.631  0.00  0.00    +0.000 C 
ENDBRANCH  15  19
BRANCH  16  21
ATOM     21  O   UNL     1       0.869  10.546  17.912  0.00  0.00    +0.000 OA
ATOM     22  H   UNL     1       0.296  11.239  18.289  0.00  0.00    +0.000 HD
ENDBRANCH  16  21
ENDBRANCH   8  11
BRANCH   1  24
ATOM     23  C   UNL     1       3.572  16.129  17.210  0.00  0.00    +0.000 C 
ATOM     24  O   UNL     1       2.771  16.377  18.359  0.00  0.00    +0.000 OA
ENDBRANCH   1  24
BRANCH   6  25
ATOM     25  O   UNL     1       3.911  15.563  20.895  0.00  0.00    +0.000 OA
ATOM     26  C   UNL     1       5.257  15.149  20.707  0.00  0.00    +0.000 C 
ENDBRANCH   6  25
TORSDOF 6
ENDMDL
