MODEL 1
REMARK VINA RESULT:      -8.1      0.000      0.000
REMARK  Name = 
REMARK  9 active torsions:
REMARK  status: ('A' for Active; 'I' for Inactive)
REMARK    1  A    between atoms: C_1  and  O_2
REMARK    2  A    between atoms: O_2  and  C_3
REMARK    3  A    between atoms: C_6  and  O_7
REMARK    4  A    between atoms: O_7  and  C_8
REMARK    5  A    between atoms: C_16  and  C_17
REMARK    6  A    between atoms: C_20  and  N_21
REMARK    7  A    between atoms: N_21  and  C_22
REMARK    8  A    between atoms: N_21  and  C_23
REMARK    9  A    between atoms: C_27  and  C_28
REMARK                            x       y       z     vdW  Elec       q    Type
REMARK                         _______ _______ _______ _____ _____    ______ ____
ROOT
ATOM      1  C   UNL     1      -1.866  15.055  24.856  0.00  0.00    +0.000 A 
ATOM      2  C   UNL     1      -3.047  15.792  25.014  0.00  0.00    +0.000 A 
ATOM      3  C   UNL     1      -4.138  15.597  24.173  0.00  0.00    +0.000 A 
ATOM      4  C   UNL     1      -4.088  14.685  23.113  0.00  0.00    +0.000 A 
ATOM      5  C   UNL     1      -2.885  13.965  22.936  0.00  0.00    +0.000 A 
ATOM      6  S   UNL     1      -2.468  12.827  21.694  0.00  0.00    +0.000 S 
ATOM      7  C   UNL     1      -0.975  12.536  22.462  0.00  0.00    +0.000 A 
ATOM      8  N   UNL     1      -0.144  11.594  21.915  0.00  0.00    +0.000 N 
ATOM      9  C   UNL     1      -0.207  10.290  22.324  0.00  0.00    +0.000 C 
ATOM     10  O   UNL     1      -0.774   9.767  23.265  0.00  0.00    +0.000 OA
ATOM     11  C   UNL     1       0.561   9.592  21.242  0.00  0.00    +0.000 C 
ATOM     12  C   UNL     1       0.862   8.288  21.276  0.00  0.00    +0.000 C 
ATOM     13  N   UNL     1       0.917  10.495  20.265  0.00  0.00    +0.000 NA
ATOM     14  C   UNL     1       0.486  11.643  20.704  0.00  0.00    +0.000 C 
ATOM     15  N   UNL     1      -0.716  13.257  23.525  0.00  0.00    +0.000 NA
ATOM     16  C   UNL     1      -1.792  14.104  23.801  0.00  0.00    +0.000 A 
ENDROOT
BRANCH  12  17
ATOM     17  C   UNL     1       1.696   7.638  20.258  0.00  0.00    +0.000 A 
ATOM     18  C   UNL     1       1.994   8.297  19.067  0.00  0.00    +0.000 A 
ATOM     19  C   UNL     1       2.766   7.667  18.072  0.00  0.00    +0.000 A 
ATOM     20  C   UNL     1       3.282   6.367  18.221  0.00  0.00    +0.000 A 
ATOM     21  C   UNL     1       2.953   5.730  19.430  0.00  0.00    +0.000 A 
ATOM     22  C   UNL     1       2.178   6.345  20.431  0.00  0.00    +0.000 A 
BRANCH  20  23
ATOM     23  N   UNL     1       4.020   5.749  17.220  0.00  0.00    +0.000 N 
ATOM     24  C   UNL     1       4.976   6.489  16.396  0.00  0.00    +0.000 C 
ATOM     25  C   UNL     1       4.167   4.298  17.129  0.00  0.00    +0.000 C 
ENDBRANCH  20  23
ENDBRANCH  12  17
BRANCH  14  26
ATOM     26  C   UNL     1       0.757  12.895  19.967  0.00  0.00    +0.000 A 
ATOM     27  C   UNL     1       1.875  13.665  20.322  0.00  0.00    +0.000 A 
ATOM     28  C   UNL     1       2.087  14.902  19.728  0.00  0.00    +0.000 A 
ATOM     29  C   UNL     1       1.182  15.387  18.778  0.00  0.00    +0.000 A 
ATOM     30  C   UNL     1       0.067  14.628  18.430  0.00  0.00    +0.000 A 
ATOM     31  C   UNL     1      -0.155  13.388  19.028  0.00  0.00    +0.000 A 
ENDBRANCH  14  26
BRANCH   1  33
ATOM     32  C   UNL     1      -0.826  16.324  26.569  0.00  0.00    +0.000 C 
ATOM     33  O   UNL     1      -0.755  15.245  25.642  0.00  0.00    +0.000 OA
ENDBRANCH   1  33
BRANCH   4  34
ATOM     34  O   UNL     1      -5.118  14.453  22.241  0.00  0.00    +0.000 OA
ATOM     35  C   UNL     1      -6.282  13.825  22.768  0.00  0.00    +0.000 C 
ENDBRANCH   4  34
TORSDOF 5
ENDMDL
MODEL 2
REMARK VINA RESULT:      -8.0      2.834      3.844
REMARK  Name = 
REMARK  9 active torsions:
REMARK  status: ('A' for Active; 'I' for Inactive)
REMARK    1  A    between atoms: C_1  and  O_2
REMARK    2  A    between atoms: O_2  and  C_3
REMARK    3  A    between atoms: C_6  and  O_7
REMARK    4  A    between atoms: O_7  and  C_8
REMARK    5  A    between atoms: C_16  and  C_17
REMARK    6  A    between atoms: C_20  and  N_21
REMARK    7  A    between atoms: N_21  and  C_22
REMARK    8  A    between atoms: N_21  and  C_23
REMARK    9  A    between atoms: C_27  and  C_28
REMARK                            x       y       z     vdW  Elec       q    Type
REMARK                         _______ _______ _______ _____ _____    ______ ____
ROOT
ATOM      1  C   UNL     1      -1.411  16.200  19.991  0.00  0.00    +0.000 A 
ATOM      2  C   UNL     1      -2.305  17.047  20.659  0.00  0.00    +0.000 A 
ATOM      3  C   UNL     1      -3.213  16.548  21.587  0.00  0.00    +0.000 A 
ATOM      4  C   UNL     1      -3.298  15.178  21.862  0.00  0.00    +0.000 A 
ATOM      5  C   UNL     1      -2.417  14.323  21.164  0.00  0.00    +0.000 A 
ATOM      6  S   UNL     1      -2.311  12.592  21.213  0.00  0.00    +0.000 S 
ATOM      7  C   UNL     1      -0.963  12.645  20.171  0.00  0.00    +0.000 A 
ATOM      8  N   UNL     1      -0.348  11.462  19.855  0.00  0.00    +0.000 N 
ATOM      9  C   UNL     1       0.696  11.000  20.607  0.00  0.00    +0.000 C 
ATOM     10  O   UNL     1       1.365  11.533  21.472  0.00  0.00    +0.000 OA
ATOM     11  C   UNL     1       0.790   9.573  20.156  0.00  0.00    +0.000 C 
ATOM     12  C   UNL     1       1.761   8.739  20.548  0.00  0.00    +0.000 C 
ATOM     13  N   UNL     1      -0.235   9.291  19.280  0.00  0.00    +0.000 NA
ATOM     14  C   UNL     1      -0.865  10.422  19.137  0.00  0.00    +0.000 C 
ATOM     15  N   UNL     1      -0.618  13.828  19.726  0.00  0.00    +0.000 NA
ATOM     16  C   UNL     1      -1.457  14.805  20.264  0.00  0.00    +0.000 A 
ENDROOT
BRANCH  12  17
ATOM     17  C   UNL     1       1.894   7.373  20.025  0.00  0.00    +0.000 A 
ATOM     18  C   UNL     1       2.428   7.154  18.758  0.00  0.00    +0.000 A 
ATOM     19  C   UNL     1       2.529   5.849  18.236  0.00  0.00    +0.000 A 
ATOM     20  C   UNL     1       2.117   4.712  18.954  0.00  0.00    +0.000 A 
ATOM     21  C   UNL     1       1.575   4.972  20.225  0.00  0.00    +0.000 A 
ATOM     22  C   UNL     1       1.462   6.271  20.756  0.00  0.00    +0.000 A 
BRANCH  20  23
ATOM     23  N   UNL     1       2.199   3.434  18.417  0.00  0.00    +0.000 N 
ATOM     24  C   UNL     1       3.391   2.969  17.707  0.00  0.00    +0.000 C 
ATOM     25  C   UNL     1       1.285   2.359  18.795  0.00  0.00    +0.000 C 
ENDBRANCH  20  23
ENDBRANCH  12  17
BRANCH  14  26
ATOM     26  C   UNL     1      -1.993  10.556  18.190  0.00  0.00    +0.000 A 
ATOM     27  C   UNL     1      -1.877   9.991  16.911  0.00  0.00    +0.000 A 
ATOM     28  C   UNL     1      -2.870  10.202  15.963  0.00  0.00    +0.000 A 
ATOM     29  C   UNL     1      -3.986  10.983  16.280  0.00  0.00    +0.000 A 
ATOM     30  C   UNL     1      -4.100  11.551  17.547  0.00  0.00    +0.000 A 
ATOM     31  C   UNL     1      -3.102  11.348  18.500  0.00  0.00    +0.000 A 
ENDBRANCH  14  26
BRANCH   1  33
ATOM     32  C   UNL     1      -0.992  17.701  18.202  0.00  0.00    +0.000 C 
ATOM     33  O   UNL     1      -0.525  16.648  19.040  0.00  0.00    +0.000 OA
ENDBRANCH   1  33
BRANCH   4  34
ATOM     34  O   UNL     1      -4.176  14.620  22.754  0.00  0.00    +0.000 OA
ATOM     35  C   UNL     1      -4.059  15.020  24.114  0.00  0.00    +0.000 C 
ENDBRANCH   4  34
TORSDOF 5
ENDMDL
MODEL 3
REMARK VINA RESULT:      -7.9      2.819      3.896
REMARK  Name = 
REMARK  9 active torsions:
REMARK  status: ('A' for Active; 'I' for Inactive)
REMARK    1  A    between atoms: C_1  and  O_2
REMARK    2  A    between atoms: O_2  and  C_3
REMARK    3  A    between atoms: C_6  and  O_7
REMARK    4  A    between atoms: O_7  and  C_8
REMARK    5  A    between atoms: C_16  and  C_17
REMARK    6  A    between atoms: C_20  and  N_21
REMARK    7  A    between atoms: N_21  and  C_22
REMARK    8  A    between atoms: N_21  and  C_23
REMARK    9  A    between atoms: C_27  and  C_28
REMARK                            x       y       z     vdW  Elec       q    Type
REMARK                         _______ _______ _______ _____ _____    ______ ____
ROOT
ATOM      1  C   UNL     1      -1.513  16.391  20.073  0.00  0.00    +0.000 A 
ATOM      2  C   UNL     1      -2.447  17.213  20.717  0.00  0.00    +0.000 A 
ATOM      3  C   UNL     1      -3.399  16.682  21.582  0.00  0.00    +0.000 A 
ATOM      4  C   UNL     1      -3.489  15.305  21.812  0.00  0.00    +0.000 A 
ATOM      5  C   UNL     1      -2.566  14.475  21.137  0.00  0.00    +0.000 A 
ATOM      6  S   UNL     1      -2.450  12.744  21.142  0.00  0.00    +0.000 S 
ATOM      7  C   UNL     1      -1.050  12.835  20.175  0.00  0.00    +0.000 A 
ATOM      8  N   UNL     1      -0.411  11.665  19.858  0.00  0.00    +0.000 N 
ATOM      9  C   UNL     1       0.596  11.187  20.650  0.00  0.00    +0.000 C 
ATOM     10  O   UNL     1       1.215  11.699  21.564  0.00  0.00    +0.000 OA
ATOM     11  C   UNL     1       0.723   9.774  20.165  0.00  0.00    +0.000 C 
ATOM     12  C   UNL     1       1.678   8.934  20.583  0.00  0.00    +0.000 C 
ATOM     13  N   UNL     1      -0.252   9.512  19.228  0.00  0.00    +0.000 NA
ATOM     14  C   UNL     1      -0.882  10.644  19.084  0.00  0.00    +0.000 C 
ATOM     15  N   UNL     1      -0.690  14.032  19.782  0.00  0.00    +0.000 NA
ATOM     16  C   UNL     1      -1.563  14.989  20.304  0.00  0.00    +0.000 A 
ENDROOT
BRANCH  12  17
ATOM     17  C   UNL     1       1.849   7.586  20.029  0.00  0.00    +0.000 A 
ATOM     18  C   UNL     1       1.497   6.466  20.780  0.00  0.00    +0.000 A 
ATOM     19  C   UNL     1       1.688   5.168  20.268  0.00  0.00    +0.000 A 
ATOM     20  C   UNL     1       2.223   4.928  18.990  0.00  0.00    +0.000 A 
ATOM     21  C   UNL     1       2.575   6.080  18.264  0.00  0.00    +0.000 A 
ATOM     22  C   UNL     1       2.395   7.383  18.766  0.00  0.00    +0.000 A 
BRANCH  20  23
ATOM     23  N   UNL     1       2.430   3.642  18.508  0.00  0.00    +0.000 N 
ATOM     24  C   UNL     1       1.415   2.596  18.638  0.00  0.00    +0.000 C 
ATOM     25  C   UNL     1       3.490   3.317  17.557  0.00  0.00    +0.000 C 
ENDBRANCH  20  23
ENDBRANCH  12  17
BRANCH  14  26
ATOM     26  C   UNL     1      -1.959  10.798  18.083  0.00  0.00    +0.000 A 
ATOM     27  C   UNL     1      -3.148  11.441  18.458  0.00  0.00    +0.000 A 
ATOM     28  C   UNL     1      -4.220  11.496  17.576  0.00  0.00    +0.000 A 
ATOM     29  C   UNL     1      -4.117  10.903  16.313  0.00  0.00    +0.000 A 
ATOM     30  C   UNL     1      -2.941  10.257  15.942  0.00  0.00    +0.000 A 
ATOM     31  C   UNL     1      -1.864  10.193  16.826  0.00  0.00    +0.000 A 
ENDBRANCH  14  26
BRANCH   1  33
ATOM     32  C   UNL     1      -1.066  17.794  18.213  0.00  0.00    +0.000 C 
ATOM     33  O   UNL     1      -0.581  16.872  19.184  0.00  0.00    +0.000 OA
ENDBRANCH   1  33
BRANCH   4  34
ATOM     34  O   UNL     1      -4.408  14.716  22.640  0.00  0.00    +0.000 OA
ATOM     35  C   UNL     1      -4.197  14.850  24.041  0.00  0.00    +0.000 C 
ENDBRANCH   4  34
TORSDOF 5
ENDMDL
MODEL 4
REMARK VINA RESULT:      -7.8      2.885      3.994
REMARK  Name = 
REMARK  9 active torsions:
REMARK  status: ('A' for Active; 'I' for Inactive)
REMARK    1  A    between atoms: C_1  and  O_2
REMARK    2  A    between atoms: O_2  and  C_3
REMARK    3  A    between atoms: C_6  and  O_7
REMARK    4  A    between atoms: O_7  and  C_8
REMARK    5  A    between atoms: C_16  and  C_17
REMARK    6  A    between atoms: C_20  and  N_21
REMARK    7  A    between atoms: N_21  and  C_22
REMARK    8  A    between atoms: N_21  and  C_23
REMARK    9  A    between atoms: C_27  and  C_28
REMARK                            x       y       z     vdW  Elec       q    Type
REMARK                         _______ _______ _______ _____ _____    ______ ____
ROOT
ATOM      1  C   UNL     1      -1.231  16.394  19.621  0.00  0.00    +0.000 A 
ATOM      2  C   UNL     1      -2.083  17.294  20.276  0.00  0.00    +0.000 A 
ATOM      3  C   UNL     1      -2.971  16.863  21.256  0.00  0.00    +0.000 A 
ATOM      4  C   UNL     1      -3.079  15.511  21.600  0.00  0.00    +0.000 A 
ATOM      5  C   UNL     1      -2.242  14.602  20.917  0.00  0.00    +0.000 A 
ATOM      6  S   UNL     1      -2.174  12.872  21.048  0.00  0.00    +0.000 S 
ATOM      7  C   UNL     1      -0.861  12.842  19.963  0.00  0.00    +0.000 A 
ATOM      8  N   UNL     1      -0.284  11.630  19.685  0.00  0.00    +0.000 N 
ATOM      9  C   UNL     1       0.773  11.178  20.425  0.00  0.00    +0.000 C 
ATOM     10  O   UNL     1       1.482  11.737  21.242  0.00  0.00    +0.000 OA
ATOM     11  C   UNL     1       0.818   9.730  20.043  0.00  0.00    +0.000 C 
ATOM     12  C   UNL     1       1.782   8.891  20.444  0.00  0.00    +0.000 C 
ATOM     13  N   UNL     1      -0.241   9.432  19.215  0.00  0.00    +0.000 NA
ATOM     14  C   UNL     1      -0.849  10.570  19.036  0.00  0.00    +0.000 C 
ATOM     15  N   UNL     1      -0.503  13.993  19.448  0.00  0.00    +0.000 NA
ATOM     16  C   UNL     1      -1.301  15.016  19.965  0.00  0.00    +0.000 A 
ENDROOT
BRANCH  12  17
ATOM     17  C   UNL     1       1.866   7.500  19.985  0.00  0.00    +0.000 A 
ATOM     18  C   UNL     1       1.468   6.458  20.820  0.00  0.00    +0.000 A 
ATOM     19  C   UNL     1       1.576   5.118  20.399  0.00  0.00    +0.000 A 
ATOM     20  C   UNL     1       2.072   4.759  19.132  0.00  0.00    +0.000 A 
ATOM     21  C   UNL     1       2.473   5.835  18.321  0.00  0.00    +0.000 A 
ATOM     22  C   UNL     1       2.376   7.178  18.732  0.00  0.00    +0.000 A 
BRANCH  20  23
ATOM     23  N   UNL     1       2.197   3.432  18.740  0.00  0.00    +0.000 N 
ATOM     24  C   UNL     1       1.135   2.455  18.973  0.00  0.00    +0.000 C 
ATOM     25  C   UNL     1       3.210   2.984  17.788  0.00  0.00    +0.000 C 
ENDBRANCH  20  23
ENDBRANCH  12  17
BRANCH  14  26
ATOM     26  C   UNL     1      -2.004  10.685  18.120  0.00  0.00    +0.000 A 
ATOM     27  C   UNL     1      -1.855  10.282  16.785  0.00  0.00    +0.000 A 
ATOM     28  C   UNL     1      -2.884  10.489  15.875  0.00  0.00    +0.000 A 
ATOM     29  C   UNL     1      -4.070  11.105  16.288  0.00  0.00    +0.000 A 
ATOM     30  C   UNL     1      -4.217  11.512  17.612  0.00  0.00    +0.000 A 
ATOM     31  C   UNL     1      -3.185  11.314  18.528  0.00  0.00    +0.000 A 
ENDBRANCH  14  26
BRANCH   1  33
ATOM     32  C   UNL     1       0.645  17.703  18.997  0.00  0.00    +0.000 C 
ATOM     33  O   UNL     1      -0.367  16.774  18.623  0.00  0.00    +0.000 OA
ENDBRANCH   1  33
BRANCH   4  34
ATOM     34  O   UNL     1      -3.940  15.019  22.545  0.00  0.00    +0.000 OA
ATOM     35  C   UNL     1      -5.305  14.878  22.167  0.00  0.00    +0.000 C 
ENDBRANCH   4  34
TORSDOF 5
ENDMDL
MODEL 5
REMARK VINA RESULT:      -7.7      4.125      7.670
REMARK  Name = 
REMARK  9 active torsions:
REMARK  status: ('A' for Active; 'I' for Inactive)
REMARK    1  A    between atoms: C_1  and  O_2
REMARK    2  A    between atoms: O_2  and  C_3
REMARK    3  A    between atoms: C_6  and  O_7
REMARK    4  A    between atoms: O_7  and  C_8
REMARK    5  A    between atoms: C_16  and  C_17
REMARK    6  A    between atoms: C_20  and  N_21
REMARK    7  A    between atoms: N_21  and  C_22
REMARK    8  A    between atoms: N_21  and  C_23
REMARK    9  A    between atoms: C_27  and  C_28
REMARK                            x       y       z     vdW  Elec       q    Type
REMARK                         _______ _______ _______ _____ _____    ______ ____
ROOT
ATOM      1  C   UNL     1      -3.327  11.145  16.745  0.00  0.00    +0.000 A 
ATOM      2  C   UNL     1      -4.721  11.013  16.725  0.00  0.00    +0.000 A 
ATOM      3  C   UNL     1      -5.504  11.465  17.782  0.00  0.00    +0.000 A 
ATOM      4  C   UNL     1      -4.929  12.033  18.925  0.00  0.00    +0.000 A 
ATOM      5  C   UNL     1      -3.521  12.136  18.957  0.00  0.00    +0.000 A 
ATOM      6  S   UNL     1      -2.498  12.715  20.234  0.00  0.00    +0.000 S 
ATOM      7  C   UNL     1      -1.134  12.512  19.234  0.00  0.00    +0.000 A 
ATOM      8  N   UNL     1       0.087  12.889  19.729  0.00  0.00    +0.000 N 
ATOM      9  C   UNL     1       0.561  14.154  19.519  0.00  0.00    +0.000 C 
ATOM     10  O   UNL     1       0.177  15.048  18.787  0.00  0.00    +0.000 OA
ATOM     11  C   UNL     1       1.681  14.231  20.512  0.00  0.00    +0.000 C 
ATOM     12  C   UNL     1       2.523  15.269  20.596  0.00  0.00    +0.000 C 
ATOM     13  N   UNL     1       1.712  13.082  21.271  0.00  0.00    +0.000 NA
ATOM     14  C   UNL     1       0.768  12.334  20.774  0.00  0.00    +0.000 C 
ATOM     15  N   UNL     1      -1.350  11.985  18.054  0.00  0.00    +0.000 NA
ATOM     16  C   UNL     1      -2.713  11.738  17.883  0.00  0.00    +0.000 A 
ENDROOT
BRANCH  12  17
ATOM     17  C   UNL     1       3.672  15.288  21.508  0.00  0.00    +0.000 A 
ATOM     18  C   UNL     1       4.892  14.740  21.117  0.00  0.00    +0.000 A 
ATOM     19  C   UNL     1       5.989  14.726  21.999  0.00  0.00    +0.000 A 
ATOM     20  C   UNL     1       5.927  15.264  23.297  0.00  0.00    +0.000 A 
ATOM     21  C   UNL     1       4.679  15.800  23.661  0.00  0.00    +0.000 A 
ATOM     22  C   UNL     1       3.571  15.815  22.792  0.00  0.00    +0.000 A 
BRANCH  20  23
ATOM     23  N   UNL     1       7.010  15.220  24.165  0.00  0.00    +0.000 N 
ATOM     24  C   UNL     1       6.896  15.636  25.563  0.00  0.00    +0.000 C 
ATOM     25  C   UNL     1       8.222  14.458  23.876  0.00  0.00    +0.000 C 
ENDBRANCH  20  23
ENDBRANCH  12  17
BRANCH  14  26
ATOM     26  C   UNL     1       0.541  10.959  21.268  0.00  0.00    +0.000 A 
ATOM     27  C   UNL     1       0.970   9.876  20.486  0.00  0.00    +0.000 A 
ATOM     28  C   UNL     1       0.665   8.576  20.868  0.00  0.00    +0.000 A 
ATOM     29  C   UNL     1      -0.077   8.344  22.031  0.00  0.00    +0.000 A 
ATOM     30  C   UNL     1      -0.511   9.418  22.805  0.00  0.00    +0.000 A 
ATOM     31  C   UNL     1      -0.213  10.726  22.423  0.00  0.00    +0.000 A 
ENDBRANCH  14  26
BRANCH   1  33
ATOM     32  C   UNL     1      -3.185  10.175  14.585  0.00  0.00    +0.000 C 
ATOM     33  O   UNL     1      -2.516  10.678  15.738  0.00  0.00    +0.000 OA
ENDBRANCH   1  33
BRANCH   4  34
ATOM     34  O   UNL     1      -5.639  12.486  20.005  0.00  0.00    +0.000 OA
ATOM     35  C   UNL     1      -6.690  11.655  20.485  0.00  0.00    +0.000 C 
ENDBRANCH   4  34
TORSDOF 5
ENDMDL
MODEL 6
REMARK VINA RESULT:      -7.6      1.024      1.613
REMARK  Name = 
REMARK  9 active torsions:
REMARK  status: ('A' for Active; 'I' for Inactive)
REMARK    1  A    between atoms: C_1  and  O_2
REMARK    2  A    between atoms: O_2  and  C_3
REMARK    3  A    between atoms: C_6  and  O_7
REMARK    4  A    between atoms: O_7  and  C_8
REMARK    5  A    between atoms: C_16  and  C_17
REMARK    6  A    between atoms: C_20  and  N_21
REMARK    7  A    between atoms: N_21  and  C_22
REMARK    8  A    between atoms: N_21  and  C_23
REMARK    9  A    between atoms: C_27  and  C_28
REMARK                            x       y       z     vdW  Elec       q    Type
REMARK                         _______ _______ _______ _____ _____    ______ ____
ROOT
ATOM      1  C   UNL     1      -1.456  15.323  24.314  0.00  0.00    +0.000 A 
ATOM      2  C   UNL     1      -2.498  16.257  24.251  0.00  0.00    +0.000 A 
ATOM      3  C   UNL     1      -3.444  16.215  23.232  0.00  0.00    +0.000 A 
ATOM      4  C   UNL     1      -3.372  15.264  22.208  0.00  0.00    +0.000 A 
ATOM      5  C   UNL     1      -2.302  14.342  22.257  0.00  0.00    +0.000 A 
ATOM      6  S   UNL     1      -1.883  13.098  21.122  0.00  0.00    +0.000 S 
ATOM      7  C   UNL     1      -0.620  12.589  22.147  0.00  0.00    +0.000 A 
ATOM      8  N   UNL     1       0.115  11.496  21.766  0.00  0.00    +0.000 N 
ATOM      9  C   UNL     1      -0.246  10.242  22.173  0.00  0.00    +0.000 C 
ATOM     10  O   UNL     1      -1.050   9.864  23.004  0.00  0.00    +0.000 OA
ATOM     11  C   UNL     1       0.563   9.378  21.253  0.00  0.00    +0.000 C 
ATOM     12  C   UNL     1       0.620   8.044  21.355  0.00  0.00    +0.000 C 
ATOM     13  N   UNL     1       1.235  10.163  20.344  0.00  0.00    +0.000 NA
ATOM     14  C   UNL     1       0.943  11.386  20.687  0.00  0.00    +0.000 C 
ATOM     15  N   UNL     1      -0.427  13.300  23.230  0.00  0.00    +0.000 NA
ATOM     16  C   UNL     1      -1.368  14.329  23.300  0.00  0.00    +0.000 A 
ENDROOT
BRANCH  12  17
ATOM     17  C   UNL     1       1.490   7.218  20.509  0.00  0.00    +0.000 A 
ATOM     18  C   UNL     1       1.675   5.868  20.795  0.00  0.00    +0.000 A 
ATOM     19  C   UNL     1       2.534   5.077  20.007  0.00  0.00    +0.000 A 
ATOM     20  C   UNL     1       3.233   5.589  18.899  0.00  0.00    +0.000 A 
ATOM     21  C   UNL     1       3.029   6.958  18.646  0.00  0.00    +0.000 A 
ATOM     22  C   UNL     1       2.179   7.761  19.429  0.00  0.00    +0.000 A 
BRANCH  20  23
ATOM     23  N   UNL     1       4.096   4.804  18.147  0.00  0.00    +0.000 N 
ATOM     24  C   UNL     1       4.300   3.385  18.436  0.00  0.00    +0.000 C 
ATOM     25  C   UNL     1       4.595   5.213  16.836  0.00  0.00    +0.000 C 
ENDBRANCH  20  23
ENDBRANCH  12  17
BRANCH  14  26
ATOM     26  C   UNL     1       1.553  12.542  19.995  0.00  0.00    +0.000 A 
ATOM     27  C   UNL     1       1.420  12.649  18.603  0.00  0.00    +0.000 A 
ATOM     28  C   UNL     1       2.081  13.658  17.914  0.00  0.00    +0.000 A 
ATOM     29  C   UNL     1       2.887  14.566  18.608  0.00  0.00    +0.000 A 
ATOM     30  C   UNL     1       3.027  14.458  19.989  0.00  0.00    +0.000 A 
ATOM     31  C   UNL     1       2.371  13.442  20.685  0.00  0.00    +0.000 A 
ENDBRANCH  14  26
BRANCH   1  33
ATOM     32  C   UNL     1      -0.863  15.925  26.530  0.00  0.00    +0.000 C 
ATOM     33  O   UNL     1      -0.481  15.353  25.283  0.00  0.00    +0.000 OA
ENDBRANCH   1  33
BRANCH   4  34
ATOM     34  O   UNL     1      -4.261  15.174  21.170  0.00  0.00    +0.000 OA
ATOM     35  C   UNL     1      -5.539  14.620  21.459  0.00  0.00    +0.000 C 
ENDBRANCH   4  34
TORSDOF 5
ENDMDL
MODEL 7
REMARK VINA RESULT:      -7.6      1.920      2.620
REMARK  Name = 
REMARK  9 active torsions:
REMARK  status: ('A' for Active; 'I' for Inactive)
REMARK    1  A    between atoms: C_1  and  O_2
REMARK    2  A    between atoms: O_2  and  C_3
REMARK    3  A    between atoms: C_6  and  O_7
REMARK    4  A    between atoms: O_7  and  C_8
REMARK    5  A    between atoms: C_16  and  C_17
REMARK    6  A    between atoms: C_20  and  N_21
REMARK    7  A    between atoms: N_21  and  C_22
REMARK    8  A    between atoms: N_21  and  C_23
REMARK    9  A    between atoms: C_27  and  C_28
REMARK                            x       y       z     vdW  Elec       q    Type
REMARK                         _______ _______ _______ _____ _____    ______ ____
ROOT
ATOM      1  C   UNL     1      -1.051  14.773  23.641  0.00  0.00    +0.000 A 
ATOM      2  C   UNL     1      -2.127  15.348  24.329  0.00  0.00    +0.000 A 
ATOM      3  C   UNL     1      -3.286  14.625  24.589  0.00  0.00    +0.000 A 
ATOM      4  C   UNL     1      -3.441  13.308  24.141  0.00  0.00    +0.000 A 
ATOM      5  C   UNL     1      -2.366  12.740  23.420  0.00  0.00    +0.000 A 
ATOM      6  S   UNL     1      -2.261  11.179  22.670  0.00  0.00    +0.000 S 
ATOM      7  C   UNL     1      -0.644  11.497  22.236  0.00  0.00    +0.000 A 
ATOM      8  N   UNL     1       0.056  10.508  21.595  0.00  0.00    +0.000 N 
ATOM      9  C   UNL     1       0.795   9.607  22.310  0.00  0.00    +0.000 C 
ATOM     10  O   UNL     1       1.131   9.587  23.480  0.00  0.00    +0.000 OA
ATOM     11  C   UNL     1       1.051   8.541  21.288  0.00  0.00    +0.000 C 
ATOM     12  C   UNL     1       1.847   7.487  21.506  0.00  0.00    +0.000 C 
ATOM     13  N   UNL     1       0.381   8.841  20.123  0.00  0.00    +0.000 NA
ATOM     14  C   UNL     1      -0.180   9.994  20.353  0.00  0.00    +0.000 C 
ATOM     15  N   UNL     1      -0.185  12.688  22.532  0.00  0.00    +0.000 NA
ATOM     16  C   UNL     1      -1.168  13.429  23.191  0.00  0.00    +0.000 A 
ENDROOT
BRANCH  12  17
ATOM     17  C   UNL     1       2.164   6.502  20.465  0.00  0.00    +0.000 A 
ATOM     18  C   UNL     1       1.800   5.166  20.624  0.00  0.00    +0.000 A 
ATOM     19  C   UNL     1       2.129   4.210  19.644  0.00  0.00    +0.000 A 
ATOM     20  C   UNL     1       2.821   4.539  18.465  0.00  0.00    +0.000 A 
ATOM     21  C   UNL     1       3.181   5.893  18.342  0.00  0.00    +0.000 A 
ATOM     22  C   UNL     1       2.863   6.859  19.316  0.00  0.00    +0.000 A 
BRANCH  20  23
ATOM     23  N   UNL     1       3.162   3.581  17.520  0.00  0.00    +0.000 N 
ATOM     24  C   UNL     1       4.346   3.719  16.672  0.00  0.00    +0.000 C 
ATOM     25  C   UNL     1       2.596   2.234  17.521  0.00  0.00    +0.000 C 
ENDBRANCH  20  23
ENDBRANCH  12  17
BRANCH  14  26
ATOM     26  C   UNL     1      -0.929  10.705  19.295  0.00  0.00    +0.000 A 
ATOM     27  C   UNL     1      -1.957  10.031  18.620  0.00  0.00    +0.000 A 
ATOM     28  C   UNL     1      -2.597  10.633  17.544  0.00  0.00    +0.000 A 
ATOM     29  C   UNL     1      -2.213  11.913  17.128  0.00  0.00    +0.000 A 
ATOM     30  C   UNL     1      -1.188  12.581  17.793  0.00  0.00    +0.000 A 
ATOM     31  C   UNL     1      -0.537  11.979  18.869  0.00  0.00    +0.000 A 
ENDBRANCH  14  26
BRANCH   1  33
ATOM     32  C   UNL     1      -0.091  16.790  22.844  0.00  0.00    +0.000 C 
ATOM     33  O   UNL     1       0.096  15.466  23.332  0.00  0.00    +0.000 OA
ENDBRANCH   1  33
BRANCH   4  34
ATOM     34  O   UNL     1      -4.558  12.544  24.351  0.00  0.00    +0.000 OA
ATOM     35  C   UNL     1      -5.790  13.045  23.844  0.00  0.00    +0.000 C 
ENDBRANCH   4  34
TORSDOF 5
ENDMDL
MODEL 8
REMARK VINA RESULT:      -7.6      4.126      7.651
REMARK  Name = 
REMARK  9 active torsions:
REMARK  status: ('A' for Active; 'I' for Inactive)
REMARK    1  A    between atoms: C_1  and  O_2
REMARK    2  A    between atoms: O_2  and  C_3
REMARK    3  A    between atoms: C_6  and  O_7
REMARK    4  A    between atoms: O_7  and  C_8
REMARK    5  A    between atoms: C_16  and  C_17
REMARK    6  A    between atoms: C_20  and  N_21
REMARK    7  A    between atoms: N_21  and  C_22
REMARK    8  A    between atoms: N_21  and  C_23
REMARK    9  A    between atoms: C_27  and  C_28
REMARK                            x       y       z     vdW  Elec       q    Type
REMARK                         _______ _______ _______ _____ _____    ______ ____
ROOT
ATOM      1  C   UNL     1      -3.482  11.140  16.698  0.00  0.00    +0.000 A 
ATOM      2  C   UNL     1      -4.878  11.025  16.692  0.00  0.00    +0.000 A 
ATOM      3  C   UNL     1      -5.642  11.465  17.767  0.00  0.00    +0.000 A 
ATOM      4  C   UNL     1      -5.048  12.003  18.914  0.00  0.00    +0.000 A 
ATOM      5  C   UNL     1      -3.638  12.090  18.931  0.00  0.00    +0.000 A 
ATOM      6  S   UNL     1      -2.594  12.631  20.207  0.00  0.00    +0.000 S 
ATOM      7  C   UNL     1      -1.244  12.433  19.186  0.00  0.00    +0.000 A 
ATOM      8  N   UNL     1      -0.013  12.786  19.674  0.00  0.00    +0.000 N 
ATOM      9  C   UNL     1       0.473  14.050  19.484  0.00  0.00    +0.000 C 
ATOM     10  O   UNL     1       0.091  14.962  18.774  0.00  0.00    +0.000 OA
ATOM     11  C   UNL     1       1.605  14.094  20.465  0.00  0.00    +0.000 C 
ATOM     12  C   UNL     1       2.460  15.121  20.559  0.00  0.00    +0.000 C 
ATOM     13  N   UNL     1       1.632  12.930  21.200  0.00  0.00    +0.000 NA
ATOM     14  C   UNL     1       0.674  12.203  20.700  0.00  0.00    +0.000 C 
ATOM     15  N   UNL     1      -1.480  11.933  17.999  0.00  0.00    +0.000 NA
ATOM     16  C   UNL     1      -2.848  11.704  17.840  0.00  0.00    +0.000 A 
ENDROOT
BRANCH  12  17
ATOM     17  C   UNL     1       3.620  15.109  21.458  0.00  0.00    +0.000 A 
ATOM     18  C   UNL     1       3.557  15.741  22.697  0.00  0.00    +0.000 A 
ATOM     19  C   UNL     1       4.676  15.762  23.552  0.00  0.00    +0.000 A 
ATOM     20  C   UNL     1       5.897  15.149  23.217  0.00  0.00    +0.000 A 
ATOM     21  C   UNL     1       5.928  14.529  21.955  0.00  0.00    +0.000 A 
ATOM     22  C   UNL     1       4.818  14.506  21.089  0.00  0.00    +0.000 A 
BRANCH  20  23
ATOM     23  N   UNL     1       7.001  15.200  24.058  0.00  0.00    +0.000 N 
ATOM     24  C   UNL     1       6.941  14.725  25.441  0.00  0.00    +0.000 C 
ATOM     25  C   UNL     1       8.361  15.397  23.564  0.00  0.00    +0.000 C 
ENDBRANCH  20  23
ENDBRANCH  12  17
BRANCH  14  26
ATOM     26  C   UNL     1       0.436  10.821  21.169  0.00  0.00    +0.000 A 
ATOM     27  C   UNL     1      -0.280  10.621  22.358  0.00  0.00    +0.000 A 
ATOM     28  C   UNL     1      -0.417   9.342  22.884  0.00  0.00    +0.000 A 
ATOM     29  C   UNL     1       0.167   8.251  22.231  0.00  0.00    +0.000 A 
ATOM     30  C   UNL     1       0.885   8.449  21.054  0.00  0.00    +0.000 A 
ATOM     31  C   UNL     1       1.031   9.731  20.525  0.00  0.00    +0.000 A 
ENDBRANCH  14  26
BRANCH   1  33
ATOM     32  C   UNL     1      -3.371  10.062  14.588  0.00  0.00    +0.000 C 
ATOM     33  O   UNL     1      -2.689  10.685  15.672  0.00  0.00    +0.000 OA
ENDBRANCH   1  33
BRANCH   4  34
ATOM     34  O   UNL     1      -5.740  12.443  20.011  0.00  0.00    +0.000 OA
ATOM     35  C   UNL     1      -6.783  11.606  20.497  0.00  0.00    +0.000 C 
ENDBRANCH   4  34
TORSDOF 5
ENDMDL
MODEL 9
REMARK VINA RESULT:      -7.5      2.775      3.688
REMARK  Name = 
REMARK  9 active torsions:
REMARK  status: ('A' for Active; 'I' for Inactive)
REMARK    1  A    between atoms: C_1  and  O_2
REMARK    2  A    between atoms: O_2  and  C_3
REMARK    3  A    between atoms: C_6  and  O_7
REMARK    4  A    between atoms: O_7  and  C_8
REMARK    5  A    between atoms: C_16  and  C_17
REMARK    6  A    between atoms: C_20  and  N_21
REMARK    7  A    between atoms: N_21  and  C_22
REMARK    8  A    between atoms: N_21  and  C_23
REMARK    9  A    between atoms: C_27  and  C_28
REMARK                            x       y       z     vdW  Elec       q    Type
REMARK                         _______ _______ _______ _____ _____    ______ ____
ROOT
ATOM      1  C   UNL     1      -2.085  16.052  20.312  0.00  0.00    +0.000 A 
ATOM      2  C   UNL     1      -3.122  16.783  20.906  0.00  0.00    +0.000 A 
ATOM      3  C   UNL     1      -4.108  16.154  21.658  0.00  0.00    +0.000 A 
ATOM      4  C   UNL     1      -4.128  14.764  21.821  0.00  0.00    +0.000 A 
ATOM      5  C   UNL     1      -3.098  14.026  21.196  0.00  0.00    +0.000 A 
ATOM      6  S   UNL     1      -2.871  12.306  21.137  0.00  0.00    +0.000 S 
ATOM      7  C   UNL     1      -1.402  12.529  20.304  0.00  0.00    +0.000 A 
ATOM      8  N   UNL     1      -0.663  11.417  19.995  0.00  0.00    +0.000 N 
ATOM      9  C   UNL     1       0.300  10.964  20.852  0.00  0.00    +0.000 C 
ATOM     10  O   UNL     1       0.803  11.468  21.839  0.00  0.00    +0.000 OA
ATOM     11  C   UNL     1       0.560   9.587  20.321  0.00  0.00    +0.000 C 
ATOM     12  C   UNL     1       1.528   8.788  20.786  0.00  0.00    +0.000 C 
ATOM     13  N   UNL     1      -0.311   9.311  19.291  0.00  0.00    +0.000 NA
ATOM     14  C   UNL     1      -0.999  10.407  19.140  0.00  0.00    +0.000 C 
ATOM     15  N   UNL     1      -1.088  13.764  19.996  0.00  0.00    +0.000 NA
ATOM     16  C   UNL     1      -2.064  14.639  20.478  0.00  0.00    +0.000 A 
ENDROOT
BRANCH  12  17
ATOM     17  C   UNL     1       1.833   7.480  20.193  0.00  0.00    +0.000 A 
ATOM     18  C   UNL     1       2.464   7.399  18.953  0.00  0.00    +0.000 A 
ATOM     19  C   UNL     1       2.731   6.148  18.363  0.00  0.00    +0.000 A 
ATOM     20  C   UNL     1       2.394   4.931  18.981  0.00  0.00    +0.000 A 
ATOM     21  C   UNL     1       1.751   5.051  20.226  0.00  0.00    +0.000 A 
ATOM     22  C   UNL     1       1.473   6.294  20.825  0.00  0.00    +0.000 A 
BRANCH  20  23
ATOM     23  N   UNL     1       2.640   3.705  18.375  0.00  0.00    +0.000 N 
ATOM     24  C   UNL     1       1.737   2.566  18.543  0.00  0.00    +0.000 C 
ATOM     25  C   UNL     1       3.591   3.544  17.278  0.00  0.00    +0.000 C 
ENDBRANCH  20  23
ENDBRANCH  12  17
BRANCH  14  26
ATOM     26  C   UNL     1      -1.993  10.544  18.054  0.00  0.00    +0.000 A 
ATOM     27  C   UNL     1      -3.059   9.633  17.990  0.00  0.00    +0.000 A 
ATOM     28  C   UNL     1      -3.940   9.664  16.917  0.00  0.00    +0.000 A 
ATOM     29  C   UNL     1      -3.762  10.601  15.893  0.00  0.00    +0.000 A 
ATOM     30  C   UNL     1      -2.701  11.501  15.951  0.00  0.00    +0.000 A 
ATOM     31  C   UNL     1      -1.809  11.470  17.023  0.00  0.00    +0.000 A 
ENDBRANCH  14  26
BRANCH   1  33
ATOM     32  C   UNL     1      -1.249  18.030  19.305  0.00  0.00    +0.000 C 
ATOM     33  O   UNL     1      -1.113  16.630  19.531  0.00  0.00    +0.000 OA
ENDBRANCH   1  33
BRANCH   4  34
ATOM     34  O   UNL     1      -5.075  14.081  22.538  0.00  0.00    +0.000 OA
ATOM     35  C   UNL     1      -6.382  14.009  21.979  0.00  0.00    +0.000 C 
ENDBRANCH   4  34
TORSDOF 5
ENDMDL
