MODEL 1
REMARK VINA RESULT:      -7.2      0.000      0.000
REMARK  Name = 
REMARK  3 active torsions:
REMARK  status: ('A' for Active; 'I' for Inactive)
REMARK    1  A    between atoms: C_1  and  N_2
REMARK    2  A    between atoms: C_4  and  C_5
REMARK    3  A    between atoms: N_16  and  C_17
REMARK                            x       y       z     vdW  Elec       q    Type
REMARK                         _______ _______ _______ _____ _____    ______ ____
ROOT
ATOM      1  C   UNL     1       2.237   4.613  21.215  0.00  0.00    +0.000 C 
ATOM      2  N   UNL     1       2.463   5.536  20.114  0.00  0.00    +0.000 N 
ATOM      3  N   UNL     1       3.238   5.073  19.087  0.00  0.00    +0.000 NA
ATOM      4  C   UNL     1       3.523   5.894  18.117  0.00  0.00    +0.000 A 
ATOM      5  N   UNL     1       3.087   7.196  18.040  0.00  0.00    +0.000 NA
ATOM      6  C   UNL     1       2.317   7.652  18.978  0.00  0.00    +0.000 A 
ATOM      7  C   UNL     1       1.774   9.048  18.907  0.00  0.00    +0.000 A 
ATOM      8  O   UNL     1       2.044   9.758  17.951  0.00  0.00    +0.000 OA
ATOM      9  N   UNL     1       0.977   9.400  19.978  0.00  0.00    +0.000 N 
ATOM     10  C   UNL     1       0.398  10.730  20.002  0.00  0.00    +0.000 C 
ATOM     11  C   UNL     1       0.694   8.561  21.053  0.00  0.00    +0.000 A 
ATOM     12  O   UNL     1      -0.006   8.962  21.982  0.00  0.00    +0.000 OA
ATOM     13  N   UNL     1       1.189   7.286  21.079  0.00  0.00    +0.000 NA
ATOM     14  C   UNL     1       1.941   6.807  20.144  0.00  0.00    +0.000 A 
ENDROOT
BRANCH   4  15
ATOM     15  C   UNL     1       4.371   5.433  16.976  0.00  0.00    +0.000 A 
ATOM     16  C   UNL     1       4.590   4.063  16.772  0.00  0.00    +0.000 A 
ATOM     17  C   UNL     1       5.355   3.628  15.685  0.00  0.00    +0.000 A 
ATOM     18  C   UNL     1       5.914   4.561  14.812  0.00  0.00    +0.000 A 
ATOM     19 CL   UNL     1       6.850   4.023  13.472  0.00  0.00    +0.000 Cl
ATOM     20  C   UNL     1       5.716   5.926  15.017  0.00  0.00    +0.000 A 
ATOM     21  C   UNL     1       4.942   6.362  16.094  0.00  0.00    +0.000 A 
ENDBRANCH   4  15
TORSDOF 1
ENDMDL
MODEL 2
REMARK VINA RESULT:      -7.2      0.114      1.062
REMARK  Name = 
REMARK  3 active torsions:
REMARK  status: ('A' for Active; 'I' for Inactive)
REMARK    1  A    between atoms: C_1  and  N_2
REMARK    2  A    between atoms: C_4  and  C_5
REMARK    3  A    between atoms: N_16  and  C_17
REMARK                            x       y       z     vdW  Elec       q    Type
REMARK                         _______ _______ _______ _____ _____    ______ ____
ROOT
ATOM      1  C   UNL     1       2.220   4.606  21.227  0.00  0.00    +0.000 C 
ATOM      2  N   UNL     1       2.430   5.547  20.137  0.00  0.00    +0.000 N 
ATOM      3  N   UNL     1       3.206   5.107  19.101  0.00  0.00    +0.000 NA
ATOM      4  C   UNL     1       3.478   5.944  18.141  0.00  0.00    +0.000 A 
ATOM      5  N   UNL     1       3.026   7.242  18.084  0.00  0.00    +0.000 NA
ATOM      6  C   UNL     1       2.255   7.676  19.032  0.00  0.00    +0.000 A 
ATOM      7  C   UNL     1       1.696   9.068  18.982  0.00  0.00    +0.000 A 
ATOM      8  O   UNL     1       1.955   9.794  18.035  0.00  0.00    +0.000 OA
ATOM      9  N   UNL     1       0.901   9.395  20.061  0.00  0.00    +0.000 N 
ATOM     10  C   UNL     1       0.307  10.718  20.107  0.00  0.00    +0.000 C 
ATOM     11  C   UNL     1       0.632   8.539  21.126  0.00  0.00    +0.000 A 
ATOM     12  O   UNL     1      -0.068   8.919  22.063  0.00  0.00    +0.000 OA
ATOM     13  N   UNL     1       1.142   7.269  21.132  0.00  0.00    +0.000 NA
ATOM     14  C   UNL     1       1.895   6.812  20.188  0.00  0.00    +0.000 A 
ENDROOT
BRANCH   4  15
ATOM     15  C   UNL     1       4.325   5.509  16.990  0.00  0.00    +0.000 A 
ATOM     16  C   UNL     1       4.919   6.466  16.154  0.00  0.00    +0.000 A 
ATOM     17  C   UNL     1       5.739   6.062  15.096  0.00  0.00    +0.000 A 
ATOM     18  C   UNL     1       5.954   4.704  14.864  0.00  0.00    +0.000 A 
ATOM     19 CL   UNL     1       6.969   4.210  13.565  0.00  0.00    +0.000 Cl
ATOM     20  C   UNL     1       5.355   3.745  15.679  0.00  0.00    +0.000 A 
ATOM     21  C   UNL     1       4.545   4.146  16.744  0.00  0.00    +0.000 A 
ENDBRANCH   4  15
TORSDOF 1
ENDMDL
MODEL 3
REMARK VINA RESULT:      -6.9      4.930      7.459
REMARK  Name = 
REMARK  3 active torsions:
REMARK  status: ('A' for Active; 'I' for Inactive)
REMARK    1  A    between atoms: C_1  and  N_2
REMARK    2  A    between atoms: C_4  and  C_5
REMARK    3  A    between atoms: N_16  and  C_17
REMARK                            x       y       z     vdW  Elec       q    Type
REMARK                         _______ _______ _______ _____ _____    ______ ____
ROOT
ATOM      1  C   UNL     1       7.833   7.003  18.093  0.00  0.00    +0.000 C 
ATOM      2  N   UNL     1       6.859   6.016  17.653  0.00  0.00    +0.000 N 
ATOM      3  N   UNL     1       5.970   5.581  18.597  0.00  0.00    +0.000 NA
ATOM      4  C   UNL     1       5.130   4.645  18.261  0.00  0.00    +0.000 A 
ATOM      5  N   UNL     1       5.059   4.067  17.015  0.00  0.00    +0.000 NA
ATOM      6  C   UNL     1       5.861   4.486  16.087  0.00  0.00    +0.000 A 
ATOM      7  C   UNL     1       5.782   3.922  14.699  0.00  0.00    +0.000 A 
ATOM      8  O   UNL     1       4.945   3.073  14.434  0.00  0.00    +0.000 OA
ATOM      9  N   UNL     1       6.702   4.455  13.820  0.00  0.00    +0.000 N 
ATOM     10  C   UNL     1       6.705   3.979  12.449  0.00  0.00    +0.000 C 
ATOM     11  C   UNL     1       7.644   5.421  14.161  0.00  0.00    +0.000 A 
ATOM     12  O   UNL     1       8.448   5.825  13.321  0.00  0.00    +0.000 OA
ATOM     13  N   UNL     1       7.679   5.929  15.431  0.00  0.00    +0.000 NA
ATOM     14  C   UNL     1       6.875   5.539  16.363  0.00  0.00    +0.000 A 
ENDROOT
BRANCH   4  15
ATOM     15  C   UNL     1       4.143   4.136  19.261  0.00  0.00    +0.000 A 
ATOM     16  C   UNL     1       3.129   4.979  19.739  0.00  0.00    +0.000 A 
ATOM     17  C   UNL     1       2.184   4.496  20.649  0.00  0.00    +0.000 A 
ATOM     18  C   UNL     1       2.260   3.176  21.094  0.00  0.00    +0.000 A 
ATOM     19 CL   UNL     1       1.093   2.582  22.209  0.00  0.00    +0.000 Cl
ATOM     20  C   UNL     1       3.275   2.335  20.638  0.00  0.00    +0.000 A 
ATOM     21  C   UNL     1       4.213   2.812  19.719  0.00  0.00    +0.000 A 
ENDBRANCH   4  15
TORSDOF 1
ENDMDL
MODEL 4
REMARK VINA RESULT:      -6.9      3.823      6.951
REMARK  Name = 
REMARK  3 active torsions:
REMARK  status: ('A' for Active; 'I' for Inactive)
REMARK    1  A    between atoms: C_1  and  N_2
REMARK    2  A    between atoms: C_4  and  C_5
REMARK    3  A    between atoms: N_16  and  C_17
REMARK                            x       y       z     vdW  Elec       q    Type
REMARK                         _______ _______ _______ _____ _____    ______ ____
ROOT
ATOM      1  C   UNL     1       1.608   3.811  21.023  0.00  0.00    +0.000 C 
ATOM      2  N   UNL     1       1.923   5.102  20.432  0.00  0.00    +0.000 N 
ATOM      3  N   UNL     1       1.337   6.193  21.012  0.00  0.00    +0.000 NA
ATOM      4  C   UNL     1       1.537   7.358  20.466  0.00  0.00    +0.000 A 
ATOM      5  N   UNL     1       2.312   7.578  19.351  0.00  0.00    +0.000 NA
ATOM      6  C   UNL     1       2.914   6.569  18.802  0.00  0.00    +0.000 A 
ATOM      7  C   UNL     1       3.812   6.771  17.617  0.00  0.00    +0.000 A 
ATOM      8  O   UNL     1       3.992   7.894  17.174  0.00  0.00    +0.000 OA
ATOM      9  N   UNL     1       4.376   5.608  17.133  0.00  0.00    +0.000 N 
ATOM     10  C   UNL     1       5.266   5.695  15.990  0.00  0.00    +0.000 C 
ATOM     11  C   UNL     1       4.144   4.343  17.664  0.00  0.00    +0.000 A 
ATOM     12  O   UNL     1       4.668   3.352  17.156  0.00  0.00    +0.000 OA
ATOM     13  N   UNL     1       3.334   4.194  18.757  0.00  0.00    +0.000 NA
ATOM     14  C   UNL     1       2.742   5.189  19.330  0.00  0.00    +0.000 A 
ENDROOT
BRANCH   4  15
ATOM     15  C   UNL     1       0.913   8.578  21.064  0.00  0.00    +0.000 A 
ATOM     16  C   UNL     1       0.786   9.747  20.300  0.00  0.00    +0.000 A 
ATOM     17  C   UNL     1       0.174  10.879  20.845  0.00  0.00    +0.000 A 
ATOM     18  C   UNL     1      -0.299  10.849  22.157  0.00  0.00    +0.000 A 
ATOM     19 CL   UNL     1      -1.058  12.241  22.824  0.00  0.00    +0.000 Cl
ATOM     20  C   UNL     1      -0.162   9.696  22.930  0.00  0.00    +0.000 A 
ATOM     21  C   UNL     1       0.439   8.560  22.383  0.00  0.00    +0.000 A 
ENDBRANCH   4  15
TORSDOF 1
ENDMDL
MODEL 5
REMARK VINA RESULT:      -6.9      4.921      7.425
REMARK  Name = 
REMARK  3 active torsions:
REMARK  status: ('A' for Active; 'I' for Inactive)
REMARK    1  A    between atoms: C_1  and  N_2
REMARK    2  A    between atoms: C_4  and  C_5
REMARK    3  A    between atoms: N_16  and  C_17
REMARK                            x       y       z     vdW  Elec       q    Type
REMARK                         _______ _______ _______ _____ _____    ______ ____
ROOT
ATOM      1  C   UNL     1       7.766   7.099  17.942  0.00  0.00    +0.000 C 
ATOM      2  N   UNL     1       6.819   6.089  17.494  0.00  0.00    +0.000 N 
ATOM      3  N   UNL     1       5.917   5.652  18.424  0.00  0.00    +0.000 NA
ATOM      4  C   UNL     1       5.101   4.696  18.083  0.00  0.00    +0.000 A 
ATOM      5  N   UNL     1       5.068   4.101  16.843  0.00  0.00    +0.000 NA
ATOM      6  C   UNL     1       5.883   4.521  15.928  0.00  0.00    +0.000 A 
ATOM      7  C   UNL     1       5.845   3.937  14.547  0.00  0.00    +0.000 A 
ATOM      8  O   UNL     1       5.029   3.070  14.275  0.00  0.00    +0.000 OA
ATOM      9  N   UNL     1       6.776   4.474  13.681  0.00  0.00    +0.000 N 
ATOM     10  C   UNL     1       6.818   3.980  12.317  0.00  0.00    +0.000 C 
ATOM     11  C   UNL     1       7.693   5.461  14.029  0.00  0.00    +0.000 A 
ATOM     12  O   UNL     1       8.508   5.868  13.202  0.00  0.00    +0.000 OA
ATOM     13  N   UNL     1       7.691   5.987  15.293  0.00  0.00    +0.000 NA
ATOM     14  C   UNL     1       6.873   5.596  16.212  0.00  0.00    +0.000 A 
ENDROOT
BRANCH   4  15
ATOM     15  C   UNL     1       4.100   4.184  19.068  0.00  0.00    +0.000 A 
ATOM     16  C   UNL     1       4.156   2.849  19.494  0.00  0.00    +0.000 A 
ATOM     17  C   UNL     1       3.241   2.376  20.440  0.00  0.00    +0.000 A 
ATOM     18  C   UNL     1       2.263   3.230  20.949  0.00  0.00    +0.000 A 
ATOM     19 CL   UNL     1       1.143   2.647  22.117  0.00  0.00    +0.000 Cl
ATOM     20  C   UNL     1       2.190   4.554  20.518  0.00  0.00    +0.000 A 
ATOM     21  C   UNL     1       3.110   5.032  19.582  0.00  0.00    +0.000 A 
ENDBRANCH   4  15
TORSDOF 1
ENDMDL
MODEL 6
REMARK VINA RESULT:      -6.8      3.802      6.856
REMARK  Name = 
REMARK  3 active torsions:
REMARK  status: ('A' for Active; 'I' for Inactive)
REMARK    1  A    between atoms: C_1  and  N_2
REMARK    2  A    between atoms: C_4  and  C_5
REMARK    3  A    between atoms: N_16  and  C_17
REMARK                            x       y       z     vdW  Elec       q    Type
REMARK                         _______ _______ _______ _____ _____    ______ ____
ROOT
ATOM      1  C   UNL     1       1.558   3.738  20.991  0.00  0.00    +0.000 C 
ATOM      2  N   UNL     1       1.904   5.011  20.379  0.00  0.00    +0.000 N 
ATOM      3  N   UNL     1       1.329   6.123  20.930  0.00  0.00    +0.000 NA
ATOM      4  C   UNL     1       1.557   7.273  20.364  0.00  0.00    +0.000 A 
ATOM      5  N   UNL     1       2.352   7.458  19.257  0.00  0.00    +0.000 NA
ATOM      6  C   UNL     1       2.944   6.428  18.737  0.00  0.00    +0.000 A 
ATOM      7  C   UNL     1       3.862   6.591  17.561  0.00  0.00    +0.000 A 
ATOM      8  O   UNL     1       4.068   7.702  17.099  0.00  0.00    +0.000 OA
ATOM      9  N   UNL     1       4.413   5.409  17.108  0.00  0.00    +0.000 N 
ATOM     10  C   UNL     1       5.321   5.459  15.977  0.00  0.00    +0.000 C 
ATOM     11  C   UNL     1       4.151   4.159  17.661  0.00  0.00    +0.000 A 
ATOM     12  O   UNL     1       4.665   3.150  17.179  0.00  0.00    +0.000 OA
ATOM     13  N   UNL     1       3.323   4.046  18.744  0.00  0.00    +0.000 NA
ATOM     14  C   UNL     1       2.740   5.062  19.289  0.00  0.00    +0.000 A 
ENDROOT
BRANCH   4  15
ATOM     15  C   UNL     1       0.946   8.515  20.929  0.00  0.00    +0.000 A 
ATOM     16  C   UNL     1       0.552   8.555  22.274  0.00  0.00    +0.000 A 
ATOM     17  C   UNL     1       0.011   9.726  22.813  0.00  0.00    +0.000 A 
ATOM     18  C   UNL     1      -0.150  10.852  22.005  0.00  0.00    +0.000 A 
ATOM     19 CL   UNL     1      -0.811  12.294  22.672  0.00  0.00    +0.000 Cl
ATOM     20  C   UNL     1       0.222  10.816  20.663  0.00  0.00    +0.000 A 
ATOM     21  C   UNL     1       0.774   9.651  20.125  0.00  0.00    +0.000 A 
ENDBRANCH   4  15
TORSDOF 1
ENDMDL
MODEL 7
REMARK VINA RESULT:      -6.8      3.834      6.816
REMARK  Name = 
REMARK  3 active torsions:
REMARK  status: ('A' for Active; 'I' for Inactive)
REMARK    1  A    between atoms: C_1  and  N_2
REMARK    2  A    between atoms: C_4  and  C_5
REMARK    3  A    between atoms: N_16  and  C_17
REMARK                            x       y       z     vdW  Elec       q    Type
REMARK                         _______ _______ _______ _____ _____    ______ ____
ROOT
ATOM      1  C   UNL     1       1.826   3.236  18.239  0.00  0.00    +0.000 C 
ATOM      2  N   UNL     1       2.512   4.517  18.172  0.00  0.00    +0.000 N 
ATOM      3  N   UNL     1       1.932   5.550  18.854  0.00  0.00    +0.000 NA
ATOM      4  C   UNL     1       2.477   6.729  18.759  0.00  0.00    +0.000 A 
ATOM      5  N   UNL     1       3.609   7.011  18.031  0.00  0.00    +0.000 NA
ATOM      6  C   UNL     1       4.205   6.045  17.406  0.00  0.00    +0.000 A 
ATOM      7  C   UNL     1       5.473   6.297  16.644  0.00  0.00    +0.000 A 
ATOM      8  O   UNL     1       5.958   7.418  16.624  0.00  0.00    +0.000 OA
ATOM      9  N   UNL     1       5.989   5.179  16.021  0.00  0.00    +0.000 N 
ATOM     10  C   UNL     1       7.218   5.316  15.262  0.00  0.00    +0.000 C 
ATOM     11  C   UNL     1       5.405   3.916  16.065  0.00  0.00    +0.000 A 
ATOM     12  O   UNL     1       5.917   2.976  15.460  0.00  0.00    +0.000 OA
ATOM     13  N   UNL     1       4.258   3.715  16.784  0.00  0.00    +0.000 NA
ATOM     14  C   UNL     1       3.661   4.660  17.430  0.00  0.00    +0.000 A 
ENDROOT
BRANCH   4  15
ATOM     15  C   UNL     1       1.875   7.889  19.484  0.00  0.00    +0.000 A 
ATOM     16  C   UNL     1       1.577   9.072  18.791  0.00  0.00    +0.000 A 
ATOM     17  C   UNL     1       0.983  10.146  19.460  0.00  0.00    +0.000 A 
ATOM     18  C   UNL     1       0.702  10.047  20.822  0.00  0.00    +0.000 A 
ATOM     19 CL   UNL     1      -0.034  11.368  21.642  0.00  0.00    +0.000 Cl
ATOM     20  C   UNL     1       1.011   8.882  21.523  0.00  0.00    +0.000 A 
ATOM     21  C   UNL     1       1.593   7.802  20.854  0.00  0.00    +0.000 A 
ENDBRANCH   4  15
TORSDOF 1
ENDMDL
MODEL 8
REMARK VINA RESULT:      -6.7      3.826      6.744
REMARK  Name = 
REMARK  3 active torsions:
REMARK  status: ('A' for Active; 'I' for Inactive)
REMARK    1  A    between atoms: C_1  and  N_2
REMARK    2  A    between atoms: C_4  and  C_5
REMARK    3  A    between atoms: N_16  and  C_17
REMARK                            x       y       z     vdW  Elec       q    Type
REMARK                         _______ _______ _______ _____ _____    ______ ____
ROOT
ATOM      1  C   UNL     1       1.851   3.202  18.308  0.00  0.00    +0.000 C 
ATOM      2  N   UNL     1       2.517   4.491  18.202  0.00  0.00    +0.000 N 
ATOM      3  N   UNL     1       1.930   5.532  18.866  0.00  0.00    +0.000 NA
ATOM      4  C   UNL     1       2.455   6.716  18.735  0.00  0.00    +0.000 A 
ATOM      5  N   UNL     1       3.575   6.997  17.986  0.00  0.00    +0.000 NA
ATOM      6  C   UNL     1       4.178   6.024  17.377  0.00  0.00    +0.000 A 
ATOM      7  C   UNL     1       5.432   6.277  16.594  0.00  0.00    +0.000 A 
ATOM      8  O   UNL     1       5.900   7.403  16.541  0.00  0.00    +0.000 OA
ATOM      9  N   UNL     1       5.958   5.151  15.993  0.00  0.00    +0.000 N 
ATOM     10  C   UNL     1       7.175   5.288  15.215  0.00  0.00    +0.000 C 
ATOM     11  C   UNL     1       5.393   3.882  16.074  0.00  0.00    +0.000 A 
ATOM     12  O   UNL     1       5.912   2.934  15.486  0.00  0.00    +0.000 OA
ATOM     13  N   UNL     1       4.258   3.681  16.812  0.00  0.00    +0.000 NA
ATOM     14  C   UNL     1       3.654   4.633  17.442  0.00  0.00    +0.000 A 
ENDROOT
BRANCH   4  15
ATOM     15  C   UNL     1       1.845   7.885  19.439  0.00  0.00    +0.000 A 
ATOM     16  C   UNL     1       1.565   7.809  20.811  0.00  0.00    +0.000 A 
ATOM     17  C   UNL     1       1.025   8.912  21.479  0.00  0.00    +0.000 A 
ATOM     18  C   UNL     1       0.750  10.085  20.774  0.00  0.00    +0.000 A 
ATOM     19 CL   UNL     1       0.091  11.443  21.600  0.00  0.00    +0.000 Cl
ATOM     20  C   UNL     1       1.010  10.163  19.407  0.00  0.00    +0.000 A 
ATOM     21  C   UNL     1       1.561   9.066  18.740  0.00  0.00    +0.000 A 
ENDBRANCH   4  15
TORSDOF 1
ENDMDL
MODEL 9
REMARK VINA RESULT:      -6.7      4.243      7.432
REMARK  Name = 
REMARK  3 active torsions:
REMARK  status: ('A' for Active; 'I' for Inactive)
REMARK    1  A    between atoms: C_1  and  N_2
REMARK    2  A    between atoms: C_4  and  C_5
REMARK    3  A    between atoms: N_16  and  C_17
REMARK                            x       y       z     vdW  Elec       q    Type
REMARK                         _______ _______ _______ _____ _____    ______ ____
ROOT
ATOM      1  C   UNL     1       3.422   8.022  17.080  0.00  0.00    +0.000 C 
ATOM      2  N   UNL     1       2.808   7.533  18.305  0.00  0.00    +0.000 N 
ATOM      3  N   UNL     1       2.041   8.430  18.996  0.00  0.00    +0.000 NA
ATOM      4  C   UNL     1       1.535   8.052  20.135  0.00  0.00    +0.000 A 
ATOM      5  N   UNL     1       1.701   6.805  20.690  0.00  0.00    +0.000 NA
ATOM      6  C   UNL     1       2.389   5.920  20.040  0.00  0.00    +0.000 A 
ATOM      7  C   UNL     1       2.551   4.531  20.583  0.00  0.00    +0.000 A 
ATOM      8  O   UNL     1       2.018   4.224  21.638  0.00  0.00    +0.000 OA
ATOM      9  N   UNL     1       3.315   3.700  19.789  0.00  0.00    +0.000 N 
ATOM     10  C   UNL     1       3.528   2.332  20.224  0.00  0.00    +0.000 C 
ATOM     11  C   UNL     1       3.910   4.088  18.592  0.00  0.00    +0.000 A 
ATOM     12  O   UNL     1       4.599   3.291  17.956  0.00  0.00    +0.000 OA
ATOM     13  N   UNL     1       3.728   5.357  18.114  0.00  0.00    +0.000 NA
ATOM     14  C   UNL     1       3.030   6.247  18.738  0.00  0.00    +0.000 A 
ENDROOT
BRANCH   4  15
ATOM     15  C   UNL     1       0.693   9.000  20.927  0.00  0.00    +0.000 A 
ATOM     16  C   UNL     1       0.547   8.821  22.310  0.00  0.00    +0.000 A 
ATOM     17  C   UNL     1      -0.212   9.725  23.059  0.00  0.00    +0.000 A 
ATOM     18  C   UNL     1      -0.837  10.799  22.425  0.00  0.00    +0.000 A 
ATOM     19 CL   UNL     1      -1.766  11.913  23.350  0.00  0.00    +0.000 Cl
ATOM     20  C   UNL     1      -0.712  10.975  21.048  0.00  0.00    +0.000 A 
ATOM     21  C   UNL     1       0.056  10.080  20.300  0.00  0.00    +0.000 A 
ENDBRANCH   4  15
TORSDOF 1
ENDMDL
