MODEL 1
REMARK VINA RESULT:      -8.6      0.000      0.000
REMARK  Name = 
REMARK  8 active torsions:
REMARK  status: ('A' for Active; 'I' for Inactive)
REMARK    1  A    between atoms: C_1  and  O_2
REMARK    2  A    between atoms: O_2  and  C_3
REMARK    3  A    between atoms: C_5  and  C_6
REMARK    4  A    between atoms: C_14  and  N_15
REMARK    5  A    between atoms: N_15  and  C_16
REMARK    6  A    between atoms: C_16  and  C_17
REMARK    7  A    between atoms: C_27  and  O_28
REMARK    8  A    between atoms: O_28  and  C_29
REMARK                            x       y       z     vdW  Elec       q    Type
REMARK                         _______ _______ _______ _____ _____    ______ ____
ROOT
ATOM      1  C   UNL     1       2.815   6.964  18.397  0.00  0.00    +0.000 A 
ATOM      2  C   UNL     1       4.118   7.166  17.997  0.00  0.00    +0.000 A 
ATOM      3  C   UNL     1       4.782   6.177  17.305  0.00  0.00    +0.000 A 
ATOM      4  N   UNL     1       6.040   6.461  16.932  0.00  0.00    +0.000 NA
ATOM      5  C   UNL     1       6.718   5.548  16.213  0.00  0.00    +0.000 A 
ATOM      6  C   UNL     1       6.188   4.337  15.829  0.00  0.00    +0.000 A 
ATOM      7  C   UNL     1       4.889   4.050  16.221  0.00  0.00    +0.000 A 
ATOM      8  C   UNL     1       4.137   4.961  17.003  0.00  0.00    +0.000 A 
ATOM      9  C   UNL     1       2.820   4.796  17.479  0.00  0.00    +0.000 A 
ATOM     10  N   UNL     1       2.188   5.783  18.152  0.00  0.00    +0.000 NA
ENDROOT
BRANCH   1  13
ATOM     11  C   UNL     1       0.481   9.921  18.898  0.00  0.00    +0.000 A 
ATOM     12  C   UNL     1       1.448   9.044  18.370  0.00  0.00    +0.000 A 
ATOM     13  C   UNL     1       2.000   7.982  19.101  0.00  0.00    +0.000 A 
ATOM     14  C   UNL     1       1.669   7.927  20.460  0.00  0.00    +0.000 A 
ATOM     15  C   UNL     1       0.817   8.885  21.032  0.00  0.00    +0.000 A 
ATOM     16  C   UNL     1       0.214   9.892  20.263  0.00  0.00    +0.000 A 
BRANCH  11  18
ATOM     17  C   UNL     1      -1.404  10.030  17.531  0.00  0.00    +0.000 C 
ATOM     18  O   UNL     1      -0.252  10.716  18.051  0.00  0.00    +0.000 OA
ENDBRANCH  11  18
BRANCH  16  19
ATOM     19  O   UNL     1      -0.686  10.632  20.969  0.00  0.00    +0.000 OA
BRANCH  19  20
ATOM     20  C   UNL     1      -0.300  11.631  21.930  0.00  0.00    +0.000 C 
ATOM     21  C   UNL     1      -1.487  12.117  22.769  0.00  0.00    +0.000 C 
ATOM     22  C   UNL     1      -1.251  13.492  23.382  0.00  0.00    +0.000 C 
ATOM     23  O   UNL     1      -0.886  14.439  22.382  0.00  0.00    +0.000 OA
ATOM     24  C   UNL     1       0.363  14.109  21.783  0.00  0.00    +0.000 C 
ATOM     25  C   UNL     1       0.279  12.771  21.072  0.00  0.00    +0.000 C 
ENDBRANCH  19  20
ENDBRANCH  16  19
ENDBRANCH   1  13
BRANCH   9  26
ATOM     26  N   UNL     1       1.981   3.727  17.266  0.00  0.00    +0.000 N 
ATOM     27  H   UNL     1       1.251   4.039  16.630  0.00  0.00    +0.000 HD
BRANCH  26  28
ATOM     28  C   UNL     1       1.523   2.767  18.250  0.00  0.00    +0.000 C 
BRANCH  28  29
ATOM     29  C   UNL     1       2.680   2.322  19.130  0.00  0.00    +0.000 A 
ATOM     30  C   UNL     1       2.606   2.660  20.547  0.00  0.00    +0.000 A 
ATOM     31  C   UNL     1       3.589   2.326  21.399  0.00  0.00    +0.000 A 
ATOM     32  C   UNL     1       4.779   1.587  20.906  0.00  0.00    +0.000 A 
ATOM     33  O   UNL     1       5.693   1.270  21.658  0.00  0.00    +0.000 OA
ATOM     34  N   UNL     1       4.771   1.283  19.568  0.00  0.00    +0.000 N 
ATOM     35  C   UNL     1       3.765   1.649  18.702  0.00  0.00    +0.000 A 
ATOM     36  H   UNL     1       5.580   0.787  19.219  0.00  0.00    +0.000 HD
ENDBRANCH  28  29
ENDBRANCH  26  28
ENDBRANCH   9  26
TORSDOF 7
ENDMDL
MODEL 2
REMARK VINA RESULT:      -8.6      2.302      4.273
REMARK  Name = 
REMARK  8 active torsions:
REMARK  status: ('A' for Active; 'I' for Inactive)
REMARK    1  A    between atoms: C_1  and  O_2
REMARK    2  A    between atoms: O_2  and  C_3
REMARK    3  A    between atoms: C_5  and  C_6
REMARK    4  A    between atoms: C_14  and  N_15
REMARK    5  A    between atoms: N_15  and  C_16
REMARK    6  A    between atoms: C_16  and  C_17
REMARK    7  A    between atoms: C_27  and  O_28
REMARK    8  A    between atoms: O_28  and  C_29
REMARK                            x       y       z     vdW  Elec       q    Type
REMARK                         _______ _______ _______ _____ _____    ______ ____
ROOT
ATOM      1  C   UNL     1       1.706   7.192  20.330  0.00  0.00    +0.000 A 
ATOM      2  C   UNL     1       1.500   6.016  21.018  0.00  0.00    +0.000 A 
ATOM      3  C   UNL     1       2.218   4.891  20.679  0.00  0.00    +0.000 A 
ATOM      4  N   UNL     1       1.975   3.792  21.411  0.00  0.00    +0.000 NA
ATOM      5  C   UNL     1       2.684   2.678  21.153  0.00  0.00    +0.000 A 
ATOM      6  C   UNL     1       3.655   2.604  20.180  0.00  0.00    +0.000 A 
ATOM      7  C   UNL     1       3.898   3.742  19.425  0.00  0.00    +0.000 A 
ATOM      8  C   UNL     1       3.163   4.935  19.635  0.00  0.00    +0.000 A 
ATOM      9  C   UNL     1       3.295   6.154  18.938  0.00  0.00    +0.000 A 
ATOM     10  N   UNL     1       2.582   7.246  19.293  0.00  0.00    +0.000 NA
ENDROOT
BRANCH   1  13
ATOM     11  C   UNL     1       0.098  10.593  19.793  0.00  0.00    +0.000 A 
ATOM     12  C   UNL     1       0.920   9.458  19.662  0.00  0.00    +0.000 A 
ATOM     13  C   UNL     1       1.021   8.467  20.650  0.00  0.00    +0.000 A 
ATOM     14  C   UNL     1       0.387   8.738  21.867  0.00  0.00    +0.000 A 
ATOM     15  C   UNL     1      -0.319   9.937  22.060  0.00  0.00    +0.000 A 
ATOM     16  C   UNL     1      -0.471  10.879  21.031  0.00  0.00    +0.000 A 
BRANCH  11  18
ATOM     17  C   UNL     1      -1.424  10.895  18.053  0.00  0.00    +0.000 C 
ATOM     18  O   UNL     1      -0.211  11.342  18.683  0.00  0.00    +0.000 OA
ENDBRANCH  11  18
BRANCH  16  19
ATOM     19  O   UNL     1      -1.304  11.904  21.368  0.00  0.00    +0.000 OA
BRANCH  19  20
ATOM     20  C   UNL     1      -1.592  12.266  22.730  0.00  0.00    +0.000 C 
ATOM     21  C   UNL     1      -3.098  12.359  22.998  0.00  0.00    +0.000 C 
ATOM     22  C   UNL     1      -3.429  13.230  24.204  0.00  0.00    +0.000 C 
ATOM     23  O   UNL     1      -2.832  14.518  24.080  0.00  0.00    +0.000 OA
ATOM     24  C   UNL     1      -1.411  14.436  24.092  0.00  0.00    +0.000 C 
ATOM     25  C   UNL     1      -0.910  13.635  22.905  0.00  0.00    +0.000 C 
ENDBRANCH  19  20
ENDBRANCH  16  19
ENDBRANCH   1  13
BRANCH   9  26
ATOM     26  N   UNL     1       4.180   6.448  17.927  0.00  0.00    +0.000 N 
ATOM     27  H   UNL     1       3.708   6.254  17.047  0.00  0.00    +0.000 HD
BRANCH  26  28
ATOM     28  C   UNL     1       5.600   6.161  17.899  0.00  0.00    +0.000 C 
BRANCH  28  29
ATOM     29  C   UNL     1       5.996   5.587  16.548  0.00  0.00    +0.000 A 
ATOM     30  C   UNL     1       5.021   4.736  15.875  0.00  0.00    +0.000 A 
ATOM     31  C   UNL     1       5.289   4.168  14.688  0.00  0.00    +0.000 A 
ATOM     32  C   UNL     1       6.596   4.410  14.027  0.00  0.00    +0.000 A 
ATOM     33  O   UNL     1       6.871   3.904  12.946  0.00  0.00    +0.000 OA
ATOM     34  N   UNL     1       7.454   5.237  14.707  0.00  0.00    +0.000 N 
ATOM     35  C   UNL     1       7.175   5.797  15.933  0.00  0.00    +0.000 A 
ATOM     36  H   UNL     1       8.352   5.403  14.271  0.00  0.00    +0.000 HD
ENDBRANCH  28  29
ENDBRANCH  26  28
ENDBRANCH   9  26
TORSDOF 7
ENDMDL
MODEL 3
REMARK VINA RESULT:      -8.6      3.643      9.869
REMARK  Name = 
REMARK  8 active torsions:
REMARK  status: ('A' for Active; 'I' for Inactive)
REMARK    1  A    between atoms: C_1  and  O_2
REMARK    2  A    between atoms: O_2  and  C_3
REMARK    3  A    between atoms: C_5  and  C_6
REMARK    4  A    between atoms: C_14  and  N_15
REMARK    5  A    between atoms: N_15  and  C_16
REMARK    6  A    between atoms: C_16  and  C_17
REMARK    7  A    between atoms: C_27  and  O_28
REMARK    8  A    between atoms: O_28  and  C_29
REMARK                            x       y       z     vdW  Elec       q    Type
REMARK                         _______ _______ _______ _____ _____    ______ ____
ROOT
ATOM      1  C   UNL     1       1.229   8.684  19.807  0.00  0.00    +0.000 A 
ATOM      2  C   UNL     1       1.037   8.906  21.153  0.00  0.00    +0.000 A 
ATOM      3  C   UNL     1       0.185   9.906  21.567  0.00  0.00    +0.000 A 
ATOM      4  N   UNL     1       0.036  10.044  22.894  0.00  0.00    +0.000 NA
ATOM      5  C   UNL     1      -0.822  10.975  23.351  0.00  0.00    +0.000 A 
ATOM      6  C   UNL     1      -1.565  11.792  22.529  0.00  0.00    +0.000 A 
ATOM      7  C   UNL     1      -1.403  11.646  21.159  0.00  0.00    +0.000 A 
ATOM      8  C   UNL     1      -0.494  10.702  20.622  0.00  0.00    +0.000 A 
ATOM      9  C   UNL     1      -0.221  10.456  19.260  0.00  0.00    +0.000 A 
ATOM     10  N   UNL     1       0.617   9.466  18.880  0.00  0.00    +0.000 NA
ENDROOT
BRANCH   1  13
ATOM     11  C   UNL     1       2.828   5.255  19.455  0.00  0.00    +0.000 A 
ATOM     12  C   UNL     1       2.233   6.414  19.989  0.00  0.00    +0.000 A 
ATOM     13  C   UNL     1       2.085   7.604  19.262  0.00  0.00    +0.000 A 
ATOM     14  C   UNL     1       2.715   7.650  18.014  0.00  0.00    +0.000 A 
ATOM     15  C   UNL     1       3.437   6.546  17.531  0.00  0.00    +0.000 A 
ATOM     16  C   UNL     1       3.505   5.338  18.242  0.00  0.00    +0.000 A 
BRANCH  11  18
ATOM     17  C   UNL     1       1.973   4.189  21.344  0.00  0.00    +0.000 C 
ATOM     18  O   UNL     1       2.650   4.046  20.083  0.00  0.00    +0.000 OA
ENDBRANCH  11  18
BRANCH  16  19
ATOM     19  O   UNL     1       4.129   4.347  17.546  0.00  0.00    +0.000 OA
BRANCH  19  20
ATOM     20  C   UNL     1       5.551   4.318  17.324  0.00  0.00    +0.000 C 
ATOM     21  C   UNL     1       6.288   5.377  18.152  0.00  0.00    +0.000 C 
ATOM     22  C   UNL     1       7.649   5.737  17.569  0.00  0.00    +0.000 C 
ATOM     23  O   UNL     1       7.531   6.120  16.202  0.00  0.00    +0.000 OA
ATOM     24  C   UNL     1       7.086   5.036  15.393  0.00  0.00    +0.000 C 
ATOM     25  C   UNL     1       5.698   4.589  15.815  0.00  0.00    +0.000 C 
ENDBRANCH  19  20
ENDBRANCH  16  19
ENDBRANCH   1  13
BRANCH   9  26
ATOM     26  N   UNL     1      -0.796  11.064  18.169  0.00  0.00    +0.000 N 
ATOM     27  H   UNL     1      -1.164  11.960  18.482  0.00  0.00    +0.000 HD
BRANCH  26  28
ATOM     28  C   UNL     1      -1.600  10.434  17.142  0.00  0.00    +0.000 C 
BRANCH  28  29
ATOM     29  C   UNL     1      -3.031  10.945  17.203  0.00  0.00    +0.000 A 
ATOM     30  C   UNL     1      -3.484  11.502  18.473  0.00  0.00    +0.000 A 
ATOM     31  C   UNL     1      -4.737  11.960  18.628  0.00  0.00    +0.000 A 
ATOM     32  C   UNL     1      -5.691  11.915  17.492  0.00  0.00    +0.000 A 
ATOM     33  O   UNL     1      -6.841  12.323  17.603  0.00  0.00    +0.000 OA
ATOM     34  N   UNL     1      -5.189  11.399  16.323  0.00  0.00    +0.000 N 
ATOM     35  C   UNL     1      -3.909  10.915  16.182  0.00  0.00    +0.000 A 
ATOM     36  H   UNL     1      -5.832  11.356  15.543  0.00  0.00    +0.000 HD
ENDBRANCH  28  29
ENDBRANCH  26  28
ENDBRANCH   9  26
TORSDOF 7
ENDMDL
MODEL 4
REMARK VINA RESULT:      -8.6      2.545      4.552
REMARK  Name = 
REMARK  8 active torsions:
REMARK  status: ('A' for Active; 'I' for Inactive)
REMARK    1  A    between atoms: C_1  and  O_2
REMARK    2  A    between atoms: O_2  and  C_3
REMARK    3  A    between atoms: C_5  and  C_6
REMARK    4  A    between atoms: C_14  and  N_15
REMARK    5  A    between atoms: N_15  and  C_16
REMARK    6  A    between atoms: C_16  and  C_17
REMARK    7  A    between atoms: C_27  and  O_28
REMARK    8  A    between atoms: O_28  and  C_29
REMARK                            x       y       z     vdW  Elec       q    Type
REMARK                         _______ _______ _______ _____ _____    ______ ____
ROOT
ATOM      1  C   UNL     1       2.117   6.730  19.399  0.00  0.00    +0.000 A 
ATOM      2  C   UNL     1       1.912   5.914  20.490  0.00  0.00    +0.000 A 
ATOM      3  C   UNL     1       2.367   4.614  20.466  0.00  0.00    +0.000 A 
ATOM      4  N   UNL     1       2.147   3.891  21.576  0.00  0.00    +0.000 NA
ATOM      5  C   UNL     1       2.613   2.629  21.623  0.00  0.00    +0.000 A 
ATOM      6  C   UNL     1       3.312   2.038  20.595  0.00  0.00    +0.000 A 
ATOM      7  C   UNL     1       3.532   2.791  19.450  0.00  0.00    +0.000 A 
ATOM      8  C   UNL     1       3.041   4.114  19.334  0.00  0.00    +0.000 A 
ATOM      9  C   UNL     1       3.179   4.984  18.232  0.00  0.00    +0.000 A 
ATOM     10  N   UNL     1       2.728   6.257  18.282  0.00  0.00    +0.000 NA
ENDROOT
BRANCH   1  13
ATOM     11  C   UNL     1       0.980  10.148  20.612  0.00  0.00    +0.000 A 
ATOM     12  C   UNL     1       1.177   8.759  20.494  0.00  0.00    +0.000 A 
ATOM     13  C   UNL     1       1.711   8.155  19.346  0.00  0.00    +0.000 A 
ATOM     14  C   UNL     1       1.891   8.986  18.235  0.00  0.00    +0.000 A 
ATOM     15  C   UNL     1       1.561  10.350  18.296  0.00  0.00    +0.000 A 
ATOM     16  C   UNL     1       1.102  10.948  19.480  0.00  0.00    +0.000 A 
BRANCH  11  18
ATOM     17  C   UNL     1      -0.240  10.001  22.593  0.00  0.00    +0.000 C 
ATOM     18  O   UNL     1       0.772  10.704  21.851  0.00  0.00    +0.000 OA
ENDBRANCH  11  18
BRANCH  16  19
ATOM     19  O   UNL     1       0.973  12.300  19.376  0.00  0.00    +0.000 OA
BRANCH  19  20
ATOM     20  C   UNL     1       2.095  13.200  19.397  0.00  0.00    +0.000 C 
ATOM     21  C   UNL     1       2.458  13.641  20.820  0.00  0.00    +0.000 C 
ATOM     22  C   UNL     1       3.237  14.950  20.850  0.00  0.00    +0.000 C 
ATOM     23  O   UNL     1       2.543  15.971  20.141  0.00  0.00    +0.000 OA
ATOM     24  C   UNL     1       2.440  15.664  18.754  0.00  0.00    +0.000 C 
ATOM     25  C   UNL     1       1.631  14.396  18.546  0.00  0.00    +0.000 C 
ENDBRANCH  19  20
ENDBRANCH  16  19
ENDBRANCH   1  13
BRANCH   9  26
ATOM     26  N   UNL     1       3.838   4.738  17.050  0.00  0.00    +0.000 N 
ATOM     27  H   UNL     1       3.197   4.229  16.447  0.00  0.00    +0.000 HD
BRANCH  26  28
ATOM     28  C   UNL     1       5.223   4.344  16.889  0.00  0.00    +0.000 C 
BRANCH  28  29
ATOM     29  C   UNL     1       6.146   5.480  17.298  0.00  0.00    +0.000 A 
ATOM     30  C   UNL     1       7.041   5.238  18.424  0.00  0.00    +0.000 A 
ATOM     31  C   UNL     1       7.879   6.189  18.870  0.00  0.00    +0.000 A 
ATOM     32  C   UNL     1       7.914   7.518  18.208  0.00  0.00    +0.000 A 
ATOM     33  O   UNL     1       8.664   8.406  18.592  0.00  0.00    +0.000 OA
ATOM     34  N   UNL     1       7.061   7.667  17.143  0.00  0.00    +0.000 N 
ATOM     35  C   UNL     1       6.194   6.690  16.708  0.00  0.00    +0.000 A 
ATOM     36  H   UNL     1       7.070   8.570  16.688  0.00  0.00    +0.000 HD
ENDBRANCH  28  29
ENDBRANCH  26  28
ENDBRANCH   9  26
TORSDOF 7
ENDMDL
MODEL 5
REMARK VINA RESULT:      -8.6      3.718     10.250
REMARK  Name = 
REMARK  8 active torsions:
REMARK  status: ('A' for Active; 'I' for Inactive)
REMARK    1  A    between atoms: C_1  and  O_2
REMARK    2  A    between atoms: O_2  and  C_3
REMARK    3  A    between atoms: C_5  and  C_6
REMARK    4  A    between atoms: C_14  and  N_15
REMARK    5  A    between atoms: N_15  and  C_16
REMARK    6  A    between atoms: C_16  and  C_17
REMARK    7  A    between atoms: C_27  and  O_28
REMARK    8  A    between atoms: O_28  and  C_29
REMARK                            x       y       z     vdW  Elec       q    Type
REMARK                         _______ _______ _______ _____ _____    ______ ____
ROOT
ATOM      1  C   UNL     1       1.516   8.797  19.851  0.00  0.00    +0.000 A 
ATOM      2  C   UNL     1       0.828   8.762  21.044  0.00  0.00    +0.000 A 
ATOM      3  C   UNL     1       0.184   9.893  21.496  0.00  0.00    +0.000 A 
ATOM      4  N   UNL     1      -0.481   9.771  22.655  0.00  0.00    +0.000 NA
ATOM      5  C   UNL     1      -1.167  10.832  23.118  0.00  0.00    +0.000 A 
ATOM      6  C   UNL     1      -1.232  12.040  22.460  0.00  0.00    +0.000 A 
ATOM      7  C   UNL     1      -0.540  12.159  21.264  0.00  0.00    +0.000 A 
ATOM      8  C   UNL     1       0.222  11.084  20.743  0.00  0.00    +0.000 A 
ATOM      9  C   UNL     1       0.980  11.070  19.554  0.00  0.00    +0.000 A 
ATOM     10  N   UNL     1       1.599   9.946  19.131  0.00  0.00    +0.000 NA
ENDROOT
BRANCH   1  13
ATOM     11  C   UNL     1       2.656   5.200  19.407  0.00  0.00    +0.000 A 
ATOM     12  C   UNL     1       2.240   6.419  19.975  0.00  0.00    +0.000 A 
ATOM     13  C   UNL     1       2.198   7.623  19.257  0.00  0.00    +0.000 A 
ATOM     14  C   UNL     1       2.754   7.600  17.973  0.00  0.00    +0.000 A 
ATOM     15  C   UNL     1       3.305   6.419  17.449  0.00  0.00    +0.000 A 
ATOM     16  C   UNL     1       3.265   5.207  18.155  0.00  0.00    +0.000 A 
BRANCH  11  18
ATOM     17  C   UNL     1       1.038   3.556  19.746  0.00  0.00    +0.000 C 
ATOM     18  O   UNL     1       2.367   4.017  20.045  0.00  0.00    +0.000 OA
ENDBRANCH  11  18
BRANCH  16  19
ATOM     19  O   UNL     1       3.720   4.151  17.424  0.00  0.00    +0.000 OA
BRANCH  19  20
ATOM     20  C   UNL     1       5.118   3.851  17.263  0.00  0.00    +0.000 C 
ATOM     21  C   UNL     1       5.993   4.618  18.261  0.00  0.00    +0.000 C 
ATOM     22  C   UNL     1       7.437   4.754  17.794  0.00  0.00    +0.000 C 
ATOM     23  O   UNL     1       7.498   5.323  16.490  0.00  0.00    +0.000 OA
ATOM     24  C   UNL     1       6.901   4.469  15.520  0.00  0.00    +0.000 C 
ATOM     25  C   UNL     1       5.425   4.274  15.814  0.00  0.00    +0.000 C 
ENDBRANCH  19  20
ENDBRANCH  16  19
ENDBRANCH   1  13
BRANCH   9  26
ATOM     26  N   UNL     1       1.119  12.087  18.639  0.00  0.00    +0.000 N 
ATOM     27  H   UNL     1       0.464  11.905  17.883  0.00  0.00    +0.000 HD
BRANCH  26  28
ATOM     28  C   UNL     1       2.356  12.703  18.201  0.00  0.00    +0.000 C 
BRANCH  28  29
ATOM     29  C   UNL     1       2.259  14.216  18.311  0.00  0.00    +0.000 A 
ATOM     30  C   UNL     1       1.076  14.761  18.968  0.00  0.00    +0.000 A 
ATOM     31  C   UNL     1       0.894  16.086  19.094  0.00  0.00    +0.000 A 
ATOM     32  C   UNL     1       1.913  17.030  18.568  0.00  0.00    +0.000 A 
ATOM     33  O   UNL     1       1.774  18.243  18.666  0.00  0.00    +0.000 OA
ATOM     34  N   UNL     1       3.009  16.446  17.983  0.00  0.00    +0.000 N 
ATOM     35  C   UNL     1       3.174  15.087  17.842  0.00  0.00    +0.000 A 
ATOM     36  H   UNL     1       3.706  17.079  17.614  0.00  0.00    +0.000 HD
ENDBRANCH  28  29
ENDBRANCH  26  28
ENDBRANCH   9  26
TORSDOF 7
ENDMDL
MODEL 6
REMARK VINA RESULT:      -8.6      2.799      4.980
REMARK  Name = 
REMARK  8 active torsions:
REMARK  status: ('A' for Active; 'I' for Inactive)
REMARK    1  A    between atoms: C_1  and  O_2
REMARK    2  A    between atoms: O_2  and  C_3
REMARK    3  A    between atoms: C_5  and  C_6
REMARK    4  A    between atoms: C_14  and  N_15
REMARK    5  A    between atoms: N_15  and  C_16
REMARK    6  A    between atoms: C_16  and  C_17
REMARK    7  A    between atoms: C_27  and  O_28
REMARK    8  A    between atoms: O_28  and  C_29
REMARK                            x       y       z     vdW  Elec       q    Type
REMARK                         _______ _______ _______ _____ _____    ______ ____
ROOT
ATOM      1  C   UNL     1       2.356   6.593  19.500  0.00  0.00    +0.000 A 
ATOM      2  C   UNL     1       1.873   5.756  20.482  0.00  0.00    +0.000 A 
ATOM      3  C   UNL     1       2.398   4.489  20.620  0.00  0.00    +0.000 A 
ATOM      4  N   UNL     1       1.888   3.745  21.614  0.00  0.00    +0.000 NA
ATOM      5  C   UNL     1       2.398   2.517  21.824  0.00  0.00    +0.000 A 
ATOM      6  C   UNL     1       3.424   1.983  21.077  0.00  0.00    +0.000 A 
ATOM      7  C   UNL     1       3.944   2.758  20.051  0.00  0.00    +0.000 A 
ATOM      8  C   UNL     1       3.427   4.046  19.766  0.00  0.00    +0.000 A 
ATOM      9  C   UNL     1       3.848   4.932  18.753  0.00  0.00    +0.000 A 
ATOM     10  N   UNL     1       3.320   6.171  18.640  0.00  0.00    +0.000 NA
ENDROOT
BRANCH   1  13
ATOM     11  C   UNL     1       1.049  10.057  20.354  0.00  0.00    +0.000 A 
ATOM     12  C   UNL     1       1.306   8.673  20.375  0.00  0.00    +0.000 A 
ATOM     13  C   UNL     1       1.894   7.987  19.302  0.00  0.00    +0.000 A 
ATOM     14  C   UNL     1       2.067   8.715  18.120  0.00  0.00    +0.000 A 
ATOM     15  C   UNL     1       1.680  10.063  18.043  0.00  0.00    +0.000 A 
ATOM     16  C   UNL     1       1.166  10.750  19.153  0.00  0.00    +0.000 A 
BRANCH  11  18
ATOM     17  C   UNL     1      -0.107   9.977  22.377  0.00  0.00    +0.000 C 
ATOM     18  O   UNL     1       0.787  10.719  21.530  0.00  0.00    +0.000 OA
ENDBRANCH  11  18
BRANCH  16  19
ATOM     19  O   UNL     1       0.984  12.080  18.918  0.00  0.00    +0.000 OA
BRANCH  19  20
ATOM     20  C   UNL     1       1.816  13.101  19.496  0.00  0.00    +0.000 C 
ATOM     21  C   UNL     1       1.007  14.325  19.939  0.00  0.00    +0.000 C 
ATOM     22  C   UNL     1       1.856  15.587  20.041  0.00  0.00    +0.000 C 
ATOM     23  O   UNL     1       2.556  15.828  18.824  0.00  0.00    +0.000 OA
ATOM     24  C   UNL     1       3.501  14.797  18.554  0.00  0.00    +0.000 C 
ATOM     25  C   UNL     1       2.800  13.464  18.368  0.00  0.00    +0.000 C 
ENDBRANCH  19  20
ENDBRANCH  16  19
ENDBRANCH   1  13
BRANCH   9  26
ATOM     26  N   UNL     1       4.861   4.741  17.843  0.00  0.00    +0.000 N 
ATOM     27  H   UNL     1       5.279   5.650  17.662  0.00  0.00    +0.000 HD
BRANCH  26  28
ATOM     28  C   UNL     1       4.842   3.870  16.685  0.00  0.00    +0.000 C 
BRANCH  28  29
ATOM     29  C   UNL     1       5.819   4.369  15.633  0.00  0.00    +0.000 A 
ATOM     30  C   UNL     1       5.607   3.920  14.261  0.00  0.00    +0.000 A 
ATOM     31  C   UNL     1       6.430   4.293  13.268  0.00  0.00    +0.000 A 
ATOM     32  C   UNL     1       7.579   5.189  13.552  0.00  0.00    +0.000 A 
ATOM     33  O   UNL     1       8.349   5.545  12.667  0.00  0.00    +0.000 OA
ATOM     34  N   UNL     1       7.704   5.589  14.858  0.00  0.00    +0.000 N 
ATOM     35  C   UNL     1       6.865   5.184  15.872  0.00  0.00    +0.000 A 
ATOM     36  H   UNL     1       8.489   6.193  15.066  0.00  0.00    +0.000 HD
ENDBRANCH  28  29
ENDBRANCH  26  28
ENDBRANCH   9  26
TORSDOF 7
ENDMDL
MODEL 7
REMARK VINA RESULT:      -8.5      2.555      4.841
REMARK  Name = 
REMARK  8 active torsions:
REMARK  status: ('A' for Active; 'I' for Inactive)
REMARK    1  A    between atoms: C_1  and  O_2
REMARK    2  A    between atoms: O_2  and  C_3
REMARK    3  A    between atoms: C_5  and  C_6
REMARK    4  A    between atoms: C_14  and  N_15
REMARK    5  A    between atoms: N_15  and  C_16
REMARK    6  A    between atoms: C_16  and  C_17
REMARK    7  A    between atoms: C_27  and  O_28
REMARK    8  A    between atoms: O_28  and  C_29
REMARK                            x       y       z     vdW  Elec       q    Type
REMARK                         _______ _______ _______ _____ _____    ______ ____
ROOT
ATOM      1  C   UNL     1       2.307   6.638  19.543  0.00  0.00    +0.000 A 
ATOM      2  C   UNL     1       1.828   5.787  20.514  0.00  0.00    +0.000 A 
ATOM      3  C   UNL     1       2.356   4.520  20.636  0.00  0.00    +0.000 A 
ATOM      4  N   UNL     1       1.850   3.761  21.621  0.00  0.00    +0.000 NA
ATOM      5  C   UNL     1       2.364   2.532  21.813  0.00  0.00    +0.000 A 
ATOM      6  C   UNL     1       3.390   2.011  21.058  0.00  0.00    +0.000 A 
ATOM      7  C   UNL     1       3.905   2.800  20.041  0.00  0.00    +0.000 A 
ATOM      8  C   UNL     1       3.385   4.091  19.774  0.00  0.00    +0.000 A 
ATOM      9  C   UNL     1       3.801   4.990  18.771  0.00  0.00    +0.000 A 
ATOM     10  N   UNL     1       3.270   6.229  18.675  0.00  0.00    +0.000 NA
ENDROOT
BRANCH   1  13
ATOM     11  C   UNL     1       1.036  10.102  20.448  0.00  0.00    +0.000 A 
ATOM     12  C   UNL     1       1.291   8.718  20.457  0.00  0.00    +0.000 A 
ATOM     13  C   UNL     1       1.840   8.033  19.363  0.00  0.00    +0.000 A 
ATOM     14  C   UNL     1       1.974   8.763  18.178  0.00  0.00    +0.000 A 
ATOM     15  C   UNL     1       1.587  10.112  18.116  0.00  0.00    +0.000 A 
ATOM     16  C   UNL     1       1.113  10.798  19.245  0.00  0.00    +0.000 A 
BRANCH  11  18
ATOM     17  C   UNL     1      -0.226  10.144  22.408  0.00  0.00    +0.000 C 
ATOM     18  O   UNL     1       0.816  10.763  21.633  0.00  0.00    +0.000 OA
ENDBRANCH  11  18
BRANCH  16  19
ATOM     19  O   UNL     1       0.925  12.128  19.018  0.00  0.00    +0.000 OA
BRANCH  19  20
ATOM     20  C   UNL     1      -0.376  12.740  18.965  0.00  0.00    +0.000 C 
ATOM     21  C   UNL     1      -0.751  13.419  20.288  0.00  0.00    +0.000 C 
ATOM     22  C   UNL     1      -2.256  13.589  20.456  0.00  0.00    +0.000 C 
ATOM     23  O   UNL     1      -2.930  12.346  20.288  0.00  0.00    +0.000 OA
ATOM     24  C   UNL     1      -2.785  11.849  18.962  0.00  0.00    +0.000 C 
ATOM     25  C   UNL     1      -1.326  11.570  18.651  0.00  0.00    +0.000 C 
ENDBRANCH  19  20
ENDBRANCH  16  19
ENDBRANCH   1  13
BRANCH   9  26
ATOM     26  N   UNL     1       4.814   4.814  17.857  0.00  0.00    +0.000 N 
ATOM     27  H   UNL     1       5.198   5.733  17.651  0.00  0.00    +0.000 HD
BRANCH  26  28
ATOM     28  C   UNL     1       4.816   3.916  16.720  0.00  0.00    +0.000 C 
BRANCH  28  29
ATOM     29  C   UNL     1       5.797   4.402  15.665  0.00  0.00    +0.000 A 
ATOM     30  C   UNL     1       5.573   3.959  14.293  0.00  0.00    +0.000 A 
ATOM     31  C   UNL     1       6.398   4.322  13.297  0.00  0.00    +0.000 A 
ATOM     32  C   UNL     1       7.562   5.199  13.579  0.00  0.00    +0.000 A 
ATOM     33  O   UNL     1       8.333   5.545  12.692  0.00  0.00    +0.000 OA
ATOM     34  N   UNL     1       7.697   5.595  14.886  0.00  0.00    +0.000 N 
ATOM     35  C   UNL     1       6.856   5.200  15.901  0.00  0.00    +0.000 A 
ATOM     36  H   UNL     1       8.492   6.187  15.092  0.00  0.00    +0.000 HD
ENDBRANCH  28  29
ENDBRANCH  26  28
ENDBRANCH   9  26
TORSDOF 7
ENDMDL
MODEL 8
REMARK VINA RESULT:      -8.5      3.676      9.785
REMARK  Name = 
REMARK  8 active torsions:
REMARK  status: ('A' for Active; 'I' for Inactive)
REMARK    1  A    between atoms: C_1  and  O_2
REMARK    2  A    between atoms: O_2  and  C_3
REMARK    3  A    between atoms: C_5  and  C_6
REMARK    4  A    between atoms: C_14  and  N_15
REMARK    5  A    between atoms: N_15  and  C_16
REMARK    6  A    between atoms: C_16  and  C_17
REMARK    7  A    between atoms: C_27  and  O_28
REMARK    8  A    between atoms: O_28  and  C_29
REMARK                            x       y       z     vdW  Elec       q    Type
REMARK                         _______ _______ _______ _____ _____    ______ ____
ROOT
ATOM      1  C   UNL     1       1.102   8.959  20.079  0.00  0.00    +0.000 A 
ATOM      2  C   UNL     1       0.586   9.056  21.352  0.00  0.00    +0.000 A 
ATOM      3  C   UNL     1      -0.209  10.129  21.689  0.00  0.00    +0.000 A 
ATOM      4  N   UNL     1      -0.690  10.139  22.942  0.00  0.00    +0.000 NA
ATOM      5  C   UNL     1      -1.511  11.141  23.308  0.00  0.00    +0.000 A 
ATOM      6  C   UNL     1      -1.894  12.156  22.461  0.00  0.00    +0.000 A 
ATOM      7  C   UNL     1      -1.391  12.141  21.169  0.00  0.00    +0.000 A 
ATOM      8  C   UNL     1      -0.501  11.127  20.737  0.00  0.00    +0.000 A 
ATOM      9  C   UNL     1       0.094  10.996  19.465  0.00  0.00    +0.000 A 
ATOM     10  N   UNL     1       0.867   9.931  19.158  0.00  0.00    +0.000 NA
ENDROOT
BRANCH   1  13
ATOM     11  C   UNL     1       2.633   5.483  19.976  0.00  0.00    +0.000 A 
ATOM     12  C   UNL     1       2.070   6.692  20.426  0.00  0.00    +0.000 A 
ATOM     13  C   UNL     1       1.926   7.821  19.606  0.00  0.00    +0.000 A 
ATOM     14  C   UNL     1       2.526   7.753  18.344  0.00  0.00    +0.000 A 
ATOM     15  C   UNL     1       3.217   6.599  17.938  0.00  0.00    +0.000 A 
ATOM     16  C   UNL     1       3.281   5.453  18.745  0.00  0.00    +0.000 A 
BRANCH  11  18
ATOM     17  C   UNL     1       1.121   3.801  20.545  0.00  0.00    +0.000 C 
ATOM     18  O   UNL     1       2.448   4.332  20.706  0.00  0.00    +0.000 OA
ENDBRANCH  11  18
BRANCH  16  19
ATOM     19  O   UNL     1       3.871   4.395  18.120  0.00  0.00    +0.000 OA
BRANCH  19  20
ATOM     20  C   UNL     1       5.296   4.196  18.090  0.00  0.00    +0.000 C 
ATOM     21  C   UNL     1       6.044   5.232  18.936  0.00  0.00    +0.000 C 
ATOM     22  C   UNL     1       7.499   5.396  18.515  0.00  0.00    +0.000 C 
ATOM     23  O   UNL     1       7.597   5.678  17.122  0.00  0.00    +0.000 OA
ATOM     24  C   UNL     1       7.131   4.587  16.335  0.00  0.00    +0.000 C 
ATOM     25  C   UNL     1       5.660   4.327  16.599  0.00  0.00    +0.000 C 
ENDBRANCH  19  20
ENDBRANCH  16  19
ENDBRANCH   1  13
BRANCH   9  26
ATOM     26  N   UNL     1      -0.084  11.809  18.371  0.00  0.00    +0.000 N 
ATOM     27  H   UNL     1       0.446  11.403  17.603  0.00  0.00    +0.000 HD
BRANCH  26  28
ATOM     28  C   UNL     1      -0.111  13.258  18.355  0.00  0.00    +0.000 C 
BRANCH  28  29
ATOM     29  C   UNL     1       1.302  13.812  18.453  0.00  0.00    +0.000 A 
ATOM     30  C   UNL     1       1.473  15.077  19.160  0.00  0.00    +0.000 A 
ATOM     31  C   UNL     1       2.680  15.654  19.280  0.00  0.00    +0.000 A 
ATOM     32  C   UNL     1       3.877  15.000  18.696  0.00  0.00    +0.000 A 
ATOM     33  O   UNL     1       4.991  15.502  18.787  0.00  0.00    +0.000 OA
ATOM     34  N   UNL     1       3.645  13.803  18.065  0.00  0.00    +0.000 N 
ATOM     35  C   UNL     1       2.400  13.232  17.932  0.00  0.00    +0.000 A 
ATOM     36  H   UNL     1       4.452  13.351  17.655  0.00  0.00    +0.000 HD
ENDBRANCH  28  29
ENDBRANCH  26  28
ENDBRANCH   9  26
TORSDOF 7
ENDMDL
MODEL 9
REMARK VINA RESULT:      -8.5      2.544      4.499
REMARK  Name = 
REMARK  8 active torsions:
REMARK  status: ('A' for Active; 'I' for Inactive)
REMARK    1  A    between atoms: C_1  and  O_2
REMARK    2  A    between atoms: O_2  and  C_3
REMARK    3  A    between atoms: C_5  and  C_6
REMARK    4  A    between atoms: C_14  and  N_15
REMARK    5  A    between atoms: N_15  and  C_16
REMARK    6  A    between atoms: C_16  and  C_17
REMARK    7  A    between atoms: C_27  and  O_28
REMARK    8  A    between atoms: O_28  and  C_29
REMARK                            x       y       z     vdW  Elec       q    Type
REMARK                         _______ _______ _______ _____ _____    ______ ____
ROOT
ATOM      1  C   UNL     1       2.480   6.410  19.355  0.00  0.00    +0.000 A 
ATOM      2  C   UNL     1       1.758   5.257  19.138  0.00  0.00    +0.000 A 
ATOM      3  C   UNL     1       2.416   4.057  18.981  0.00  0.00    +0.000 A 
ATOM      4  N   UNL     1       1.639   2.978  18.796  0.00  0.00    +0.000 NA
ATOM      5  C   UNL     1       2.229   1.773  18.684  0.00  0.00    +0.000 A 
ATOM      6  C   UNL     1       3.591   1.585  18.758  0.00  0.00    +0.000 A 
ATOM      7  C   UNL     1       4.386   2.705  18.946  0.00  0.00    +0.000 A 
ATOM      8  C   UNL     1       3.823   4.001  19.042  0.00  0.00    +0.000 A 
ATOM      9  C   UNL     1       4.508   5.221  19.220  0.00  0.00    +0.000 A 
ATOM     10  N   UNL     1       3.839   6.385  19.376  0.00  0.00    +0.000 NA
ENDROOT
BRANCH   1  13
ATOM     11  C   UNL     1       1.108   9.411  21.238  0.00  0.00    +0.000 A 
ATOM     12  C   UNL     1       1.482   8.101  20.884  0.00  0.00    +0.000 A 
ATOM     13  C   UNL     1       1.866   7.739  19.584  0.00  0.00    +0.000 A 
ATOM     14  C   UNL     1       1.700   8.714  18.595  0.00  0.00    +0.000 A 
ATOM     15  C   UNL     1       1.191   9.983  18.913  0.00  0.00    +0.000 A 
ATOM     16  C   UNL     1       0.887  10.348  20.234  0.00  0.00    +0.000 A 
BRANCH  11  18
ATOM     17  C   UNL     1      -0.238   9.565  23.136  0.00  0.00    +0.000 C 
ATOM     18  O   UNL     1       1.065   9.773  22.564  0.00  0.00    +0.000 OA
ENDBRANCH  11  18
BRANCH  16  19
ATOM     19  O   UNL     1       0.541  11.661  20.356  0.00  0.00    +0.000 OA
BRANCH  19  20
ATOM     20  C   UNL     1       0.872  12.655  19.370  0.00  0.00    +0.000 C 
ATOM     21  C   UNL     1       2.167  13.401  19.711  0.00  0.00    +0.000 C 
ATOM     22  C   UNL     1       2.259  14.762  19.031  0.00  0.00    +0.000 C 
ATOM     23  O   UNL     1       1.106  15.549  19.311  0.00  0.00    +0.000 OA
ATOM     24  C   UNL     1      -0.069  14.966  18.757  0.00  0.00    +0.000 C 
ATOM     25  C   UNL     1      -0.338  13.608  19.380  0.00  0.00    +0.000 C 
ENDBRANCH  19  20
ENDBRANCH  16  19
ENDBRANCH   1  13
BRANCH   9  26
ATOM     26  N   UNL     1       5.863   5.406  19.361  0.00  0.00    +0.000 N 
ATOM     27  H   UNL     1       6.025   5.745  20.306  0.00  0.00    +0.000 HD
BRANCH  26  28
ATOM     28  C   UNL     1       6.774   5.962  18.380  0.00  0.00    +0.000 C 
BRANCH  28  29
ATOM     29  C   UNL     1       6.510   5.356  17.011  0.00  0.00    +0.000 A 
ATOM     30  C   UNL     1       5.615   6.088  16.121  0.00  0.00    +0.000 A 
ATOM     31  C   UNL     1       5.307   5.621  14.900  0.00  0.00    +0.000 A 
ATOM     32  C   UNL     1       5.887   4.340  14.426  0.00  0.00    +0.000 A 
ATOM     33  O   UNL     1       5.623   3.887  13.319  0.00  0.00    +0.000 OA
ATOM     34  N   UNL     1       6.736   3.717  15.307  0.00  0.00    +0.000 N 
ATOM     35  C   UNL     1       7.029   4.196  16.564  0.00  0.00    +0.000 A 
ATOM     36  H   UNL     1       7.132   2.839  14.999  0.00  0.00    +0.000 HD
ENDBRANCH  28  29
ENDBRANCH  26  28
ENDBRANCH   9  26
TORSDOF 7
ENDMDL
