MODEL 1
REMARK VINA RESULT:      -9.0      0.000      0.000
REMARK  Name = 
REMARK  2 active torsions:
REMARK  status: ('A' for Active; 'I' for Inactive)
REMARK    1  A    between atoms: C_8  and  C_9
REMARK    2  A    between atoms: C_18  and  O_19
REMARK                            x       y       z     vdW  Elec       q    Type
REMARK                         _______ _______ _______ _____ _____    ______ ____
ROOT
ATOM      1  O   UNL     1       1.109   4.383  17.308  0.00  0.00    +0.000 OA
ATOM      2  C   UNL     1       1.794   3.864  18.189  0.00  0.00    +0.000 C 
ATOM      3  C   UNL     1       1.323   2.615  18.929  0.00  0.00    +0.000 C 
ATOM      4  N   UNL     1       1.938   2.511  20.252  0.00  0.00    +0.000 NA
ATOM      5  C   UNL     1       3.393   2.536  20.153  0.00  0.00    +0.000 C 
ATOM      6  C   UNL     1       3.919   3.737  19.390  0.00  0.00    +0.000 C 
ATOM      7  C   UNL     1       3.162   4.385  18.480  0.00  0.00    +0.000 C 
ATOM      8  C   UNL     1       3.649   5.604  17.722  0.00  0.00    +0.000 C 
ATOM      9  C   UNL     1       5.111   5.772  17.940  0.00  0.00    +0.000 C 
ATOM     10  C   UNL     1       6.137   6.423  17.408  0.00  0.00    +0.000 C 
ATOM     11  O   UNL     1       7.358   6.373  18.067  0.00  0.00    +0.000 OA
ATOM     12  C   UNL     1       7.140   5.551  19.232  0.00  0.00    +0.000 C 
ATOM     13  C   UNL     1       5.746   5.061  19.037  0.00  0.00    +0.000 C 
ATOM     14  N   UNL     1       5.207   4.117  19.736  0.00  0.00    +0.000 NA
ATOM     15  H   UNL     1       1.643   1.641  20.697  0.00  0.00    +0.000 HD
ENDROOT
BRANCH   8  16
ATOM     16  C   UNL     1       2.929   6.869  18.202  0.00  0.00    +0.000 A 
ATOM     17  C   UNL     1       2.725   7.951  17.316  0.00  0.00    +0.000 A 
ATOM     18  C   UNL     1       2.003   9.072  17.715  0.00  0.00    +0.000 A 
ATOM     19  C   UNL     1       1.496   9.137  19.005  0.00  0.00    +0.000 A 
ATOM     20  F   UNL     1       0.792  10.222  19.359  0.00  0.00    +0.000 F 
ATOM     21  C   UNL     1       1.713   8.098  19.906  0.00  0.00    +0.000 A 
ATOM     22 BR   UNL     1       1.028   8.204  21.665  0.00  0.00    +0.000 Br
ATOM     23  C   UNL     1       2.429   6.962  19.511  0.00  0.00    +0.000 A 
ENDBRANCH   8  16
BRANCH  10  24
ATOM     24  O   UNL     1       6.061   7.137  16.251  0.00  0.00    +0.000 OA
ATOM     25  H   UNL     1       5.125   7.415  16.206  0.00  0.00    +0.000 HD
ENDBRANCH  10  24
TORSDOF 2
ENDMDL
MODEL 2
REMARK VINA RESULT:      -8.7      1.117      1.517
REMARK  Name = 
REMARK  2 active torsions:
REMARK  status: ('A' for Active; 'I' for Inactive)
REMARK    1  A    between atoms: C_8  and  C_9
REMARK    2  A    between atoms: C_18  and  O_19
REMARK                            x       y       z     vdW  Elec       q    Type
REMARK                         _______ _______ _______ _____ _____    ______ ____
ROOT
ATOM      1  O   UNL     1       1.085   4.211  17.265  0.00  0.00    +0.000 OA
ATOM      2  C   UNL     1       1.874   3.586  17.973  0.00  0.00    +0.000 C 
ATOM      3  C   UNL     1       1.548   2.183  18.479  0.00  0.00    +0.000 C 
ATOM      4  N   UNL     1       2.279   1.872  19.707  0.00  0.00    +0.000 NA
ATOM      5  C   UNL     1       3.715   2.031  19.513  0.00  0.00    +0.000 C 
ATOM      6  C   UNL     1       4.097   3.396  18.971  0.00  0.00    +0.000 C 
ATOM      7  C   UNL     1       3.226   4.146  18.266  0.00  0.00    +0.000 C 
ATOM      8  C   UNL     1       3.568   5.525  17.736  0.00  0.00    +0.000 C 
ATOM      9  C   UNL     1       5.029   5.763  17.879  0.00  0.00    +0.000 C 
ATOM     10  C   UNL     1       5.963   6.584  17.418  0.00  0.00    +0.000 C 
ATOM     11  O   UNL     1       7.236   6.503  17.966  0.00  0.00    +0.000 OA
ATOM     12  C   UNL     1       7.171   5.455  18.954  0.00  0.00    +0.000 C 
ATOM     13  C   UNL     1       5.799   4.903  18.763  0.00  0.00    +0.000 C 
ATOM     14  N   UNL     1       5.383   3.801  19.295  0.00  0.00    +0.000 NA
ATOM     15  H   UNL     1       2.078   0.911  19.988  0.00  0.00    +0.000 HD
ENDROOT
BRANCH   8  16
ATOM     16  C   UNL     1       2.812   6.610  18.510  0.00  0.00    +0.000 A 
ATOM     17  C   UNL     1       2.353   6.360  19.823  0.00  0.00    +0.000 A 
ATOM     18  C   UNL     1       1.737   7.362  20.566  0.00  0.00    +0.000 A 
ATOM     19  C   UNL     1       1.552   8.616  20.003  0.00  0.00    +0.000 A 
ATOM     20  F   UNL     1       0.968   9.569  20.746  0.00  0.00    +0.000 F 
ATOM     21  C   UNL     1       1.965   8.877  18.699  0.00  0.00    +0.000 A 
ATOM     22 BR   UNL     1       1.695  10.587  17.938  0.00  0.00    +0.000 Br
ATOM     23  C   UNL     1       2.595   7.879  17.948  0.00  0.00    +0.000 A 
ENDBRANCH   8  16
BRANCH  10  24
ATOM     24  O   UNL     1       5.743   7.502  16.436  0.00  0.00    +0.000 OA
ATOM     25  H   UNL     1       4.919   7.198  16.009  0.00  0.00    +0.000 HD
ENDBRANCH  10  24
TORSDOF 2
ENDMDL
MODEL 3
REMARK VINA RESULT:      -8.2      3.422      5.554
REMARK  Name = 
REMARK  2 active torsions:
REMARK  status: ('A' for Active; 'I' for Inactive)
REMARK    1  A    between atoms: C_8  and  C_9
REMARK    2  A    between atoms: C_18  and  O_19
REMARK                            x       y       z     vdW  Elec       q    Type
REMARK                         _______ _______ _______ _____ _____    ______ ____
ROOT
ATOM      1  O   UNL     1       2.599   8.002  17.447  0.00  0.00    +0.000 OA
ATOM      2  C   UNL     1       2.213   7.797  18.598  0.00  0.00    +0.000 C 
ATOM      3  C   UNL     1       1.723   8.937  19.486  0.00  0.00    +0.000 C 
ATOM      4  N   UNL     1       1.872   8.615  20.905  0.00  0.00    +0.000 NA
ATOM      5  C   UNL     1       1.183   7.372  21.232  0.00  0.00    +0.000 C 
ATOM      6  C   UNL     1       1.600   6.208  20.352  0.00  0.00    +0.000 C 
ATOM      7  C   UNL     1       2.111   6.401  19.118  0.00  0.00    +0.000 C 
ATOM      8  C   UNL     1       2.563   5.262  18.227  0.00  0.00    +0.000 C 
ATOM      9  C   UNL     1       2.108   3.969  18.806  0.00  0.00    +0.000 C 
ATOM     10  C   UNL     1       1.947   2.705  18.437  0.00  0.00    +0.000 C 
ATOM     11  O   UNL     1       1.601   1.777  19.410  0.00  0.00    +0.000 OA
ATOM     12  C   UNL     1       1.500   2.521  20.641  0.00  0.00    +0.000 C 
ATOM     13  C   UNL     1       1.676   3.932  20.193  0.00  0.00    +0.000 C 
ATOM     14  N   UNL     1       1.444   4.962  20.938  0.00  0.00    +0.000 NA
ATOM     15  H   UNL     1       1.488   9.374  21.469  0.00  0.00    +0.000 HD
ENDROOT
BRANCH   8  16
ATOM     16  C   UNL     1       4.090   5.238  18.104  0.00  0.00    +0.000 A 
ATOM     17  C   UNL     1       4.900   5.342  19.258  0.00  0.00    +0.000 A 
ATOM     18  C   UNL     1       6.285   5.242  19.169  0.00  0.00    +0.000 A 
ATOM     19  C   UNL     1       6.880   5.058  17.929  0.00  0.00    +0.000 A 
ATOM     20  F   UNL     1       8.216   4.949  17.873  0.00  0.00    +0.000 F 
ATOM     21  C   UNL     1       6.105   4.985  16.774  0.00  0.00    +0.000 A 
ATOM     22 BR   UNL     1       6.929   4.747  15.089  0.00  0.00    +0.000 Br
ATOM     23  C   UNL     1       4.712   5.075  16.855  0.00  0.00    +0.000 A 
ENDBRANCH   8  16
BRANCH  10  24
ATOM     24  O   UNL     1       2.100   2.267  17.157  0.00  0.00    +0.000 OA
ATOM     25  H   UNL     1       3.039   2.446  16.956  0.00  0.00    +0.000 HD
ENDBRANCH  10  24
TORSDOF 2
ENDMDL
MODEL 4
REMARK VINA RESULT:      -7.6      1.962      4.202
REMARK  Name = 
REMARK  2 active torsions:
REMARK  status: ('A' for Active; 'I' for Inactive)
REMARK    1  A    between atoms: C_8  and  C_9
REMARK    2  A    between atoms: C_18  and  O_19
REMARK                            x       y       z     vdW  Elec       q    Type
REMARK                         _______ _______ _______ _____ _____    ______ ____
ROOT
ATOM      1  O   UNL     1       6.132   6.615  18.520  0.00  0.00    +0.000 OA
ATOM      2  C   UNL     1       5.750   5.818  17.663  0.00  0.00    +0.000 C 
ATOM      3  C   UNL     1       6.566   5.559  16.400  0.00  0.00    +0.000 C 
ATOM      4  N   UNL     1       5.723   5.081  15.304  0.00  0.00    +0.000 NA
ATOM      5  C   UNL     1       4.986   3.886  15.698  0.00  0.00    +0.000 C 
ATOM      6  C   UNL     1       4.186   4.071  16.974  0.00  0.00    +0.000 C 
ATOM      7  C   UNL     1       4.525   4.997  17.894  0.00  0.00    +0.000 C 
ATOM      8  C   UNL     1       3.730   5.225  19.164  0.00  0.00    +0.000 C 
ATOM      9  C   UNL     1       2.743   4.125  19.336  0.00  0.00    +0.000 C 
ATOM     10  C   UNL     1       1.974   3.604  20.283  0.00  0.00    +0.000 C 
ATOM     11  O   UNL     1       1.073   2.612  19.923  0.00  0.00    +0.000 OA
ATOM     12  C   UNL     1       1.257   2.411  18.508  0.00  0.00    +0.000 C 
ATOM     13  C   UNL     1       2.431   3.277  18.198  0.00  0.00    +0.000 C 
ATOM     14  N   UNL     1       3.080   3.241  17.082  0.00  0.00    +0.000 NA
ATOM     15  H   UNL     1       6.306   4.869  14.494  0.00  0.00    +0.000 HD
ENDROOT
BRANCH   8  16
ATOM     16  C   UNL     1       2.978   6.559  19.106  0.00  0.00    +0.000 A 
ATOM     17  C   UNL     1       2.881   7.269  17.887  0.00  0.00    +0.000 A 
ATOM     18  C   UNL     1       2.134   8.440  17.802  0.00  0.00    +0.000 A 
ATOM     19  C   UNL     1       1.494   8.928  18.932  0.00  0.00    +0.000 A 
ATOM     20  F   UNL     1       0.768  10.050  18.820  0.00  0.00    +0.000 F 
ATOM     21  C   UNL     1       1.602   8.263  20.152  0.00  0.00    +0.000 A 
ATOM     22 BR   UNL     1       0.735   8.945  21.688  0.00  0.00    +0.000 Br
ATOM     23  C   UNL     1       2.342   7.080  20.245  0.00  0.00    +0.000 A 
ENDBRANCH   8  16
BRANCH  10  24
ATOM     24  O   UNL     1       2.020   3.989  21.589  0.00  0.00    +0.000 OA
ATOM     25  H   UNL     1       2.699   4.690  21.605  0.00  0.00    +0.000 HD
ENDBRANCH  10  24
TORSDOF 2
ENDMDL
MODEL 5
REMARK VINA RESULT:      -7.3      3.105      5.013
REMARK  Name = 
REMARK  2 active torsions:
REMARK  status: ('A' for Active; 'I' for Inactive)
REMARK    1  A    between atoms: C_8  and  C_9
REMARK    2  A    between atoms: C_18  and  O_19
REMARK                            x       y       z     vdW  Elec       q    Type
REMARK                         _______ _______ _______ _____ _____    ______ ____
ROOT
ATOM      1  O   UNL     1       2.116   8.494  17.451  0.00  0.00    +0.000 OA
ATOM      2  C   UNL     1       1.923   8.168  18.623  0.00  0.00    +0.000 C 
ATOM      3  C   UNL     1       1.403   9.170  19.650  0.00  0.00    +0.000 C 
ATOM      4  N   UNL     1       1.788   8.794  21.010  0.00  0.00    +0.000 NA
ATOM      5  C   UNL     1       1.331   7.445  21.325  0.00  0.00    +0.000 C 
ATOM      6  C   UNL     1       1.784   6.409  20.314  0.00  0.00    +0.000 C 
ATOM      7  C   UNL     1       2.090   6.746  19.044  0.00  0.00    +0.000 C 
ATOM      8  C   UNL     1       2.572   5.740  18.018  0.00  0.00    +0.000 C 
ATOM      9  C   UNL     1       2.386   4.363  18.550  0.00  0.00    +0.000 C 
ATOM     10  C   UNL     1       2.355   3.112  18.109  0.00  0.00    +0.000 C 
ATOM     11  O   UNL     1       2.279   2.089  19.045  0.00  0.00    +0.000 OA
ATOM     12  C   UNL     1       2.243   2.738  20.332  0.00  0.00    +0.000 C 
ATOM     13  C   UNL     1       2.156   4.183  19.973  0.00  0.00    +0.000 C 
ATOM     14  N   UNL     1       1.886   5.122  20.819  0.00  0.00    +0.000 NA
ATOM     15  H   UNL     1       1.381   9.454  21.673  0.00  0.00    +0.000 HD
ENDROOT
BRANCH   8  16
ATOM     16  C   UNL     1       4.056   5.951  17.702  0.00  0.00    +0.000 A 
ATOM     17  C   UNL     1       4.449   6.476  16.449  0.00  0.00    +0.000 A 
ATOM     18  C   UNL     1       5.786   6.747  16.178  0.00  0.00    +0.000 A 
ATOM     19  C   UNL     1       6.748   6.480  17.142  0.00  0.00    +0.000 A 
ATOM     20  F   UNL     1       8.029   6.765  16.861  0.00  0.00    +0.000 F 
ATOM     21  C   UNL     1       6.389   5.932  18.370  0.00  0.00    +0.000 A 
ATOM     22 BR   UNL     1       7.711   5.560  19.671  0.00  0.00    +0.000 Br
ATOM     23  C   UNL     1       5.046   5.665  18.656  0.00  0.00    +0.000 A 
ENDBRANCH   8  16
BRANCH  10  24
ATOM     24  O   UNL     1       2.393   2.775  16.790  0.00  0.00    +0.000 OA
ATOM     25  H   UNL     1       3.139   3.295  16.435  0.00  0.00    +0.000 HD
ENDBRANCH  10  24
TORSDOF 2
ENDMDL
MODEL 6
REMARK VINA RESULT:      -7.2      3.235      5.412
REMARK  Name = 
REMARK  2 active torsions:
REMARK  status: ('A' for Active; 'I' for Inactive)
REMARK    1  A    between atoms: C_8  and  C_9
REMARK    2  A    between atoms: C_18  and  O_19
REMARK                            x       y       z     vdW  Elec       q    Type
REMARK                         _______ _______ _______ _____ _____    ______ ____
ROOT
ATOM      1  O   UNL     1       2.561   7.505  17.050  0.00  0.00    +0.000 OA
ATOM      2  C   UNL     1       2.306   7.419  18.251  0.00  0.00    +0.000 C 
ATOM      3  C   UNL     1       1.964   8.654  19.080  0.00  0.00    +0.000 C 
ATOM      4  N   UNL     1       2.268   8.450  20.497  0.00  0.00    +0.000 NA
ATOM      5  C   UNL     1       1.579   7.273  21.012  0.00  0.00    +0.000 C 
ATOM      6  C   UNL     1       1.849   6.019  20.202  0.00  0.00    +0.000 C 
ATOM      7  C   UNL     1       2.218   6.080  18.906  0.00  0.00    +0.000 C 
ATOM      8  C   UNL     1       2.522   4.848  18.077  0.00  0.00    +0.000 C 
ATOM      9  C   UNL     1       2.093   3.633  18.821  0.00  0.00    +0.000 C 
ATOM     10  C   UNL     1       1.845   2.350  18.591  0.00  0.00    +0.000 C 
ATOM     11  O   UNL     1       1.584   1.528  19.678  0.00  0.00    +0.000 OA
ATOM     12  C   UNL     1       1.655   2.380  20.839  0.00  0.00    +0.000 C 
ATOM     13  C   UNL     1       1.826   3.737  20.245  0.00  0.00    +0.000 C 
ATOM     14  N   UNL     1       1.720   4.837  20.914  0.00  0.00    +0.000 NA
ATOM     15  H   UNL     1       1.980   9.272  21.028  0.00  0.00    +0.000 HD
ENDROOT
BRANCH   8  16
ATOM     16  C   UNL     1       4.022   4.744  17.783  0.00  0.00    +0.000 A 
ATOM     17  C   UNL     1       4.471   4.251  16.536  0.00  0.00    +0.000 A 
ATOM     18  C   UNL     1       5.827   4.226  16.226  0.00  0.00    +0.000 A 
ATOM     19  C   UNL     1       6.751   4.671  17.160  0.00  0.00    +0.000 A 
ATOM     20  F   UNL     1       8.052   4.651  16.831  0.00  0.00    +0.000 F 
ATOM     21  C   UNL     1       6.336   5.131  18.407  0.00  0.00    +0.000 A 
ATOM     22 BR   UNL     1       7.606   5.722  19.677  0.00  0.00    +0.000 Br
ATOM     23  C   UNL     1       4.973   5.169  18.725  0.00  0.00    +0.000 A 
ENDBRANCH   8  16
BRANCH  10  24
ATOM     24  O   UNL     1       1.832   1.795  17.347  0.00  0.00    +0.000 OA
ATOM     25  H   UNL     1       2.694   1.342  17.281  0.00  0.00    +0.000 HD
ENDBRANCH  10  24
TORSDOF 2
ENDMDL
MODEL 7
REMARK VINA RESULT:      -7.2      3.246      4.872
REMARK  Name = 
REMARK  2 active torsions:
REMARK  status: ('A' for Active; 'I' for Inactive)
REMARK    1  A    between atoms: C_8  and  C_9
REMARK    2  A    between atoms: C_18  and  O_19
REMARK                            x       y       z     vdW  Elec       q    Type
REMARK                         _______ _______ _______ _____ _____    ______ ____
ROOT
ATOM      1  O   UNL     1       1.550   7.582  21.197  0.00  0.00    +0.000 OA
ATOM      2  C   UNL     1       1.618   8.142  20.103  0.00  0.00    +0.000 C 
ATOM      3  C   UNL     1       0.828   9.414  19.810  0.00  0.00    +0.000 C 
ATOM      4  N   UNL     1       0.580   9.576  18.377  0.00  0.00    +0.000 NA
ATOM      5  C   UNL     1       1.831   9.560  17.629  0.00  0.00    +0.000 C 
ATOM      6  C   UNL     1       2.681   8.334  17.910  0.00  0.00    +0.000 C 
ATOM      7  C   UNL     1       2.568   7.645  19.064  0.00  0.00    +0.000 C 
ATOM      8  C   UNL     1       3.381   6.401  19.363  0.00  0.00    +0.000 C 
ATOM      9  C   UNL     1       4.455   6.255  18.344  0.00  0.00    +0.000 C 
ATOM     10  C   UNL     1       5.592   5.593  18.171  0.00  0.00    +0.000 C 
ATOM     11  O   UNL     1       6.220   5.680  16.936  0.00  0.00    +0.000 OA
ATOM     12  C   UNL     1       5.389   6.545  16.135  0.00  0.00    +0.000 C 
ATOM     13  C   UNL     1       4.362   7.014  17.109  0.00  0.00    +0.000 C 
ATOM     14  N   UNL     1       3.536   7.980  16.877  0.00  0.00    +0.000 NA
ATOM     15  H   UNL     1       0.098  10.460  18.213  0.00  0.00    +0.000 HD
ENDROOT
BRANCH   8  16
ATOM     16  C   UNL     1       2.497   5.150  19.332  0.00  0.00    +0.000 A 
ATOM     17  C   UNL     1       1.915   4.719  18.118  0.00  0.00    +0.000 A 
ATOM     18  C   UNL     1       1.176   3.542  18.060  0.00  0.00    +0.000 A 
ATOM     19  C   UNL     1       0.992   2.792  19.213  0.00  0.00    +0.000 A 
ATOM     20  F   UNL     1       0.288   1.652  19.127  0.00  0.00    +0.000 F 
ATOM     21  C   UNL     1       1.528   3.213  20.427  0.00  0.00    +0.000 A 
ATOM     22 BR   UNL     1       1.259   2.189  21.994  0.00  0.00    +0.000 Br
ATOM     23  C   UNL     1       2.281   4.390  20.493  0.00  0.00    +0.000 A 
ENDBRANCH   8  16
BRANCH  10  24
ATOM     24  O   UNL     1       6.178   4.833  19.138  0.00  0.00    +0.000 OA
ATOM     25  H   UNL     1       5.424   4.430  19.610  0.00  0.00    +0.000 HD
ENDBRANCH  10  24
TORSDOF 2
ENDMDL
MODEL 8
REMARK VINA RESULT:      -7.2      9.964     12.854
REMARK  Name = 
REMARK  2 active torsions:
REMARK  status: ('A' for Active; 'I' for Inactive)
REMARK    1  A    between atoms: C_8  and  C_9
REMARK    2  A    between atoms: C_18  and  O_19
REMARK                            x       y       z     vdW  Elec       q    Type
REMARK                         _______ _______ _______ _____ _____    ______ ____
ROOT
ATOM      1  O   UNL     1      -6.806  13.997  16.076  0.00  0.00    +0.000 OA
ATOM      2  C   UNL     1      -7.020  14.537  17.161  0.00  0.00    +0.000 C 
ATOM      3  C   UNL     1      -7.314  16.031  17.261  0.00  0.00    +0.000 C 
ATOM      4  N   UNL     1      -6.963  16.561  18.578  0.00  0.00    +0.000 NA
ATOM      5  C   UNL     1      -7.651  15.827  19.634  0.00  0.00    +0.000 C 
ATOM      6  C   UNL     1      -7.428  14.328  19.562  0.00  0.00    +0.000 C 
ATOM      7  C   UNL     1      -7.105  13.715  18.404  0.00  0.00    +0.000 C 
ATOM      8  C   UNL     1      -6.849  12.224  18.305  0.00  0.00    +0.000 C 
ATOM      9  C   UNL     1      -7.269  11.564  19.570  0.00  0.00    +0.000 C 
ATOM     10  C   UNL     1      -7.544  10.349  20.026  0.00  0.00    +0.000 C 
ATOM     11  O   UNL     1      -7.779  10.196  21.385  0.00  0.00    +0.000 OA
ATOM     12  C   UNL     1      -7.655  11.514  21.954  0.00  0.00    +0.000 C 
ATOM     13  C   UNL     1      -7.484  12.381  20.753  0.00  0.00    +0.000 C 
ATOM     14  N   UNL     1      -7.550  13.671  20.777  0.00  0.00    +0.000 NA
ATOM     15  H   UNL     1      -7.220  17.547  18.628  0.00  0.00    +0.000 HD
ENDROOT
BRANCH   8  16
ATOM     16  C   UNL     1      -5.362  11.940  18.070  0.00  0.00    +0.000 A 
ATOM     17  C   UNL     1      -4.417  12.198  19.090  0.00  0.00    +0.000 A 
ATOM     18  C   UNL     1      -3.076  11.871  18.919  0.00  0.00    +0.000 A 
ATOM     19  C   UNL     1      -2.657  11.303  17.724  0.00  0.00    +0.000 A 
ATOM     20  F   UNL     1      -1.361  10.983  17.590  0.00  0.00    +0.000 F 
ATOM     21  C   UNL     1      -3.563  11.070  16.693  0.00  0.00    +0.000 A 
ATOM     22 BR   UNL     1      -2.976  10.307  15.064  0.00  0.00    +0.000 Br
ATOM     23  C   UNL     1      -4.915  11.386  16.859  0.00  0.00    +0.000 A 
ENDBRANCH   8  16
BRANCH  10  24
ATOM     24  O   UNL     1      -7.610   9.243  19.234  0.00  0.00    +0.000 OA
ATOM     25  H   UNL     1      -6.850   9.340  18.629  0.00  0.00    +0.000 HD
ENDBRANCH  10  24
TORSDOF 2
ENDMDL
MODEL 9
REMARK VINA RESULT:      -6.8      2.164      4.659
REMARK  Name = 
REMARK  2 active torsions:
REMARK  status: ('A' for Active; 'I' for Inactive)
REMARK    1  A    between atoms: C_8  and  C_9
REMARK    2  A    between atoms: C_18  and  O_19
REMARK                            x       y       z     vdW  Elec       q    Type
REMARK                         _______ _______ _______ _____ _____    ______ ____
ROOT
ATOM      1  O   UNL     1       5.671   5.789  19.685  0.00  0.00    +0.000 OA
ATOM      2  C   UNL     1       5.358   5.245  18.626  0.00  0.00    +0.000 C 
ATOM      3  C   UNL     1       6.322   5.195  17.444  0.00  0.00    +0.000 C 
ATOM      4  N   UNL     1       5.609   5.060  16.174  0.00  0.00    +0.000 NA
ATOM      5  C   UNL     1       4.743   3.887  16.187  0.00  0.00    +0.000 C 
ATOM      6  C   UNL     1       3.787   3.862  17.365  0.00  0.00    +0.000 C 
ATOM      7  C   UNL     1       4.058   4.521  18.510  0.00  0.00    +0.000 C 
ATOM      8  C   UNL     1       3.112   4.538  19.694  0.00  0.00    +0.000 C 
ATOM      9  C   UNL     1       2.037   3.532  19.484  0.00  0.00    +0.000 C 
ATOM     10  C   UNL     1       1.109   2.893  20.184  0.00  0.00    +0.000 C 
ATOM     11  O   UNL     1       0.199   2.100  19.497  0.00  0.00    +0.000 OA
ATOM     12  C   UNL     1       0.564   2.203  18.106  0.00  0.00    +0.000 C 
ATOM     13  C   UNL     1       1.827   2.994  18.150  0.00  0.00    +0.000 C 
ATOM     14  N   UNL     1       2.622   3.144  17.143  0.00  0.00    +0.000 NA
ATOM     15  H   UNL     1       6.282   4.977  15.413  0.00  0.00    +0.000 HD
ENDROOT
BRANCH   8  16
ATOM     16  C   UNL     1       2.471   5.920  19.861  0.00  0.00    +0.000 A 
ATOM     17  C   UNL     1       1.827   6.264  21.071  0.00  0.00    +0.000 A 
ATOM     18  C   UNL     1       1.310   7.542  21.265  0.00  0.00    +0.000 A 
ATOM     19  C   UNL     1       1.410   8.482  20.250  0.00  0.00    +0.000 A 
ATOM     20  F   UNL     1       0.917   9.711  20.468  0.00  0.00    +0.000 F 
ATOM     21  C   UNL     1       2.011   8.156  19.036  0.00  0.00    +0.000 A 
ATOM     22 BR   UNL     1       2.129   9.442  17.655  0.00  0.00    +0.000 Br
ATOM     23  C   UNL     1       2.542   6.877  18.836  0.00  0.00    +0.000 A 
ENDBRANCH   8  16
BRANCH  10  24
ATOM     24  O   UNL     1       0.999   2.970  21.539  0.00  0.00    +0.000 OA
ATOM     25  H   UNL     1       1.788   2.498  21.868  0.00  0.00    +0.000 HD
ENDBRANCH  10  24
TORSDOF 2
ENDMDL
