MODEL 1
REMARK VINA RESULT:      -7.9      0.000      0.000
REMARK  Name = 
REMARK  6 active torsions:
REMARK  status: ('A' for Active; 'I' for Inactive)
REMARK    1  A    between atoms: C_1  and  C_2
REMARK    2  A    between atoms: C_7  and  N_8
REMARK    3  A    between atoms: C_9  and  S_10
REMARK    4  A    between atoms: N_11  and  C_12
REMARK    5  A    between atoms: C_12  and  C_13
REMARK    6  A    between atoms: C_22  and  C_23
REMARK                            x       y       z     vdW  Elec       q    Type
REMARK                         _______ _______ _______ _____ _____    ______ ____
ROOT
ATOM      1  N   UNL     1       3.996   4.164  19.263  0.00  0.00    +0.000 N 
ATOM      2  C   UNL     1       3.068   4.916  19.947  0.00  0.00    +0.000 C 
ATOM      3  N   UNL     1       2.770   6.146  19.718  0.00  0.00    +0.000 NA
ATOM      4  H   UNL     1       4.255   3.291  19.701  0.00  0.00    +0.000 HD
ENDROOT
BRANCH   1  11
ATOM      5  C   UNL     1       8.278   5.407  12.863  0.00  0.00    +0.000 C 
ATOM      6  C   UNL     1       7.308   4.974  13.918  0.00  0.00    +0.000 A 
ATOM      7  N   UNL     1       7.424   5.596  15.113  0.00  0.00    +0.000 NA
ATOM      8  C   UNL     1       6.556   5.246  16.074  0.00  0.00    +0.000 A 
ATOM      9  C   UNL     1       6.610   5.919  17.280  0.00  0.00    +0.000 A 
ATOM     10  C   UNL     1       5.743   5.605  18.320  0.00  0.00    +0.000 A 
ATOM     11  C   UNL     1       4.817   4.573  18.195  0.00  0.00    +0.000 A 
ATOM     12  C   UNL     1       4.751   3.907  16.956  0.00  0.00    +0.000 A 
ATOM     13  C   UNL     1       5.587   4.240  15.884  0.00  0.00    +0.000 A 
ATOM     14  N   UNL     1       5.466   3.628  14.684  0.00  0.00    +0.000 NA
ATOM     15  C   UNL     1       6.314   4.023  13.691  0.00  0.00    +0.000 A 
ATOM     16  C   UNL     1       6.091   3.445  12.326  0.00  0.00    +0.000 C 
ENDBRANCH   1  11
BRANCH   2  17
ATOM     17  S   UNL     1       2.324   3.972  21.242  0.00  0.00    +0.000 S 
ATOM     18  H   UNL     1       1.490   4.932  21.660  0.00  0.00    +0.000 HD
ENDBRANCH   2  17
BRANCH   3  19
ATOM     19  C   UNL     1       1.786   6.856  20.536  0.00  0.00    +0.000 C 
BRANCH  19  20
ATOM     20  C   UNL     1       1.437   8.247  20.039  0.00  0.00    +0.000 A 
ATOM     21  C   UNL     1       0.708   9.172  20.797  0.00  0.00    +0.000 A 
ATOM     22  C   UNL     1       0.404  10.437  20.280  0.00  0.00    +0.000 A 
ATOM     23  C   UNL     1       0.824  10.792  18.999  0.00  0.00    +0.000 A 
ATOM     24  C   UNL     1       1.552   9.883  18.234  0.00  0.00    +0.000 A 
ATOM     25  C   UNL     1       1.856   8.623  18.752  0.00  0.00    +0.000 A 
ENDBRANCH  19  20
ENDBRANCH   3  19
TORSDOF 4
ENDMDL
MODEL 2
REMARK VINA RESULT:      -7.8      0.207      1.022
REMARK  Name = 
REMARK  6 active torsions:
REMARK  status: ('A' for Active; 'I' for Inactive)
REMARK    1  A    between atoms: C_1  and  C_2
REMARK    2  A    between atoms: C_7  and  N_8
REMARK    3  A    between atoms: C_9  and  S_10
REMARK    4  A    between atoms: N_11  and  C_12
REMARK    5  A    between atoms: C_12  and  C_13
REMARK    6  A    between atoms: C_22  and  C_23
REMARK                            x       y       z     vdW  Elec       q    Type
REMARK                         _______ _______ _______ _____ _____    ______ ____
ROOT
ATOM      1  N   UNL     1       3.991   3.994  19.257  0.00  0.00    +0.000 N 
ATOM      2  C   UNL     1       3.076   4.737  19.967  0.00  0.00    +0.000 C 
ATOM      3  N   UNL     1       2.791   5.977  19.774  0.00  0.00    +0.000 NA
ATOM      4  H   UNL     1       4.242   3.106  19.670  0.00  0.00    +0.000 HD
ENDROOT
BRANCH   1  11
ATOM      5  C   UNL     1       8.249   5.363  12.866  0.00  0.00    +0.000 C 
ATOM      6  C   UNL     1       7.280   4.912  13.916  0.00  0.00    +0.000 A 
ATOM      7  N   UNL     1       7.412   5.498  15.127  0.00  0.00    +0.000 NA
ATOM      8  C   UNL     1       6.545   5.133  16.083  0.00  0.00    +0.000 A 
ATOM      9  C   UNL     1       6.615   5.771  17.308  0.00  0.00    +0.000 A 
ATOM     10  C   UNL     1       5.751   5.438  18.344  0.00  0.00    +0.000 A 
ATOM     11  C   UNL     1       4.810   4.422  18.196  0.00  0.00    +0.000 A 
ATOM     12  C   UNL     1       4.728   3.793  16.939  0.00  0.00    +0.000 A 
ATOM     13  C   UNL     1       5.561   4.145  15.871  0.00  0.00    +0.000 A 
ATOM     14  N   UNL     1       5.424   3.570  14.655  0.00  0.00    +0.000 NA
ATOM     15  C   UNL     1       6.272   3.981  13.668  0.00  0.00    +0.000 A 
ATOM     16  C   UNL     1       6.032   3.446  12.288  0.00  0.00    +0.000 C 
ENDBRANCH   1  11
BRANCH   2  17
ATOM     17  S   UNL     1       2.328   3.768  21.240  0.00  0.00    +0.000 S 
ATOM     18  H   UNL     1       3.461   3.489  21.895  0.00  0.00    +0.000 HD
ENDBRANCH   2  17
BRANCH   3  19
ATOM     19  C   UNL     1       1.821   6.676  20.617  0.00  0.00    +0.000 C 
BRANCH  19  20
ATOM     20  C   UNL     1       1.469   8.076  20.148  0.00  0.00    +0.000 A 
ATOM     21  C   UNL     1       1.757   8.550  18.862  0.00  0.00    +0.000 A 
ATOM     22  C   UNL     1       1.420   9.857  18.491  0.00  0.00    +0.000 A 
ATOM     23  C   UNL     1       0.793  10.706  19.401  0.00  0.00    +0.000 A 
ATOM     24  C   UNL     1       0.498  10.248  20.683  0.00  0.00    +0.000 A 
ATOM     25  C   UNL     1       0.833   8.943  21.051  0.00  0.00    +0.000 A 
ENDBRANCH  19  20
ENDBRANCH   3  19
TORSDOF 4
ENDMDL
MODEL 3
REMARK VINA RESULT:      -7.6      4.312      6.360
REMARK  Name = 
REMARK  6 active torsions:
REMARK  status: ('A' for Active; 'I' for Inactive)
REMARK    1  A    between atoms: C_1  and  C_2
REMARK    2  A    between atoms: C_7  and  N_8
REMARK    3  A    between atoms: C_9  and  S_10
REMARK    4  A    between atoms: N_11  and  C_12
REMARK    5  A    between atoms: C_12  and  C_13
REMARK    6  A    between atoms: C_22  and  C_23
REMARK                            x       y       z     vdW  Elec       q    Type
REMARK                         _______ _______ _______ _____ _____    ______ ____
ROOT
ATOM      1  N   UNL     1       1.493   9.727  20.257  0.00  0.00    +0.000 N 
ATOM      2  C   UNL     1       0.364  10.484  20.044  0.00  0.00    +0.000 C 
ATOM      3  N   UNL     1      -0.676  10.126  19.376  0.00  0.00    +0.000 NA
ATOM      4  H   UNL     1       2.291  10.231  20.619  0.00  0.00    +0.000 HD
ENDROOT
BRANCH   1  11
ATOM      5  C   UNL     1       3.038   2.228  18.770  0.00  0.00    +0.000 C 
ATOM      6  C   UNL     1       2.649   3.565  19.321  0.00  0.00    +0.000 A 
ATOM      7  N   UNL     1       2.802   4.613  18.481  0.00  0.00    +0.000 NA
ATOM      8  C   UNL     1       2.441   5.822  18.936  0.00  0.00    +0.000 A 
ATOM      9  C   UNL     1       2.522   6.897  18.071  0.00  0.00    +0.000 A 
ATOM     10  C   UNL     1       2.169   8.177  18.479  0.00  0.00    +0.000 A 
ATOM     11  C   UNL     1       1.759   8.428  19.786  0.00  0.00    +0.000 A 
ATOM     12  C   UNL     1       1.657   7.325  20.655  0.00  0.00    +0.000 A 
ATOM     13  C   UNL     1       1.967   6.022  20.249  0.00  0.00    +0.000 A 
ATOM     14  N   UNL     1       1.804   4.969  21.083  0.00  0.00    +0.000 NA
ATOM     15  C   UNL     1       2.120   3.733  20.600  0.00  0.00    +0.000 A 
ATOM     16  C   UNL     1       1.811   2.554  21.473  0.00  0.00    +0.000 C 
ENDBRANCH   1  11
BRANCH   2  17
ATOM     17  S   UNL     1       0.520  12.074  20.798  0.00  0.00    +0.000 S 
ATOM     18  H   UNL     1       0.099  12.778  19.740  0.00  0.00    +0.000 HD
ENDBRANCH   2  17
BRANCH   3  19
ATOM     19  C   UNL     1      -1.809  11.032  19.186  0.00  0.00    +0.000 C 
BRANCH  19  20
ATOM     20  C   UNL     1      -2.538  10.865  17.866  0.00  0.00    +0.000 A 
ATOM     21  C   UNL     1      -3.744  11.513  17.567  0.00  0.00    +0.000 A 
ATOM     22  C   UNL     1      -4.378  11.309  16.336  0.00  0.00    +0.000 A 
ATOM     23  C   UNL     1      -3.816  10.454  15.389  0.00  0.00    +0.000 A 
ATOM     24  C   UNL     1      -2.616   9.804  15.671  0.00  0.00    +0.000 A 
ATOM     25  C   UNL     1      -1.983  10.010  16.899  0.00  0.00    +0.000 A 
ENDBRANCH  19  20
ENDBRANCH   3  19
TORSDOF 4
ENDMDL
MODEL 4
REMARK VINA RESULT:      -7.5      3.446      5.612
REMARK  Name = 
REMARK  6 active torsions:
REMARK  status: ('A' for Active; 'I' for Inactive)
REMARK    1  A    between atoms: C_1  and  C_2
REMARK    2  A    between atoms: C_7  and  N_8
REMARK    3  A    between atoms: C_9  and  S_10
REMARK    4  A    between atoms: N_11  and  C_12
REMARK    5  A    between atoms: C_12  and  C_13
REMARK    6  A    between atoms: C_22  and  C_23
REMARK                            x       y       z     vdW  Elec       q    Type
REMARK                         _______ _______ _______ _____ _____    ______ ____
ROOT
ATOM      1  N   UNL     1       0.968   9.219  20.884  0.00  0.00    +0.000 N 
ATOM      2  C   UNL     1      -0.099  10.048  20.623  0.00  0.00    +0.000 C 
ATOM      3  N   UNL     1      -0.715  10.161  19.499  0.00  0.00    +0.000 NA
ATOM      4  H   UNL     1       1.461   9.405  21.747  0.00  0.00    +0.000 HD
ENDROOT
BRANCH   1  11
ATOM      5  C   UNL     1       4.841   3.746  16.897  0.00  0.00    +0.000 C 
ATOM      6  C   UNL     1       4.075   4.585  17.873  0.00  0.00    +0.000 A 
ATOM      7  N   UNL     1       3.765   5.834  17.458  0.00  0.00    +0.000 NA
ATOM      8  C   UNL     1       3.060   6.604  18.300  0.00  0.00    +0.000 A 
ATOM      9  C   UNL     1       2.670   7.858  17.869  0.00  0.00    +0.000 A 
ATOM     10  C   UNL     1       1.942   8.708  18.691  0.00  0.00    +0.000 A 
ATOM     11  C   UNL     1       1.614   8.341  19.994  0.00  0.00    +0.000 A 
ATOM     12  C   UNL     1       1.994   7.053  20.419  0.00  0.00    +0.000 A 
ATOM     13  C   UNL     1       2.690   6.167  19.589  0.00  0.00    +0.000 A 
ATOM     14  N   UNL     1       2.991   4.914  19.997  0.00  0.00    +0.000 NA
ATOM     15  C   UNL     1       3.661   4.114  19.118  0.00  0.00    +0.000 A 
ATOM     16  C   UNL     1       3.875   2.683  19.516  0.00  0.00    +0.000 C 
ENDBRANCH   1  11
BRANCH   2  17
ATOM     17  S   UNL     1      -0.525  10.997  22.050  0.00  0.00    +0.000 S 
ATOM     18  H   UNL     1       0.592  11.735  22.073  0.00  0.00    +0.000 HD
ENDBRANCH   2  17
BRANCH   3  19
ATOM     19  C   UNL     1      -1.819  11.105  19.327  0.00  0.00    +0.000 C 
BRANCH  19  20
ATOM     20  C   UNL     1      -2.576  10.962  18.019  0.00  0.00    +0.000 A 
ATOM     21  C   UNL     1      -3.838  11.529  17.796  0.00  0.00    +0.000 A 
ATOM     22  C   UNL     1      -4.494  11.351  16.573  0.00  0.00    +0.000 A 
ATOM     23  C   UNL     1      -3.898  10.604  15.558  0.00  0.00    +0.000 A 
ATOM     24  C   UNL     1      -2.643  10.035  15.764  0.00  0.00    +0.000 A 
ATOM     25  C   UNL     1      -1.989  10.215  16.985  0.00  0.00    +0.000 A 
ENDBRANCH  19  20
ENDBRANCH   3  19
TORSDOF 4
ENDMDL
MODEL 5
REMARK VINA RESULT:      -7.5      4.176      6.345
REMARK  Name = 
REMARK  6 active torsions:
REMARK  status: ('A' for Active; 'I' for Inactive)
REMARK    1  A    between atoms: C_1  and  C_2
REMARK    2  A    between atoms: C_7  and  N_8
REMARK    3  A    between atoms: C_9  and  S_10
REMARK    4  A    between atoms: N_11  and  C_12
REMARK    5  A    between atoms: C_12  and  C_13
REMARK    6  A    between atoms: C_22  and  C_23
REMARK                            x       y       z     vdW  Elec       q    Type
REMARK                         _______ _______ _______ _____ _____    ______ ____
ROOT
ATOM      1  N   UNL     1       1.810   9.642  19.644  0.00  0.00    +0.000 N 
ATOM      2  C   UNL     1       0.637  10.359  19.579  0.00  0.00    +0.000 C 
ATOM      3  N   UNL     1      -0.510   9.907  19.212  0.00  0.00    +0.000 NA
ATOM      4  H   UNL     1       2.650  10.194  19.748  0.00  0.00    +0.000 HD
ENDROOT
BRANCH   1  11
ATOM      5  C   UNL     1       2.939   1.953  18.974  0.00  0.00    +0.000 C 
ATOM      6  C   UNL     1       2.616   3.360  19.373  0.00  0.00    +0.000 A 
ATOM      7  N   UNL     1       2.856   4.306  18.438  0.00  0.00    +0.000 NA
ATOM      8  C   UNL     1       2.557   5.574  18.757  0.00  0.00    +0.000 A 
ATOM      9  C   UNL     1       2.727   6.549  17.791  0.00  0.00    +0.000 A 
ATOM     10  C   UNL     1       2.440   7.882  18.055  0.00  0.00    +0.000 A 
ATOM     11  C   UNL     1       2.010   8.288  19.316  0.00  0.00    +0.000 A 
ATOM     12  C   UNL     1       1.816   7.288  20.288  0.00  0.00    +0.000 A 
ATOM     13  C   UNL     1       2.058   5.934  20.026  0.00  0.00    +0.000 A 
ATOM     14  N   UNL     1       1.808   4.984  20.955  0.00  0.00    +0.000 NA
ATOM     15  C   UNL     1       2.062   3.689  20.610  0.00  0.00    +0.000 A 
ATOM     16  C   UNL     1       1.657   2.625  21.586  0.00  0.00    +0.000 C 
ENDBRANCH   1  11
BRANCH   2  17
ATOM     17  S   UNL     1       0.900  12.042  20.046  0.00  0.00    +0.000 S 
ATOM     18  H   UNL     1       0.978  12.528  18.802  0.00  0.00    +0.000 HD
ENDBRANCH   2  17
BRANCH   3  19
ATOM     19  C   UNL     1      -1.686  10.775  19.148  0.00  0.00    +0.000 C 
BRANCH  19  20
ATOM     20  C   UNL     1      -2.458  10.699  17.844  0.00  0.00    +0.000 A 
ATOM     21  C   UNL     1      -2.073   9.887  16.769  0.00  0.00    +0.000 A 
ATOM     22  C   UNL     1      -2.817   9.870  15.584  0.00  0.00    +0.000 A 
ATOM     23  C   UNL     1      -3.955  10.665  15.458  0.00  0.00    +0.000 A 
ATOM     24  C   UNL     1      -4.352  11.477  16.518  0.00  0.00    +0.000 A 
ATOM     25  C   UNL     1      -3.609  11.491  17.701  0.00  0.00    +0.000 A 
ENDBRANCH  19  20
ENDBRANCH   3  19
TORSDOF 4
ENDMDL
MODEL 6
REMARK VINA RESULT:      -7.4      3.203      5.174
REMARK  Name = 
REMARK  6 active torsions:
REMARK  status: ('A' for Active; 'I' for Inactive)
REMARK    1  A    between atoms: C_1  and  C_2
REMARK    2  A    between atoms: C_7  and  N_8
REMARK    3  A    between atoms: C_9  and  S_10
REMARK    4  A    between atoms: N_11  and  C_12
REMARK    5  A    between atoms: C_12  and  C_13
REMARK    6  A    between atoms: C_22  and  C_23
REMARK                            x       y       z     vdW  Elec       q    Type
REMARK                         _______ _______ _______ _____ _____    ______ ____
ROOT
ATOM      1  N   UNL     1       1.139   8.528  20.879  0.00  0.00    +0.000 N 
ATOM      2  C   UNL     1       0.160   9.475  20.684  0.00  0.00    +0.000 C 
ATOM      3  N   UNL     1      -0.317   9.852  19.550  0.00  0.00    +0.000 NA
ATOM      4  H   UNL     1       1.541   8.503  21.806  0.00  0.00    +0.000 HD
ENDROOT
BRANCH   1  11
ATOM      5  C   UNL     1       5.145   3.656  16.290  0.00  0.00    +0.000 C 
ATOM      6  C   UNL     1       4.326   4.347  17.336  0.00  0.00    +0.000 A 
ATOM      7  N   UNL     1       4.107   5.665  17.134  0.00  0.00    +0.000 NA
ATOM      8  C   UNL     1       3.357   6.309  18.042  0.00  0.00    +0.000 A 
ATOM      9  C   UNL     1       3.060   7.640  17.819  0.00  0.00    +0.000 A 
ATOM     10  C   UNL     1       2.293   8.368  18.720  0.00  0.00    +0.000 A 
ATOM     11  C   UNL     1       1.831   7.791  19.900  0.00  0.00    +0.000 A 
ATOM     12  C   UNL     1       2.117   6.428  20.110  0.00  0.00    +0.000 A 
ATOM     13  C   UNL     1       2.851   5.668  19.192  0.00  0.00    +0.000 A 
ATOM     14  N   UNL     1       3.062   4.346  19.384  0.00  0.00    +0.000 NA
ATOM     15  C   UNL     1       3.779   3.682  18.433  0.00  0.00    +0.000 A 
ATOM     16  C   UNL     1       3.897   2.194  18.576  0.00  0.00    +0.000 C 
ENDBRANCH   1  11
BRANCH   2  17
ATOM     17  S   UNL     1      -0.369  10.160  22.224  0.00  0.00    +0.000 S 
ATOM     18  H   UNL     1      -0.711  11.360  21.739  0.00  0.00    +0.000 HD
ENDBRANCH   2  17
BRANCH   3  19
ATOM     19  C   UNL     1      -1.337  10.897  19.462  0.00  0.00    +0.000 C 
BRANCH  19  20
ATOM     20  C   UNL     1      -2.214  10.822  18.226  0.00  0.00    +0.000 A 
ATOM     21  C   UNL     1      -1.892  10.052  17.101  0.00  0.00    +0.000 A 
ATOM     22  C   UNL     1      -2.734  10.032  15.984  0.00  0.00    +0.000 A 
ATOM     23  C   UNL     1      -3.909  10.783  15.977  0.00  0.00    +0.000 A 
ATOM     24  C   UNL     1      -4.244  11.552  17.089  0.00  0.00    +0.000 A 
ATOM     25  C   UNL     1      -3.404  11.569  18.204  0.00  0.00    +0.000 A 
ENDBRANCH  19  20
ENDBRANCH   3  19
TORSDOF 4
ENDMDL
MODEL 7
REMARK VINA RESULT:      -7.3      4.541      9.216
REMARK  Name = 
REMARK  6 active torsions:
REMARK  status: ('A' for Active; 'I' for Inactive)
REMARK    1  A    between atoms: C_1  and  C_2
REMARK    2  A    between atoms: C_7  and  N_8
REMARK    3  A    between atoms: C_9  and  S_10
REMARK    4  A    between atoms: N_11  and  C_12
REMARK    5  A    between atoms: C_12  and  C_13
REMARK    6  A    between atoms: C_22  and  C_23
REMARK                            x       y       z     vdW  Elec       q    Type
REMARK                         _______ _______ _______ _____ _____    ______ ____
ROOT
ATOM      1  N   UNL     1       1.757   9.232  17.864  0.00  0.00    +0.000 N 
ATOM      2  C   UNL     1       2.378   8.106  18.356  0.00  0.00    +0.000 C 
ATOM      3  N   UNL     1       2.070   7.479  19.436  0.00  0.00    +0.000 NA
ATOM      4  H   UNL     1       2.252   9.714  17.126  0.00  0.00    +0.000 HD
ENDROOT
BRANCH   1  11
ATOM      5  C   UNL     1      -4.725  13.022  19.974  0.00  0.00    +0.000 C 
ATOM      6  C   UNL     1      -3.656  12.172  19.360  0.00  0.00    +0.000 A 
ATOM      7  N   UNL     1      -2.443  12.235  19.952  0.00  0.00    +0.000 NA
ATOM      8  C   UNL     1      -1.469  11.469  19.439  0.00  0.00    +0.000 A 
ATOM      9  C   UNL     1      -0.240  11.463  20.073  0.00  0.00    +0.000 A 
ATOM     10  C   UNL     1       0.814  10.696  19.592  0.00  0.00    +0.000 A 
ATOM     11  C   UNL     1       0.680   9.938  18.432  0.00  0.00    +0.000 A 
ATOM     12  C   UNL     1      -0.581   9.930  17.805  0.00  0.00    +0.000 A 
ATOM     13  C   UNL     1      -1.666  10.662  18.300  0.00  0.00    +0.000 A 
ATOM     14  N   UNL     1      -2.884  10.592  17.717  0.00  0.00    +0.000 NA
ATOM     15  C   UNL     1      -3.888  11.330  18.272  0.00  0.00    +0.000 A 
ATOM     16  C   UNL     1      -5.267  11.148  17.712  0.00  0.00    +0.000 C 
ENDBRANCH   1  11
BRANCH   2  17
ATOM     17  S   UNL     1       3.716   7.618  17.311  0.00  0.00    +0.000 S 
ATOM     18  H   UNL     1       3.018   6.742  16.580  0.00  0.00    +0.000 HD
ENDBRANCH   2  17
BRANCH   3  19
ATOM     19  C   UNL     1       2.827   6.308  19.879  0.00  0.00    +0.000 C 
BRANCH  19  20
ATOM     20  C   UNL     1       2.133   4.979  19.639  0.00  0.00    +0.000 A 
ATOM     21  C   UNL     1       1.940   4.434  18.363  0.00  0.00    +0.000 A 
ATOM     22  C   UNL     1       1.281   3.210  18.202  0.00  0.00    +0.000 A 
ATOM     23  C   UNL     1       0.806   2.516  19.314  0.00  0.00    +0.000 A 
ATOM     24  C   UNL     1       0.992   3.045  20.590  0.00  0.00    +0.000 A 
ATOM     25  C   UNL     1       1.652   4.266  20.749  0.00  0.00    +0.000 A 
ENDBRANCH  19  20
ENDBRANCH   3  19
TORSDOF 4
ENDMDL
MODEL 8
REMARK VINA RESULT:      -7.3      4.532      9.063
REMARK  Name = 
REMARK  6 active torsions:
REMARK  status: ('A' for Active; 'I' for Inactive)
REMARK    1  A    between atoms: C_1  and  C_2
REMARK    2  A    between atoms: C_7  and  N_8
REMARK    3  A    between atoms: C_9  and  S_10
REMARK    4  A    between atoms: N_11  and  C_12
REMARK    5  A    between atoms: C_12  and  C_13
REMARK    6  A    between atoms: C_22  and  C_23
REMARK                            x       y       z     vdW  Elec       q    Type
REMARK                         _______ _______ _______ _____ _____    ______ ____
ROOT
ATOM      1  N   UNL     1       1.900   9.081  17.835  0.00  0.00    +0.000 N 
ATOM      2  C   UNL     1       2.514   7.949  18.320  0.00  0.00    +0.000 C 
ATOM      3  N   UNL     1       2.215   7.328  19.406  0.00  0.00    +0.000 NA
ATOM      4  H   UNL     1       2.389   9.555  17.089  0.00  0.00    +0.000 HD
ENDROOT
BRANCH   1  11
ATOM      5  C   UNL     1      -4.493  12.977  20.025  0.00  0.00    +0.000 C 
ATOM      6  C   UNL     1      -3.444  12.114  19.394  0.00  0.00    +0.000 A 
ATOM      7  N   UNL     1      -2.229  12.141  19.984  0.00  0.00    +0.000 NA
ATOM      8  C   UNL     1      -1.273  11.362  19.456  0.00  0.00    +0.000 A 
ATOM      9  C   UNL     1      -0.043  11.319  20.085  0.00  0.00    +0.000 A 
ATOM     10  C   UNL     1       0.993  10.537  19.590  0.00  0.00    +0.000 A 
ATOM     11  C   UNL     1       0.840   9.801  18.418  0.00  0.00    +0.000 A 
ATOM     12  C   UNL     1      -0.423   9.831  17.794  0.00  0.00    +0.000 A 
ATOM     13  C   UNL     1      -1.491  10.578  18.304  0.00  0.00    +0.000 A 
ATOM     14  N   UNL     1      -2.711  10.545  17.723  0.00  0.00    +0.000 NA
ATOM     15  C   UNL     1      -3.697  11.296  18.294  0.00  0.00    +0.000 A 
ATOM     16  C   UNL     1      -5.081  11.153  17.734  0.00  0.00    +0.000 C 
ENDBRANCH   1  11
BRANCH   2  17
ATOM     17  S   UNL     1       3.831   7.443  17.256  0.00  0.00    +0.000 S 
ATOM     18  H   UNL     1       3.052   6.981  16.271  0.00  0.00    +0.000 HD
ENDBRANCH   2  17
BRANCH   3  19
ATOM     19  C   UNL     1       2.964   6.149  19.841  0.00  0.00    +0.000 C 
BRANCH  19  20
ATOM     20  C   UNL     1       2.187   4.847  19.775  0.00  0.00    +0.000 A 
ATOM     21  C   UNL     1       1.767   4.146  20.913  0.00  0.00    +0.000 A 
ATOM     22  C   UNL     1       1.064   2.941  20.790  0.00  0.00    +0.000 A 
ATOM     23  C   UNL     1       0.775   2.422  19.529  0.00  0.00    +0.000 A 
ATOM     24  C   UNL     1       1.186   3.108  18.389  0.00  0.00    +0.000 A 
ATOM     25  C   UNL     1       1.884   4.311  18.513  0.00  0.00    +0.000 A 
ENDBRANCH  19  20
ENDBRANCH   3  19
TORSDOF 4
ENDMDL
MODEL 9
REMARK VINA RESULT:      -7.2      3.044      5.125
REMARK  Name = 
REMARK  6 active torsions:
REMARK  status: ('A' for Active; 'I' for Inactive)
REMARK    1  A    between atoms: C_1  and  C_2
REMARK    2  A    between atoms: C_7  and  N_8
REMARK    3  A    between atoms: C_9  and  S_10
REMARK    4  A    between atoms: N_11  and  C_12
REMARK    5  A    between atoms: C_12  and  C_13
REMARK    6  A    between atoms: C_22  and  C_23
REMARK                            x       y       z     vdW  Elec       q    Type
REMARK                         _______ _______ _______ _____ _____    ______ ____
ROOT
ATOM      1  N   UNL     1       0.841   8.283  21.381  0.00  0.00    +0.000 N 
ATOM      2  C   UNL     1       0.228   9.420  20.904  0.00  0.00    +0.000 C 
ATOM      3  N   UNL     1       0.169   9.791  19.674  0.00  0.00    +0.000 NA
ATOM      4  H   UNL     1       0.976   8.250  22.382  0.00  0.00    +0.000 HD
ENDROOT
BRANCH   1  11
ATOM      5  C   UNL     1       4.774   3.680  16.464  0.00  0.00    +0.000 C 
ATOM      6  C   UNL     1       4.141   4.786  17.249  0.00  0.00    +0.000 A 
ATOM      7  N   UNL     1       3.378   4.401  18.296  0.00  0.00    +0.000 NA
ATOM      8  C   UNL     1       2.814   5.369  19.034  0.00  0.00    +0.000 A 
ATOM      9  C   UNL     1       2.088   5.000  20.151  0.00  0.00    +0.000 A 
ATOM     10  C   UNL     1       1.474   5.951  20.957  0.00  0.00    +0.000 A 
ATOM     11  C   UNL     1       1.536   7.307  20.644  0.00  0.00    +0.000 A 
ATOM     12  C   UNL     1       2.297   7.677  19.518  0.00  0.00    +0.000 A 
ATOM     13  C   UNL     1       2.958   6.736  18.720  0.00  0.00    +0.000 A 
ATOM     14  N   UNL     1       3.732   7.119  17.679  0.00  0.00    +0.000 NA
ATOM     15  C   UNL     1       4.348   6.135  16.962  0.00  0.00    +0.000 A 
ATOM     16  C   UNL     1       5.313   6.562  15.897  0.00  0.00    +0.000 C 
ENDBRANCH   1  11
BRANCH   2  17
ATOM     17  S   UNL     1      -0.469  10.361  22.226  0.00  0.00    +0.000 S 
ATOM     18  H   UNL     1       0.690  10.643  22.832  0.00  0.00    +0.000 HD
ENDBRANCH   2  17
BRANCH   3  19
ATOM     19  C   UNL     1      -0.483  11.043  19.287  0.00  0.00    +0.000 C 
BRANCH  19  20
ATOM     20  C   UNL     1      -1.684  10.874  18.374  0.00  0.00    +0.000 A 
ATOM     21  C   UNL     1      -1.694  10.013  17.269  0.00  0.00    +0.000 A 
ATOM     22  C   UNL     1      -2.827   9.910  16.455  0.00  0.00    +0.000 A 
ATOM     23  C   UNL     1      -3.964  10.666  16.734  0.00  0.00    +0.000 A 
ATOM     24  C   UNL     1      -3.970  11.526  17.831  0.00  0.00    +0.000 A 
ATOM     25  C   UNL     1      -2.839  11.626  18.644  0.00  0.00    +0.000 A 
ENDBRANCH  19  20
ENDBRANCH   3  19
TORSDOF 4
ENDMDL
