MODEL 1
REMARK VINA RESULT:      -8.0      0.000      0.000
REMARK  Name = 
REMARK  4 active torsions:
REMARK  status: ('A' for Active; 'I' for Inactive)
REMARK    1  A    between atoms: C_1  and  C_2
REMARK    2  A    between atoms: C_6  and  C_7
REMARK    3  A    between atoms: C_16  and  C_18
REMARK    4  A    between atoms: C_28  and  C_29
REMARK                            x       y       z     vdW  Elec       q    Type
REMARK                         _______ _______ _______ _____ _____    ______ ____
ROOT
ATOM      1  C   UNL     1       1.721   9.794  18.368  0.00  0.00    +0.000 C 
ATOM      2  C   UNL     1       2.203   8.425  18.734  0.00  0.00    +0.000 A 
ATOM      3  S   UNL     1       1.744   7.598  20.121  0.00  0.00    +0.000 S 
ATOM      4  C   UNL     1       2.603   6.216  19.733  0.00  0.00    +0.000 A 
ATOM      5  N   UNL     1       2.518   5.048  20.405  0.00  0.00    +0.000 NA
ATOM      6  C   UNL     1       3.165   3.958  19.924  0.00  0.00    +0.000 A 
ATOM      7  N   UNL     1       3.944   4.069  18.810  0.00  0.00    +0.000 NA
ATOM      8  C   UNL     1       4.084   5.234  18.108  0.00  0.00    +0.000 A 
ATOM      9  N   UNL     1       4.828   5.191  16.875  0.00  0.00    +0.000 N 
ATOM     10  C   UNL     1       5.728   6.235  16.390  0.00  0.00    +0.000 C 
ATOM     11  C   UNL     1       7.028   5.646  15.830  0.00  0.00    +0.000 C 
ATOM     12  N   UNL     1       6.688   4.570  14.896  0.00  0.00    +0.000 N 
ATOM     13  C   UNL     1       6.983   4.655  13.546  0.00  0.00    +0.000 C 
ATOM     14  O   UNL     1       7.452   5.692  13.098  0.00  0.00    +0.000 OA
ATOM     15  C   UNL     1       5.903   3.492  15.505  0.00  0.00    +0.000 C 
ATOM     16  C   UNL     1       4.590   4.070  15.996  0.00  0.00    +0.000 C 
ATOM     17  C   UNL     1       3.328   6.364  18.552  0.00  0.00    +0.000 A 
ATOM     18  C   UNL     1       3.057   7.637  17.954  0.00  0.00    +0.000 A 
ATOM     19  C   UNL     1       3.494   8.130  16.609  0.00  0.00    +0.000 C 
ENDROOT
BRANCH  13  20
ATOM     20  C   UNL     1       6.677   3.557  12.563  0.00  0.00    +0.000 A 
ATOM     21  C   UNL     1       7.713   2.822  11.957  0.00  0.00    +0.000 A 
ATOM     22  C   UNL     1       7.441   1.739  11.128  0.00  0.00    +0.000 A 
ATOM     23  C   UNL     1       6.124   1.390  10.846  0.00  0.00    +0.000 A 
ATOM     24  C   UNL     1       5.075   2.149  11.372  0.00  0.00    +0.000 A 
ATOM     25  C   UNL     1       5.341   3.233  12.224  0.00  0.00    +0.000 A 
ATOM     26  F   UNL     1       4.296   3.925  12.742  0.00  0.00    +0.000 F 
ENDBRANCH  13  20
BRANCH   6  27
ATOM     27  C   UNL     1       2.956   2.621  20.593  0.00  0.00    +0.000 C 
ATOM     28  C   UNL     1       1.787   2.546  21.577  0.00  0.00    +0.000 C 
ATOM     29  C   UNL     1       1.610   2.023  20.170  0.00  0.00    +0.000 C 
ENDBRANCH   6  27
TORSDOF 2
ENDMDL
MODEL 2
REMARK VINA RESULT:      -7.7      4.300      8.725
REMARK  Name = 
REMARK  4 active torsions:
REMARK  status: ('A' for Active; 'I' for Inactive)
REMARK    1  A    between atoms: C_1  and  C_2
REMARK    2  A    between atoms: C_6  and  C_7
REMARK    3  A    between atoms: C_16  and  C_18
REMARK    4  A    between atoms: C_28  and  C_29
REMARK                            x       y       z     vdW  Elec       q    Type
REMARK                         _______ _______ _______ _____ _____    ______ ____
ROOT
ATOM      1  C   UNL     1       2.717   2.129  21.569  0.00  0.00    +0.000 C 
ATOM      2  C   UNL     1       3.268   3.084  20.557  0.00  0.00    +0.000 A 
ATOM      3  S   UNL     1       4.588   2.762  19.571  0.00  0.00    +0.000 S 
ATOM      4  C   UNL     1       4.482   4.212  18.742  0.00  0.00    +0.000 A 
ATOM      5  N   UNL     1       5.202   4.519  17.643  0.00  0.00    +0.000 NA
ATOM      6  C   UNL     1       4.941   5.673  16.980  0.00  0.00    +0.000 A 
ATOM      7  N   UNL     1       4.004   6.536  17.466  0.00  0.00    +0.000 NA
ATOM      8  C   UNL     1       3.265   6.283  18.589  0.00  0.00    +0.000 A 
ATOM      9  N   UNL     1       2.214   7.211  18.926  0.00  0.00    +0.000 N 
ATOM     10  C   UNL     1       1.850   7.626  20.278  0.00  0.00    +0.000 C 
ATOM     11  C   UNL     1       1.609   9.137  20.360  0.00  0.00    +0.000 C 
ATOM     12  N   UNL     1       0.704   9.525  19.276  0.00  0.00    +0.000 N 
ATOM     13  C   UNL     1      -0.561  10.030  19.526  0.00  0.00    +0.000 C 
ATOM     14  O   UNL     1      -0.977  10.067  20.675  0.00  0.00    +0.000 OA
ATOM     15  C   UNL     1       1.215   9.198  17.941  0.00  0.00    +0.000 C 
ATOM     16  C   UNL     1       1.387   7.696  17.846  0.00  0.00    +0.000 C 
ATOM     17  C   UNL     1       3.465   5.025  19.239  0.00  0.00    +0.000 A 
ATOM     18  C   UNL     1       2.735   4.345  20.266  0.00  0.00    +0.000 A 
ATOM     19  C   UNL     1       1.476   4.789  20.945  0.00  0.00    +0.000 C 
ENDROOT
BRANCH  13  20
ATOM     20  C   UNL     1      -1.505  10.468  18.439  0.00  0.00    +0.000 A 
ATOM     21  C   UNL     1      -1.569   9.773  17.217  0.00  0.00    +0.000 A 
ATOM     22  C   UNL     1      -2.508  10.103  16.245  0.00  0.00    +0.000 A 
ATOM     23  C   UNL     1      -3.379  11.168  16.452  0.00  0.00    +0.000 A 
ATOM     24  C   UNL     1      -3.289  11.925  17.624  0.00  0.00    +0.000 A 
ATOM     25  C   UNL     1      -2.354  11.587  18.616  0.00  0.00    +0.000 A 
ATOM     26  F   UNL     1      -2.318  12.324  19.754  0.00  0.00    +0.000 F 
ENDBRANCH  13  20
BRANCH   6  27
ATOM     27  C   UNL     1       5.647   5.950  15.675  0.00  0.00    +0.000 C 
ATOM     28  C   UNL     1       6.788   4.994  15.320  0.00  0.00    +0.000 C 
ATOM     29  C   UNL     1       5.424   4.790  14.698  0.00  0.00    +0.000 C 
ENDBRANCH   6  27
TORSDOF 2
ENDMDL
MODEL 3
REMARK VINA RESULT:      -7.2      4.685      8.866
REMARK  Name = 
REMARK  4 active torsions:
REMARK  status: ('A' for Active; 'I' for Inactive)
REMARK    1  A    between atoms: C_1  and  C_2
REMARK    2  A    between atoms: C_6  and  C_7
REMARK    3  A    between atoms: C_16  and  C_18
REMARK    4  A    between atoms: C_28  and  C_29
REMARK                            x       y       z     vdW  Elec       q    Type
REMARK                         _______ _______ _______ _____ _____    ______ ____
ROOT
ATOM      1  C   UNL     1       1.182   1.254  18.948  0.00  0.00    +0.000 C 
ATOM      2  C   UNL     1       2.199   2.338  18.779  0.00  0.00    +0.000 A 
ATOM      3  S   UNL     1       3.735   2.106  18.142  0.00  0.00    +0.000 S 
ATOM      4  C   UNL     1       4.149   3.726  18.218  0.00  0.00    +0.000 A 
ATOM      5  N   UNL     1       5.265   4.257  17.676  0.00  0.00    +0.000 NA
ATOM      6  C   UNL     1       5.433   5.602  17.690  0.00  0.00    +0.000 A 
ATOM      7  N   UNL     1       4.511   6.394  18.308  0.00  0.00    +0.000 NA
ATOM      8  C   UNL     1       3.376   5.904  18.894  0.00  0.00    +0.000 A 
ATOM      9  N   UNL     1       2.415   6.852  19.397  0.00  0.00    +0.000 N 
ATOM     10  C   UNL     1       1.630   6.698  20.619  0.00  0.00    +0.000 C 
ATOM     11  C   UNL     1       1.586   7.997  21.432  0.00  0.00    +0.000 C 
ATOM     12  N   UNL     1       1.218   9.095  20.535  0.00  0.00    +0.000 N 
ATOM     13  C   UNL     1       0.034   9.797  20.689  0.00  0.00    +0.000 C 
ATOM     14  O   UNL     1      -0.774   9.435  21.533  0.00  0.00    +0.000 OA
ATOM     15  C   UNL     1       2.143   9.269  19.411  0.00  0.00    +0.000 C 
ATOM     16  C   UNL     1       2.129   8.005  18.576  0.00  0.00    +0.000 C 
ATOM     17  C   UNL     1       3.142   4.496  18.799  0.00  0.00    +0.000 A 
ATOM     18  C   UNL     1       1.994   3.689  19.083  0.00  0.00    +0.000 A 
ATOM     19  C   UNL     1       0.646   4.144  19.551  0.00  0.00    +0.000 C 
ENDROOT
BRANCH  13  20
ATOM     20  C   UNL     1      -0.363  10.951  19.807  0.00  0.00    +0.000 A 
ATOM     21  C   UNL     1       0.209  12.224  19.984  0.00  0.00    +0.000 A 
ATOM     22  C   UNL     1      -0.071  13.271  19.112  0.00  0.00    +0.000 A 
ATOM     23  C   UNL     1      -0.968  13.083  18.065  0.00  0.00    +0.000 A 
ATOM     24  C   UNL     1      -1.609  11.851  17.909  0.00  0.00    +0.000 A 
ATOM     25  C   UNL     1      -1.319  10.785  18.776  0.00  0.00    +0.000 A 
ATOM     26  F   UNL     1      -1.936   9.595  18.574  0.00  0.00    +0.000 F 
ENDBRANCH  13  20
BRANCH   6  27
ATOM     27  C   UNL     1       6.608   6.206  16.961  0.00  0.00    +0.000 C 
ATOM     28  C   UNL     1       6.943   7.655  17.323  0.00  0.00    +0.000 C 
ATOM     29  C   UNL     1       7.734   6.529  17.949  0.00  0.00    +0.000 C 
ENDBRANCH   6  27
TORSDOF 2
ENDMDL
MODEL 4
REMARK VINA RESULT:      -7.1      4.012      8.766
REMARK  Name = 
REMARK  4 active torsions:
REMARK  status: ('A' for Active; 'I' for Inactive)
REMARK    1  A    between atoms: C_1  and  C_2
REMARK    2  A    between atoms: C_6  and  C_7
REMARK    3  A    between atoms: C_16  and  C_18
REMARK    4  A    between atoms: C_28  and  C_29
REMARK                            x       y       z     vdW  Elec       q    Type
REMARK                         _______ _______ _______ _____ _____    ______ ____
ROOT
ATOM      1  C   UNL     1       1.077   1.151  19.334  0.00  0.00    +0.000 C 
ATOM      2  C   UNL     1       2.062   2.205  18.938  0.00  0.00    +0.000 A 
ATOM      3  S   UNL     1       3.494   1.902  18.117  0.00  0.00    +0.000 S 
ATOM      4  C   UNL     1       3.917   3.517  18.003  0.00  0.00    +0.000 A 
ATOM      5  N   UNL     1       4.948   3.988  17.269  0.00  0.00    +0.000 NA
ATOM      6  C   UNL     1       5.119   5.328  17.150  0.00  0.00    +0.000 A 
ATOM      7  N   UNL     1       4.292   6.179  17.822  0.00  0.00    +0.000 NA
ATOM      8  C   UNL     1       3.249   5.752  18.598  0.00  0.00    +0.000 A 
ATOM      9  N   UNL     1       2.368   6.751  19.149  0.00  0.00    +0.000 N 
ATOM     10  C   UNL     1       1.761   6.706  20.476  0.00  0.00    +0.000 C 
ATOM     11  C   UNL     1       1.831   8.067  21.178  0.00  0.00    +0.000 C 
ATOM     12  N   UNL     1       1.344   9.093  20.254  0.00  0.00    +0.000 N 
ATOM     13  C   UNL     1       0.194   9.821  20.512  0.00  0.00    +0.000 C 
ATOM     14  O   UNL     1      -0.489   9.539  21.485  0.00  0.00    +0.000 OA
ATOM     15  C   UNL     1       2.105   9.164  19.003  0.00  0.00    +0.000 C 
ATOM     16  C   UNL     1       1.974   7.837  18.283  0.00  0.00    +0.000 C 
ATOM     17  C   UNL     1       3.002   4.345  18.651  0.00  0.00    +0.000 A 
ATOM     18  C   UNL     1       1.903   3.578  19.156  0.00  0.00    +0.000 A 
ATOM     19  C   UNL     1       0.634   4.087  19.767  0.00  0.00    +0.000 C 
ENDROOT
BRANCH  13  20
ATOM     20  C   UNL     1      -0.319  10.904  19.601  0.00  0.00    +0.000 A 
ATOM     21  C   UNL     1       0.209  12.208  19.661  0.00  0.00    +0.000 A 
ATOM     22  C   UNL     1      -0.183  13.189  18.757  0.00  0.00    +0.000 A 
ATOM     23  C   UNL     1      -1.149  12.905  17.797  0.00  0.00    +0.000 A 
ATOM     24  C   UNL     1      -1.746  11.642  17.761  0.00  0.00    +0.000 A 
ATOM     25  C   UNL     1      -1.343  10.642  18.660  0.00  0.00    +0.000 A 
ATOM     26  F   UNL     1      -1.922   9.418  18.574  0.00  0.00    +0.000 F 
ENDBRANCH  13  20
BRANCH   6  27
ATOM     27  C   UNL     1       6.183   5.855  16.219  0.00  0.00    +0.000 C 
ATOM     28  C   UNL     1       7.009   4.797  15.486  0.00  0.00    +0.000 C 
ATOM     29  C   UNL     1       5.857   5.468  14.772  0.00  0.00    +0.000 C 
ENDBRANCH   6  27
TORSDOF 2
ENDMDL
MODEL 5
REMARK VINA RESULT:      -7.0     10.387     13.739
REMARK  Name = 
REMARK  4 active torsions:
REMARK  status: ('A' for Active; 'I' for Inactive)
REMARK    1  A    between atoms: C_1  and  C_2
REMARK    2  A    between atoms: C_6  and  C_7
REMARK    3  A    between atoms: C_16  and  C_18
REMARK    4  A    between atoms: C_28  and  C_29
REMARK                            x       y       z     vdW  Elec       q    Type
REMARK                         _______ _______ _______ _____ _____    ______ ____
ROOT
ATOM      1  C   UNL     1      11.886  17.918  22.175  0.00  0.00    +0.000 C 
ATOM      2  C   UNL     1      11.348  16.628  21.641  0.00  0.00    +0.000 A 
ATOM      3  S   UNL     1      11.932  15.852  20.272  0.00  0.00    +0.000 S 
ATOM      4  C   UNL     1      10.911  14.536  20.427  0.00  0.00    +0.000 A 
ATOM      5  N   UNL     1      10.994  13.411  19.686  0.00  0.00    +0.000 NA
ATOM      6  C   UNL     1      10.193  12.359  19.986  0.00  0.00    +0.000 A 
ATOM      7  N   UNL     1       9.272  12.472  20.985  0.00  0.00    +0.000 NA
ATOM      8  C   UNL     1       9.130  13.598  21.748  0.00  0.00    +0.000 A 
ATOM      9  N   UNL     1       8.212  13.547  22.859  0.00  0.00    +0.000 N 
ATOM     10  C   UNL     1       7.344  14.638  23.292  0.00  0.00    +0.000 C 
ATOM     11  C   UNL     1       5.931  14.141  23.617  0.00  0.00    +0.000 C 
ATOM     12  N   UNL     1       6.037  12.980  24.503  0.00  0.00    +0.000 N 
ATOM     13  C   UNL     1       5.556  13.006  25.802  0.00  0.00    +0.000 C 
ATOM     14  O   UNL     1       5.116  14.051  26.259  0.00  0.00    +0.000 OA
ATOM     15  C   UNL     1       6.808  11.873  23.928  0.00  0.00    +0.000 C 
ATOM     16  C   UNL     1       8.223  12.354  23.672  0.00  0.00    +0.000 C 
ATOM     17  C   UNL     1      10.036  14.677  21.504  0.00  0.00    +0.000 A 
ATOM     18  C   UNL     1      10.325  15.876  22.231  0.00  0.00    +0.000 A 
ATOM     19  C   UNL     1       9.739  16.321  23.535  0.00  0.00    +0.000 C 
ENDROOT
BRANCH  13  20
ATOM     20  C   UNL     1       5.620  11.822  26.729  0.00  0.00    +0.000 A 
ATOM     21  C   UNL     1       4.558  10.901  26.798  0.00  0.00    +0.000 A 
ATOM     22  C   UNL     1       4.649   9.749  27.573  0.00  0.00    +0.000 A 
ATOM     23  C   UNL     1       5.787   9.512  28.337  0.00  0.00    +0.000 A 
ATOM     24  C   UNL     1       6.826  10.447  28.349  0.00  0.00    +0.000 A 
ATOM     25  C   UNL     1       6.749  11.603  27.555  0.00  0.00    +0.000 A 
ATOM     26  F   UNL     1       7.791  12.471  27.567  0.00  0.00    +0.000 F 
ENDBRANCH  13  20
BRANCH   6  27
ATOM     27  C   UNL     1      10.383  11.054  19.251  0.00  0.00    +0.000 C 
ATOM     28  C   UNL     1       9.216  10.068  19.335  0.00  0.00    +0.000 C 
ATOM     29  C   UNL     1       9.368  10.939  18.108  0.00  0.00    +0.000 C 
ENDBRANCH   6  27
TORSDOF 2
ENDMDL
MODEL 6
REMARK VINA RESULT:      -7.0      4.119      8.826
REMARK  Name = 
REMARK  4 active torsions:
REMARK  status: ('A' for Active; 'I' for Inactive)
REMARK    1  A    between atoms: C_1  and  C_2
REMARK    2  A    between atoms: C_6  and  C_7
REMARK    3  A    between atoms: C_16  and  C_18
REMARK    4  A    between atoms: C_28  and  C_29
REMARK                            x       y       z     vdW  Elec       q    Type
REMARK                         _______ _______ _______ _____ _____    ______ ____
ROOT
ATOM      1  C   UNL     1       1.282   0.949  19.425  0.00  0.00    +0.000 C 
ATOM      2  C   UNL     1       2.232   2.020  18.990  0.00  0.00    +0.000 A 
ATOM      3  S   UNL     1       3.659   1.739  18.152  0.00  0.00    +0.000 S 
ATOM      4  C   UNL     1       4.036   3.361  17.995  0.00  0.00    +0.000 A 
ATOM      5  N   UNL     1       5.041   3.844  17.235  0.00  0.00    +0.000 NA
ATOM      6  C   UNL     1       5.174   5.185  17.084  0.00  0.00    +0.000 A 
ATOM      7  N   UNL     1       4.335   6.028  17.752  0.00  0.00    +0.000 NA
ATOM      8  C   UNL     1       3.317   5.590  18.553  0.00  0.00    +0.000 A 
ATOM      9  N   UNL     1       2.418   6.577  19.098  0.00  0.00    +0.000 N 
ATOM     10  C   UNL     1       1.833   6.544  20.436  0.00  0.00    +0.000 C 
ATOM     11  C   UNL     1       1.878   7.922  21.107  0.00  0.00    +0.000 C 
ATOM     12  N   UNL     1       1.348   8.914  20.169  0.00  0.00    +0.000 N 
ATOM     13  C   UNL     1       0.183   9.617  20.431  0.00  0.00    +0.000 C 
ATOM     14  O   UNL     1      -0.476   9.338  21.422  0.00  0.00    +0.000 OA
ATOM     15  C   UNL     1       2.087   8.978  18.904  0.00  0.00    +0.000 C 
ATOM     16  C   UNL     1       1.980   7.632  18.216  0.00  0.00    +0.000 C 
ATOM     17  C   UNL     1       3.109   4.178  18.641  0.00  0.00    +0.000 A 
ATOM     18  C   UNL     1       2.039   3.394  19.181  0.00  0.00    +0.000 A 
ATOM     19  C   UNL     1       0.767   3.881  19.802  0.00  0.00    +0.000 C 
ENDROOT
BRANCH  13  20
ATOM     20  C   UNL     1      -0.374  10.666  19.506  0.00  0.00    +0.000 A 
ATOM     21  C   UNL     1      -1.387  10.348  18.583  0.00  0.00    +0.000 A 
ATOM     22  C   UNL     1      -1.982  11.329  17.796  0.00  0.00    +0.000 A 
ATOM     23  C   UNL     1      -1.545  12.647  17.878  0.00  0.00    +0.000 A 
ATOM     24  C   UNL     1      -0.488  12.979  18.731  0.00  0.00    +0.000 A 
ATOM     25  C   UNL     1       0.105  11.997  19.541  0.00  0.00    +0.000 A 
ATOM     26  F   UNL     1       1.106  12.363  20.379  0.00  0.00    +0.000 F 
ENDBRANCH  13  20
BRANCH   6  27
ATOM     27  C   UNL     1       6.207   5.720  16.124  0.00  0.00    +0.000 C 
ATOM     28  C   UNL     1       6.997   4.668  15.343  0.00  0.00    +0.000 C 
ATOM     29  C   UNL     1       5.826   5.362  14.683  0.00  0.00    +0.000 C 
ENDBRANCH   6  27
TORSDOF 2
ENDMDL
MODEL 7
REMARK VINA RESULT:      -7.0      4.800      8.921
REMARK  Name = 
REMARK  4 active torsions:
REMARK  status: ('A' for Active; 'I' for Inactive)
REMARK    1  A    between atoms: C_1  and  C_2
REMARK    2  A    between atoms: C_6  and  C_7
REMARK    3  A    between atoms: C_16  and  C_18
REMARK    4  A    between atoms: C_28  and  C_29
REMARK                            x       y       z     vdW  Elec       q    Type
REMARK                         _______ _______ _______ _____ _____    ______ ____
ROOT
ATOM      1  C   UNL     1       1.200   1.088  18.983  0.00  0.00    +0.000 C 
ATOM      2  C   UNL     1       2.220   2.169  18.808  0.00  0.00    +0.000 A 
ATOM      3  S   UNL     1       3.761   1.927  18.188  0.00  0.00    +0.000 S 
ATOM      4  C   UNL     1       4.176   3.547  18.247  0.00  0.00    +0.000 A 
ATOM      5  N   UNL     1       5.297   4.070  17.707  0.00  0.00    +0.000 NA
ATOM      6  C   UNL     1       5.468   5.415  17.706  0.00  0.00    +0.000 A 
ATOM      7  N   UNL     1       4.541   6.215  18.306  0.00  0.00    +0.000 NA
ATOM      8  C   UNL     1       3.401   5.734  18.889  0.00  0.00    +0.000 A 
ATOM      9  N   UNL     1       2.437   6.690  19.372  0.00  0.00    +0.000 N 
ATOM     10  C   UNL     1       1.642   6.552  20.589  0.00  0.00    +0.000 C 
ATOM     11  C   UNL     1       1.593   7.862  21.385  0.00  0.00    +0.000 C 
ATOM     12  N   UNL     1       1.234   8.949  20.471  0.00  0.00    +0.000 N 
ATOM     13  C   UNL     1       0.050   9.655  20.607  0.00  0.00    +0.000 C 
ATOM     14  O   UNL     1      -0.765   9.305  21.448  0.00  0.00    +0.000 OA
ATOM     15  C   UNL     1       2.169   9.108  19.353  0.00  0.00    +0.000 C 
ATOM     16  C   UNL     1       2.161   7.833  18.533  0.00  0.00    +0.000 C 
ATOM     17  C   UNL     1       3.166   4.326  18.809  0.00  0.00    +0.000 A 
ATOM     18  C   UNL     1       2.014   3.524  19.094  0.00  0.00    +0.000 A 
ATOM     19  C   UNL     1       0.664   3.987  19.545  0.00  0.00    +0.000 C 
ENDROOT
BRANCH  13  20
ATOM     20  C   UNL     1      -0.337  10.798  19.707  0.00  0.00    +0.000 A 
ATOM     21  C   UNL     1      -1.268  10.614  18.668  0.00  0.00    +0.000 A 
ATOM     22  C   UNL     1      -1.711  11.683  17.896  0.00  0.00    +0.000 A 
ATOM     23  C   UNL     1      -1.199  12.958  18.113  0.00  0.00    +0.000 A 
ATOM     24  C   UNL     1      -0.217  13.157  19.087  0.00  0.00    +0.000 A 
ATOM     25  C   UNL     1       0.223  12.086  19.882  0.00  0.00    +0.000 A 
ATOM     26  F   UNL     1       1.153  12.325  20.839  0.00  0.00    +0.000 F 
ENDBRANCH  13  20
BRANCH   6  27
ATOM     27  C   UNL     1       6.650   6.008  16.979  0.00  0.00    +0.000 C 
ATOM     28  C   UNL     1       6.980   7.462  17.320  0.00  0.00    +0.000 C 
ATOM     29  C   UNL     1       7.766   6.347  17.973  0.00  0.00    +0.000 C 
ENDBRANCH   6  27
TORSDOF 2
ENDMDL
MODEL 8
REMARK VINA RESULT:      -6.8      4.802      8.663
REMARK  Name = 
REMARK  4 active torsions:
REMARK  status: ('A' for Active; 'I' for Inactive)
REMARK    1  A    between atoms: C_1  and  C_2
REMARK    2  A    between atoms: C_6  and  C_7
REMARK    3  A    between atoms: C_16  and  C_18
REMARK    4  A    between atoms: C_28  and  C_29
REMARK                            x       y       z     vdW  Elec       q    Type
REMARK                         _______ _______ _______ _____ _____    ______ ____
ROOT
ATOM      1  C   UNL     1       2.188   1.489  21.392  0.00  0.00    +0.000 C 
ATOM      2  C   UNL     1       2.998   2.555  20.725  0.00  0.00    +0.000 A 
ATOM      3  S   UNL     1       4.525   2.317  20.072  0.00  0.00    +0.000 S 
ATOM      4  C   UNL     1       4.659   3.879  19.489  0.00  0.00    +0.000 A 
ATOM      5  N   UNL     1       5.646   4.311  18.676  0.00  0.00    +0.000 NA
ATOM      6  C   UNL     1       5.583   5.566  18.165  0.00  0.00    +0.000 A 
ATOM      7  N   UNL     1       4.562   6.394  18.527  0.00  0.00    +0.000 NA
ATOM      8  C   UNL     1       3.551   6.014  19.366  0.00  0.00    +0.000 A 
ATOM      9  N   UNL     1       2.462   6.935  19.568  0.00  0.00    +0.000 N 
ATOM     10  C   UNL     1       1.762   7.157  20.830  0.00  0.00    +0.000 C 
ATOM     11  C   UNL     1       1.527   8.649  21.092  0.00  0.00    +0.000 C 
ATOM     12  N   UNL     1       0.943   9.247  19.890  0.00  0.00    +0.000 N 
ATOM     13  C   UNL     1      -0.337   9.777  19.886  0.00  0.00    +0.000 C 
ATOM     14  O   UNL     1      -1.039   9.661  20.880  0.00  0.00    +0.000 OA
ATOM     15  C   UNL     1       1.781   9.101  18.696  0.00  0.00    +0.000 C 
ATOM     16  C   UNL     1       1.953   7.624  18.406  0.00  0.00    +0.000 C 
ATOM     17  C   UNL     1       3.558   4.662  19.833  0.00  0.00    +0.000 A 
ATOM     18  C   UNL     1       2.576   3.874  20.515  0.00  0.00    +0.000 A 
ATOM     19  C   UNL     1       1.189   4.277  20.911  0.00  0.00    +0.000 C 
ENDROOT
BRANCH  13  20
ATOM     20  C   UNL     1      -0.958  10.427  18.678  0.00  0.00    +0.000 A 
ATOM     21  C   UNL     1      -1.638   9.659  17.715  0.00  0.00    +0.000 A 
ATOM     22  C   UNL     1      -2.304  10.257  16.650  0.00  0.00    +0.000 A 
ATOM     23  C   UNL     1      -2.266  11.639  16.495  0.00  0.00    +0.000 A 
ATOM     24  C   UNL     1      -1.535  12.422  17.392  0.00  0.00    +0.000 A 
ATOM     25  C   UNL     1      -0.875  11.826  18.479  0.00  0.00    +0.000 A 
ATOM     26  F   UNL     1      -0.203  12.622  19.347  0.00  0.00    +0.000 F 
ENDBRANCH  13  20
BRANCH   6  27
ATOM     27  C   UNL     1       6.609   5.999  17.147  0.00  0.00    +0.000 C 
ATOM     28  C   UNL     1       6.848   7.507  17.044  0.00  0.00    +0.000 C 
ATOM     29  C   UNL     1       7.804   6.655  17.848  0.00  0.00    +0.000 C 
ENDBRANCH   6  27
TORSDOF 2
ENDMDL
MODEL 9
REMARK VINA RESULT:      -6.6      4.081      8.590
REMARK  Name = 
REMARK  4 active torsions:
REMARK  status: ('A' for Active; 'I' for Inactive)
REMARK    1  A    between atoms: C_1  and  C_2
REMARK    2  A    between atoms: C_6  and  C_7
REMARK    3  A    between atoms: C_16  and  C_18
REMARK    4  A    between atoms: C_28  and  C_29
REMARK                            x       y       z     vdW  Elec       q    Type
REMARK                         _______ _______ _______ _____ _____    ______ ____
ROOT
ATOM      1  C   UNL     1       2.562   2.233  21.607  0.00  0.00    +0.000 C 
ATOM      2  C   UNL     1       3.153   3.180  20.612  0.00  0.00    +0.000 A 
ATOM      3  S   UNL     1       4.503   2.847  19.672  0.00  0.00    +0.000 S 
ATOM      4  C   UNL     1       4.434   4.293  18.834  0.00  0.00    +0.000 A 
ATOM      5  N   UNL     1       5.193   4.592  17.759  0.00  0.00    +0.000 NA
ATOM      6  C   UNL     1       4.961   5.745  17.083  0.00  0.00    +0.000 A 
ATOM      7  N   UNL     1       4.014   6.616  17.535  0.00  0.00    +0.000 NA
ATOM      8  C   UNL     1       3.236   6.372  18.633  0.00  0.00    +0.000 A 
ATOM      9  N   UNL     1       2.181   7.308  18.931  0.00  0.00    +0.000 N 
ATOM     10  C   UNL     1       1.775   7.730  20.269  0.00  0.00    +0.000 C 
ATOM     11  C   UNL     1       1.541   9.243  20.338  0.00  0.00    +0.000 C 
ATOM     12  N   UNL     1       0.675   9.632  19.223  0.00  0.00    +0.000 N 
ATOM     13  C   UNL     1      -0.594  10.147  19.429  0.00  0.00    +0.000 C 
ATOM     14  O   UNL     1      -1.048  10.191  20.563  0.00  0.00    +0.000 OA
ATOM     15  C   UNL     1       1.229   9.298  17.907  0.00  0.00    +0.000 C 
ATOM     16  C   UNL     1       1.394   7.794  17.822  0.00  0.00    +0.000 C 
ATOM     17  C   UNL     1       3.406   5.116  19.294  0.00  0.00    +0.000 A 
ATOM     18  C   UNL     1       2.638   4.444  20.299  0.00  0.00    +0.000 A 
ATOM     19  C   UNL     1       1.360   4.899  20.933  0.00  0.00    +0.000 C 
ENDROOT
BRANCH  13  20
ATOM     20  C   UNL     1      -1.499  10.587  18.309  0.00  0.00    +0.000 A 
ATOM     21  C   UNL     1      -1.228  11.761  17.582  0.00  0.00    +0.000 A 
ATOM     22  C   UNL     1      -1.996  12.122  16.480  0.00  0.00    +0.000 A 
ATOM     23  C   UNL     1      -3.085  11.342  16.104  0.00  0.00    +0.000 A 
ATOM     24  C   UNL     1      -3.424  10.211  16.853  0.00  0.00    +0.000 A 
ATOM     25  C   UNL     1      -2.643   9.831  17.956  0.00  0.00    +0.000 A 
ATOM     26  F   UNL     1      -2.983   8.710  18.639  0.00  0.00    +0.000 F 
ENDBRANCH  13  20
BRANCH   6  27
ATOM     27  C   UNL     1       5.712   6.012  15.802  0.00  0.00    +0.000 C 
ATOM     28  C   UNL     1       6.854   5.045  15.486  0.00  0.00    +0.000 C 
ATOM     29  C   UNL     1       5.510   4.853  14.820  0.00  0.00    +0.000 C 
ENDBRANCH   6  27
TORSDOF 2
ENDMDL
