MODEL 1
REMARK VINA RESULT:      -8.8      0.000      0.000
REMARK  Name = 
REMARK  5 active torsions:
REMARK  status: ('A' for Active; 'I' for Inactive)
REMARK    1  A    between atoms: C_4  and  C_5
REMARK    2  A    between atoms: N_13  and  C_14
REMARK    3  A    between atoms: C_14  and  C_15
REMARK    4  A    between atoms: N_24  and  C_25
REMARK    5  A    between atoms: C_29  and  C_30
REMARK                            x       y       z     vdW  Elec       q    Type
REMARK                         _______ _______ _______ _____ _____    ______ ____
ROOT
ATOM      1  C   UNL     1       2.060   6.493  19.849  0.00  0.00    +0.000 A 
ATOM      2  N   UNL     1       1.215   5.619  20.371  0.00  0.00    +0.000 NA
ATOM      3  C   UNL     1       1.326   4.471  19.634  0.00  0.00    +0.000 A 
ATOM      4  C   UNL     1       0.634   3.257  19.750  0.00  0.00    +0.000 A 
ATOM      5  C   UNL     1       0.966   2.204  18.888  0.00  0.00    +0.000 A 
ATOM      6  C   UNL     1       1.978   2.351  17.939  0.00  0.00    +0.000 A 
ATOM      7  C   UNL     1       2.661   3.561  17.796  0.00  0.00    +0.000 A 
ATOM      8  C   UNL     1       2.294   4.611  18.651  0.00  0.00    +0.000 A 
ATOM      9  N   UNL     1       2.668   5.941  18.730  0.00  0.00    +0.000 N 
ENDROOT
BRANCH   1  13
ATOM     10  O   UNL     1      -0.652   9.293  21.868  0.00  0.00    +0.000 OA
ATOM     11  C   UNL     1       0.362   9.071  21.224  0.00  0.00    +0.000 C 
ATOM     12  C   UNL     1       1.446   8.151  21.723  0.00  0.00    +0.000 C 
ATOM     13  C   UNL     1       2.271   7.847  20.488  0.00  0.00    +0.000 C 
ATOM     14  C   UNL     1       2.008   9.015  19.551  0.00  0.00    +0.000 C 
ATOM     15  N   UNL     1       0.713   9.526  19.940  0.00  0.00    +0.000 N 
BRANCH  15  16
ATOM     16  C   UNL     1      -0.139  10.283  19.083  0.00  0.00    +0.000 A 
ATOM     17  C   UNL     1       0.009  11.671  18.970  0.00  0.00    +0.000 A 
ATOM     18  C   UNL     1      -0.895  12.447  18.240  0.00  0.00    +0.000 A 
ATOM     19  C   UNL     1      -1.986  11.848  17.624  0.00  0.00    +0.000 A 
ATOM     20  C   UNL     1      -2.162  10.464  17.704  0.00  0.00    +0.000 A 
ATOM     21  C   UNL     1      -1.210   9.687  18.398  0.00  0.00    +0.000 A 
BRANCH  20  22
ATOM     22  C   UNL     1      -3.387   9.812  17.107  0.00  0.00    +0.000 C 
ATOM     23  F   UNL     1      -3.887   8.794  17.863  0.00  0.00    +0.000 F 
ATOM     24  F   UNL     1      -4.413  10.687  16.930  0.00  0.00    +0.000 F 
ATOM     25  F   UNL     1      -3.138   9.273  15.880  0.00  0.00    +0.000 F 
ENDBRANCH  20  22
ENDBRANCH  15  16
ENDBRANCH   1  13
BRANCH   9  26
ATOM     26  C   UNL     1       3.522   6.565  17.727  0.00  0.00    +0.000 C 
BRANCH  26  27
ATOM     27  C   UNL     1       4.936   6.039  17.639  0.00  0.00    +0.000 A 
ATOM     28  C   UNL     1       5.640   5.491  18.722  0.00  0.00    +0.000 A 
ATOM     29  F   UNL     1       5.103   5.437  19.946  0.00  0.00    +0.000 F 
ATOM     30  C   UNL     1       6.918   4.952  18.582  0.00  0.00    +0.000 A 
ATOM     31  C   UNL     1       7.541   4.954  17.344  0.00  0.00    +0.000 A 
ATOM     32  C   UNL     1       6.892   5.529  16.256  0.00  0.00    +0.000 A 
ATOM     33  C   UNL     1       5.612   6.077  16.405  0.00  0.00    +0.000 A 
ATOM     34 CL   UNL     1       4.911   6.832  15.012  0.00  0.00    +0.000 Cl
ENDBRANCH  26  27
ENDBRANCH   9  26
TORSDOF 5
ENDMDL
MODEL 2
REMARK VINA RESULT:      -8.7      3.890      9.318
REMARK  Name = 
REMARK  5 active torsions:
REMARK  status: ('A' for Active; 'I' for Inactive)
REMARK    1  A    between atoms: C_4  and  C_5
REMARK    2  A    between atoms: N_13  and  C_14
REMARK    3  A    between atoms: C_14  and  C_15
REMARK    4  A    between atoms: N_24  and  C_25
REMARK    5  A    between atoms: C_29  and  C_30
REMARK                            x       y       z     vdW  Elec       q    Type
REMARK                         _______ _______ _______ _____ _____    ______ ____
ROOT
ATOM      1  C   UNL     1       0.304  12.340  19.913  0.00  0.00    +0.000 A 
ATOM      2  N   UNL     1       1.498  12.167  19.369  0.00  0.00    +0.000 NA
ATOM      3  C   UNL     1       1.922  13.397  18.943  0.00  0.00    +0.000 A 
ATOM      4  C   UNL     1       3.102  13.761  18.277  0.00  0.00    +0.000 A 
ATOM      5  C   UNL     1       3.322  15.113  17.984  0.00  0.00    +0.000 A 
ATOM      6  C   UNL     1       2.396  16.085  18.360  0.00  0.00    +0.000 A 
ATOM      7  C   UNL     1       1.206  15.736  19.004  0.00  0.00    +0.000 A 
ATOM      8  C   UNL     1       0.992  14.374  19.264  0.00  0.00    +0.000 A 
ATOM      9  N   UNL     1      -0.081  13.667  19.776  0.00  0.00    +0.000 N 
ENDROOT
BRANCH   1  13
ATOM     10  O   UNL     1       1.581   9.292  22.802  0.00  0.00    +0.000 OA
ATOM     11  C   UNL     1       0.848   9.659  21.896  0.00  0.00    +0.000 C 
ATOM     12  C   UNL     1      -0.021  10.884  22.012  0.00  0.00    +0.000 C 
ATOM     13  C   UNL     1      -0.418  11.193  20.583  0.00  0.00    +0.000 C 
ATOM     14  C   UNL     1      -0.281   9.870  19.849  0.00  0.00    +0.000 C 
ATOM     15  N   UNL     1       0.693   9.117  20.607  0.00  0.00    +0.000 N 
BRANCH  15  16
ATOM     16  C   UNL     1       1.475   8.053  20.072  0.00  0.00    +0.000 A 
ATOM     17  C   UNL     1       2.159   8.205  18.860  0.00  0.00    +0.000 A 
ATOM     18  C   UNL     1       2.822   7.134  18.254  0.00  0.00    +0.000 A 
ATOM     19  C   UNL     1       2.793   5.876  18.840  0.00  0.00    +0.000 A 
ATOM     20  C   UNL     1       2.130   5.686  20.056  0.00  0.00    +0.000 A 
ATOM     21  C   UNL     1       1.513   6.789  20.684  0.00  0.00    +0.000 A 
BRANCH  20  22
ATOM     22  C   UNL     1       2.024   4.306  20.663  0.00  0.00    +0.000 C 
ATOM     23  F   UNL     1       2.783   3.371  20.027  0.00  0.00    +0.000 F 
ATOM     24  F   UNL     1       2.406   4.277  21.968  0.00  0.00    +0.000 F 
ATOM     25  F   UNL     1       0.747   3.829  20.635  0.00  0.00    +0.000 F 
ENDBRANCH  20  22
ENDBRANCH  15  16
ENDBRANCH   1  13
BRANCH   9  26
ATOM     26  C   UNL     1      -1.366  14.299  20.046  0.00  0.00    +0.000 C 
BRANCH  26  27
ATOM     27  C   UNL     1      -2.034  13.917  21.347  0.00  0.00    +0.000 A 
ATOM     28  C   UNL     1      -3.203  13.146  21.433  0.00  0.00    +0.000 A 
ATOM     29  F   UNL     1      -3.841  12.722  20.336  0.00  0.00    +0.000 F 
ATOM     30  C   UNL     1      -3.748  12.756  22.656  0.00  0.00    +0.000 A 
ATOM     31  C   UNL     1      -3.140  13.139  23.841  0.00  0.00    +0.000 A 
ATOM     32  C   UNL     1      -2.004  13.943  23.796  0.00  0.00    +0.000 A 
ATOM     33  C   UNL     1      -1.467  14.339  22.564  0.00  0.00    +0.000 A 
ATOM     34 CL   UNL     1      -0.094  15.393  22.606  0.00  0.00    +0.000 Cl
ENDBRANCH  26  27
ENDBRANCH   9  26
TORSDOF 5
ENDMDL
MODEL 3
REMARK VINA RESULT:      -8.7      4.166      9.363
REMARK  Name = 
REMARK  5 active torsions:
REMARK  status: ('A' for Active; 'I' for Inactive)
REMARK    1  A    between atoms: C_4  and  C_5
REMARK    2  A    between atoms: N_13  and  C_14
REMARK    3  A    between atoms: C_14  and  C_15
REMARK    4  A    between atoms: N_24  and  C_25
REMARK    5  A    between atoms: C_29  and  C_30
REMARK                            x       y       z     vdW  Elec       q    Type
REMARK                         _______ _______ _______ _____ _____    ______ ____
ROOT
ATOM      1  C   UNL     1       0.351  12.499  19.777  0.00  0.00    +0.000 A 
ATOM      2  N   UNL     1       1.498  12.291  19.150  0.00  0.00    +0.000 NA
ATOM      3  C   UNL     1       1.958  13.517  18.750  0.00  0.00    +0.000 A 
ATOM      4  C   UNL     1       3.111  13.852  18.024  0.00  0.00    +0.000 A 
ATOM      5  C   UNL     1       3.384  15.203  17.775  0.00  0.00    +0.000 A 
ATOM      6  C   UNL     1       2.536  16.202  18.252  0.00  0.00    +0.000 A 
ATOM      7  C   UNL     1       1.372  15.883  18.957  0.00  0.00    +0.000 A 
ATOM      8  C   UNL     1       1.104  14.524  19.172  0.00  0.00    +0.000 A 
ATOM      9  N   UNL     1       0.029  13.848  19.722  0.00  0.00    +0.000 N 
ENDROOT
BRANCH   1  13
ATOM     10  O   UNL     1       1.574   9.451  22.690  0.00  0.00    +0.000 OA
ATOM     11  C   UNL     1       0.854   9.820  21.775  0.00  0.00    +0.000 C 
ATOM     12  C   UNL     1      -0.007  11.053  21.878  0.00  0.00    +0.000 C 
ATOM     13  C   UNL     1      -0.387  11.360  20.443  0.00  0.00    +0.000 C 
ATOM     14  C   UNL     1      -0.251  10.033  19.715  0.00  0.00    +0.000 C 
ATOM     15  N   UNL     1       0.709   9.276  20.487  0.00  0.00    +0.000 N 
BRANCH  15  16
ATOM     16  C   UNL     1       1.488   8.203  19.964  0.00  0.00    +0.000 A 
ATOM     17  C   UNL     1       2.184   8.345  18.757  0.00  0.00    +0.000 A 
ATOM     18  C   UNL     1       2.845   7.267  18.162  0.00  0.00    +0.000 A 
ATOM     19  C   UNL     1       2.803   6.012  18.753  0.00  0.00    +0.000 A 
ATOM     20  C   UNL     1       2.127   5.832  19.964  0.00  0.00    +0.000 A 
ATOM     21  C   UNL     1       1.513   6.942  20.582  0.00  0.00    +0.000 A 
BRANCH  20  22
ATOM     22  C   UNL     1       2.006   4.456  20.577  0.00  0.00    +0.000 C 
ATOM     23  F   UNL     1       0.728   3.986  20.612  0.00  0.00    +0.000 F 
ATOM     24  F   UNL     1       2.733   3.520  19.909  0.00  0.00    +0.000 F 
ATOM     25  F   UNL     1       2.448   4.425  21.866  0.00  0.00    +0.000 F 
ENDBRANCH  20  22
ENDBRANCH  15  16
ENDBRANCH   1  13
BRANCH   9  26
ATOM     26  C   UNL     1      -1.201  14.531  20.103  0.00  0.00    +0.000 C 
BRANCH  26  27
ATOM     27  C   UNL     1      -1.631  14.372  21.543  0.00  0.00    +0.000 A 
ATOM     28  C   UNL     1      -0.877  14.813  22.641  0.00  0.00    +0.000 A 
ATOM     29  F   UNL     1       0.323  15.382  22.479  0.00  0.00    +0.000 F 
ATOM     30  C   UNL     1      -1.342  14.710  23.952  0.00  0.00    +0.000 A 
ATOM     31  C   UNL     1      -2.583  14.148  24.206  0.00  0.00    +0.000 A 
ATOM     32  C   UNL     1      -3.340  13.658  23.145  0.00  0.00    +0.000 A 
ATOM     33  C   UNL     1      -2.863  13.755  21.832  0.00  0.00    +0.000 A 
ATOM     34 CL   UNL     1      -3.841  13.058  20.585  0.00  0.00    +0.000 Cl
ENDBRANCH  26  27
ENDBRANCH   9  26
TORSDOF 5
ENDMDL
MODEL 4
REMARK VINA RESULT:      -8.6      3.768      8.843
REMARK  Name = 
REMARK  5 active torsions:
REMARK  status: ('A' for Active; 'I' for Inactive)
REMARK    1  A    between atoms: C_4  and  C_5
REMARK    2  A    between atoms: N_13  and  C_14
REMARK    3  A    between atoms: C_14  and  C_15
REMARK    4  A    between atoms: N_24  and  C_25
REMARK    5  A    between atoms: C_29  and  C_30
REMARK                            x       y       z     vdW  Elec       q    Type
REMARK                         _______ _______ _______ _____ _____    ______ ____
ROOT
ATOM      1  C   UNL     1      -0.324  10.373  18.613  0.00  0.00    +0.000 A 
ATOM      2  N   UNL     1      -0.715   9.806  17.483  0.00  0.00    +0.000 NA
ATOM      3  C   UNL     1      -2.012  10.193  17.274  0.00  0.00    +0.000 A 
ATOM      4  C   UNL     1      -2.897   9.850  16.241  0.00  0.00    +0.000 A 
ATOM      5  C   UNL     1      -4.176  10.422  16.230  0.00  0.00    +0.000 A 
ATOM      6  C   UNL     1      -4.561  11.328  17.218  0.00  0.00    +0.000 A 
ATOM      7  C   UNL     1      -3.698  11.662  18.265  0.00  0.00    +0.000 A 
ATOM      8  C   UNL     1      -2.433  11.058  18.272  0.00  0.00    +0.000 A 
ATOM      9  N   UNL     1      -1.385  11.069  19.176  0.00  0.00    +0.000 N 
ENDROOT
BRANCH   1  13
ATOM     10  O   UNL     1       3.170   8.234  17.037  0.00  0.00    +0.000 OA
ATOM     11  C   UNL     1       2.549   8.712  17.973  0.00  0.00    +0.000 C 
ATOM     12  C   UNL     1       2.177  10.171  18.030  0.00  0.00    +0.000 C 
ATOM     13  C   UNL     1       1.102  10.238  19.097  0.00  0.00    +0.000 C 
ATOM     14  C   UNL     1       1.341   9.013  19.964  0.00  0.00    +0.000 C 
ATOM     15  N   UNL     1       2.013   8.066  19.102  0.00  0.00    +0.000 N 
BRANCH  15  16
ATOM     16  C   UNL     1       2.017   6.656  19.313  0.00  0.00    +0.000 A 
ATOM     17  C   UNL     1       1.684   6.117  20.561  0.00  0.00    +0.000 A 
ATOM     18  C   UNL     1       1.808   4.750  20.826  0.00  0.00    +0.000 A 
ATOM     19  C   UNL     1       2.294   3.894  19.848  0.00  0.00    +0.000 A 
ATOM     20  C   UNL     1       2.627   4.392  18.584  0.00  0.00    +0.000 A 
ATOM     21  C   UNL     1       2.443   5.765  18.314  0.00  0.00    +0.000 A 
BRANCH  20  22
ATOM     22  C   UNL     1       3.233   3.485  17.538  0.00  0.00    +0.000 C 
ATOM     23  F   UNL     1       4.049   4.133  16.661  0.00  0.00    +0.000 F 
ATOM     24  F   UNL     1       3.981   2.487  18.080  0.00  0.00    +0.000 F 
ATOM     25  F   UNL     1       2.283   2.871  16.777  0.00  0.00    +0.000 F 
ENDBRANCH  20  22
ENDBRANCH  15  16
ENDBRANCH   1  13
BRANCH   9  26
ATOM     26  C   UNL     1      -1.501  11.695  20.487  0.00  0.00    +0.000 C 
BRANCH  26  27
ATOM     27  C   UNL     1      -1.589  13.204  20.497  0.00  0.00    +0.000 A 
ATOM     28  C   UNL     1      -0.620  14.051  19.938  0.00  0.00    +0.000 A 
ATOM     29  F   UNL     1       0.495  13.564  19.381  0.00  0.00    +0.000 F 
ATOM     30  C   UNL     1      -0.773  15.437  19.905  0.00  0.00    +0.000 A 
ATOM     31  C   UNL     1      -1.907  16.022  20.445  0.00  0.00    +0.000 A 
ATOM     32  C   UNL     1      -2.869  15.218  21.049  0.00  0.00    +0.000 A 
ATOM     33  C   UNL     1      -2.704  13.827  21.087  0.00  0.00    +0.000 A 
ATOM     34 CL   UNL     1      -3.918  12.913  21.918  0.00  0.00    +0.000 Cl
ENDBRANCH  26  27
ENDBRANCH   9  26
TORSDOF 5
ENDMDL
MODEL 5
REMARK VINA RESULT:      -8.6      3.466      8.448
REMARK  Name = 
REMARK  5 active torsions:
REMARK  status: ('A' for Active; 'I' for Inactive)
REMARK    1  A    between atoms: C_4  and  C_5
REMARK    2  A    between atoms: N_13  and  C_14
REMARK    3  A    between atoms: C_14  and  C_15
REMARK    4  A    between atoms: N_24  and  C_25
REMARK    5  A    between atoms: C_29  and  C_30
REMARK                            x       y       z     vdW  Elec       q    Type
REMARK                         _______ _______ _______ _____ _____    ______ ____
ROOT
ATOM      1  C   UNL     1      -0.437  10.404  18.438  0.00  0.00    +0.000 A 
ATOM      2  N   UNL     1      -0.734   9.742  17.331  0.00  0.00    +0.000 NA
ATOM      3  C   UNL     1      -2.004  10.111  16.977  0.00  0.00    +0.000 A 
ATOM      4  C   UNL     1      -2.799   9.681  15.905  0.00  0.00    +0.000 A 
ATOM      5  C   UNL     1      -4.068  10.250  15.734  0.00  0.00    +0.000 A 
ATOM      6  C   UNL     1      -4.530  11.238  16.603  0.00  0.00    +0.000 A 
ATOM      7  C   UNL     1      -3.759  11.660  17.689  0.00  0.00    +0.000 A 
ATOM      8  C   UNL     1      -2.503  11.058  17.858  0.00  0.00    +0.000 A 
ATOM      9  N   UNL     1      -1.538  11.146  18.845  0.00  0.00    +0.000 N 
ENDROOT
BRANCH   1  13
ATOM     10  O   UNL     1       3.264   8.410  17.175  0.00  0.00    +0.000 OA
ATOM     11  C   UNL     1       2.540   8.852  18.054  0.00  0.00    +0.000 C 
ATOM     12  C   UNL     1       2.113  10.297  18.092  0.00  0.00    +0.000 C 
ATOM     13  C   UNL     1       0.940  10.311  19.053  0.00  0.00    +0.000 C 
ATOM     14  C   UNL     1       1.140   9.082  19.925  0.00  0.00    +0.000 C 
ATOM     15  N   UNL     1       1.923   8.172  19.119  0.00  0.00    +0.000 N 
BRANCH  15  16
ATOM     16  C   UNL     1       1.958   6.760  19.312  0.00  0.00    +0.000 A 
ATOM     17  C   UNL     1       1.635   6.198  20.553  0.00  0.00    +0.000 A 
ATOM     18  C   UNL     1       1.789   4.831  20.801  0.00  0.00    +0.000 A 
ATOM     19  C   UNL     1       2.294   3.998  19.813  0.00  0.00    +0.000 A 
ATOM     20  C   UNL     1       2.617   4.518  18.556  0.00  0.00    +0.000 A 
ATOM     21  C   UNL     1       2.403   5.890  18.303  0.00  0.00    +0.000 A 
BRANCH  20  22
ATOM     22  C   UNL     1       3.242   3.637  17.500  0.00  0.00    +0.000 C 
ATOM     23  F   UNL     1       2.331   2.962  16.744  0.00  0.00    +0.000 F 
ATOM     24  F   UNL     1       4.013   4.336  16.624  0.00  0.00    +0.000 F 
ATOM     25  F   UNL     1       4.055   2.685  18.039  0.00  0.00    +0.000 F 
ENDBRANCH  20  22
ENDBRANCH  15  16
ENDBRANCH   1  13
BRANCH   9  26
ATOM     26  C   UNL     1      -1.761  11.883  20.082  0.00  0.00    +0.000 C 
BRANCH  26  27
ATOM     27  C   UNL     1      -0.824  13.039  20.346  0.00  0.00    +0.000 A 
ATOM     28  C   UNL     1      -0.304  13.874  19.345  0.00  0.00    +0.000 A 
ATOM     29  F   UNL     1      -0.582  13.668  18.052  0.00  0.00    +0.000 F 
ATOM     30  C   UNL     1       0.502  14.973  19.637  0.00  0.00    +0.000 A 
ATOM     31  C   UNL     1       0.823  15.267  20.953  0.00  0.00    +0.000 A 
ATOM     32  C   UNL     1       0.364  14.435  21.970  0.00  0.00    +0.000 A 
ATOM     33  C   UNL     1      -0.438  13.327  21.668  0.00  0.00    +0.000 A 
ATOM     34 CL   UNL     1      -0.906  12.311  22.990  0.00  0.00    +0.000 Cl
ENDBRANCH  26  27
ENDBRANCH   9  26
TORSDOF 5
ENDMDL
MODEL 6
REMARK VINA RESULT:      -8.6      3.894      8.733
REMARK  Name = 
REMARK  5 active torsions:
REMARK  status: ('A' for Active; 'I' for Inactive)
REMARK    1  A    between atoms: C_4  and  C_5
REMARK    2  A    between atoms: N_13  and  C_14
REMARK    3  A    between atoms: C_14  and  C_15
REMARK    4  A    between atoms: N_24  and  C_25
REMARK    5  A    between atoms: C_29  and  C_30
REMARK                            x       y       z     vdW  Elec       q    Type
REMARK                         _______ _______ _______ _____ _____    ______ ____
ROOT
ATOM      1  C   UNL     1      -0.104  10.039  18.612  0.00  0.00    +0.000 A 
ATOM      2  N   UNL     1      -0.511   9.529  17.460  0.00  0.00    +0.000 NA
ATOM      3  C   UNL     1      -1.770  10.018  17.234  0.00  0.00    +0.000 A 
ATOM      4  C   UNL     1      -2.654   9.768  16.175  0.00  0.00    +0.000 A 
ATOM      5  C   UNL     1      -3.886  10.435  16.152  0.00  0.00    +0.000 A 
ATOM      6  C   UNL     1      -4.224  11.344  17.154  0.00  0.00    +0.000 A 
ATOM      7  C   UNL     1      -3.363  11.587  18.226  0.00  0.00    +0.000 A 
ATOM      8  C   UNL     1      -2.147  10.889  18.244  0.00  0.00    +0.000 A 
ATOM      9  N   UNL     1      -1.122  10.800  19.170  0.00  0.00    +0.000 N 
ENDROOT
BRANCH   1  13
ATOM     10  O   UNL     1       3.374   7.991  16.883  0.00  0.00    +0.000 OA
ATOM     11  C   UNL     1       2.733   8.365  17.853  0.00  0.00    +0.000 C 
ATOM     12  C   UNL     1       2.410   9.817  18.092  0.00  0.00    +0.000 C 
ATOM     13  C   UNL     1       1.297   9.785  19.121  0.00  0.00    +0.000 C 
ATOM     14  C   UNL     1       1.460   8.448  19.825  0.00  0.00    +0.000 C 
ATOM     15  N   UNL     1       2.132   7.598  18.867  0.00  0.00    +0.000 N 
BRANCH  15  16
ATOM     16  C   UNL     1       2.079   6.173  18.887  0.00  0.00    +0.000 A 
ATOM     17  C   UNL     1       1.721   5.453  17.741  0.00  0.00    +0.000 A 
ATOM     18  C   UNL     1       1.537   4.068  17.774  0.00  0.00    +0.000 A 
ATOM     19  C   UNL     1       1.684   3.375  18.968  0.00  0.00    +0.000 A 
ATOM     20  C   UNL     1       2.052   4.057  20.132  0.00  0.00    +0.000 A 
ATOM     21  C   UNL     1       2.290   5.446  20.070  0.00  0.00    +0.000 A 
BRANCH  20  22
ATOM     22  C   UNL     1       2.137   3.327  21.452  0.00  0.00    +0.000 C 
ATOM     23  F   UNL     1       3.106   2.370  21.485  0.00  0.00    +0.000 F 
ATOM     24  F   UNL     1       2.396   4.160  22.496  0.00  0.00    +0.000 F 
ATOM     25  F   UNL     1       0.974   2.687  21.763  0.00  0.00    +0.000 F 
ENDBRANCH  20  22
ENDBRANCH  15  16
ENDBRANCH   1  13
BRANCH   9  26
ATOM     26  C   UNL     1      -1.219  11.403  20.493  0.00  0.00    +0.000 C 
BRANCH  26  27
ATOM     27  C   UNL     1      -1.238  12.914  20.535  0.00  0.00    +0.000 A 
ATOM     28  C   UNL     1      -0.244  13.727  19.971  0.00  0.00    +0.000 A 
ATOM     29  F   UNL     1       0.834  13.202  19.379  0.00  0.00    +0.000 F 
ATOM     30  C   UNL     1      -0.335  15.119  19.970  0.00  0.00    +0.000 A 
ATOM     31  C   UNL     1      -1.429  15.744  20.548  0.00  0.00    +0.000 A 
ATOM     32  C   UNL     1      -2.412  14.971  21.158  0.00  0.00    +0.000 A 
ATOM     33  C   UNL     1      -2.310  13.573  21.164  0.00  0.00    +0.000 A 
ATOM     34 CL   UNL     1      -3.545  12.697  22.004  0.00  0.00    +0.000 Cl
ENDBRANCH  26  27
ENDBRANCH   9  26
TORSDOF 5
ENDMDL
MODEL 7
REMARK VINA RESULT:      -8.5      3.914      8.551
REMARK  Name = 
REMARK  5 active torsions:
REMARK  status: ('A' for Active; 'I' for Inactive)
REMARK    1  A    between atoms: C_4  and  C_5
REMARK    2  A    between atoms: N_13  and  C_14
REMARK    3  A    between atoms: C_14  and  C_15
REMARK    4  A    between atoms: N_24  and  C_25
REMARK    5  A    between atoms: C_29  and  C_30
REMARK                            x       y       z     vdW  Elec       q    Type
REMARK                         _______ _______ _______ _____ _____    ______ ____
ROOT
ATOM      1  C   UNL     1       0.278   9.906  18.853  0.00  0.00    +0.000 A 
ATOM      2  N   UNL     1      -0.206   9.674  17.643  0.00  0.00    +0.000 NA
ATOM      3  C   UNL     1      -1.472  10.195  17.616  0.00  0.00    +0.000 A 
ATOM      4  C   UNL     1      -2.424  10.191  16.587  0.00  0.00    +0.000 A 
ATOM      5  C   UNL     1      -3.648  10.839  16.796  0.00  0.00    +0.000 A 
ATOM      6  C   UNL     1      -3.914  11.491  18.000  0.00  0.00    +0.000 A 
ATOM      7  C   UNL     1      -2.984  11.485  19.043  0.00  0.00    +0.000 A 
ATOM      8  C   UNL     1      -1.776  10.808  18.822  0.00  0.00    +0.000 A 
ATOM      9  N   UNL     1      -0.695  10.513  19.635  0.00  0.00    +0.000 N 
ENDROOT
BRANCH   1  13
ATOM     10  O   UNL     1       3.370   7.601  16.755  0.00  0.00    +0.000 OA
ATOM     11  C   UNL     1       2.876   8.024  17.789  0.00  0.00    +0.000 C 
ATOM     12  C   UNL     1       2.691   9.496  18.048  0.00  0.00    +0.000 C 
ATOM     13  C   UNL     1       1.706   9.549  19.199  0.00  0.00    +0.000 C 
ATOM     14  C   UNL     1       1.850   8.205  19.893  0.00  0.00    +0.000 C 
ATOM     15  N   UNL     1       2.341   7.305  18.874  0.00  0.00    +0.000 N 
BRANCH  15  16
ATOM     16  C   UNL     1       2.186   5.889  18.915  0.00  0.00    +0.000 A 
ATOM     17  C   UNL     1       1.692   5.189  17.807  0.00  0.00    +0.000 A 
ATOM     18  C   UNL     1       1.409   3.822  17.870  0.00  0.00    +0.000 A 
ATOM     19  C   UNL     1       1.594   3.128  19.057  0.00  0.00    +0.000 A 
ATOM     20  C   UNL     1       2.096   3.788  20.183  0.00  0.00    +0.000 A 
ATOM     21  C   UNL     1       2.430   5.156  20.088  0.00  0.00    +0.000 A 
BRANCH  20  22
ATOM     22  C   UNL     1       2.225   3.063  21.502  0.00  0.00    +0.000 C 
ATOM     23  F   UNL     1       1.145   2.291  21.808  0.00  0.00    +0.000 F 
ATOM     24  F   UNL     1       3.303   2.234  21.541  0.00  0.00    +0.000 F 
ATOM     25  F   UNL     1       2.374   3.922  22.550  0.00  0.00    +0.000 F 
ENDBRANCH  20  22
ENDBRANCH  15  16
ENDBRANCH   1  13
BRANCH   9  26
ATOM     26  C   UNL     1      -0.703  10.793  21.065  0.00  0.00    +0.000 C 
BRANCH  26  27
ATOM     27  C   UNL     1      -0.447  12.229  21.462  0.00  0.00    +0.000 A 
ATOM     28  C   UNL     1       0.675  12.968  21.055  0.00  0.00    +0.000 A 
ATOM     29  F   UNL     1       1.635  12.420  20.302  0.00  0.00    +0.000 F 
ATOM     30  C   UNL     1       0.839  14.312  21.385  0.00  0.00    +0.000 A 
ATOM     31  C   UNL     1      -0.118  14.961  22.149  0.00  0.00    +0.000 A 
ATOM     32  C   UNL     1      -1.222  14.249  22.609  0.00  0.00    +0.000 A 
ATOM     33  C   UNL     1      -1.376  12.896  22.281  0.00  0.00    +0.000 A 
ATOM     34 CL   UNL     1      -2.744  12.073  22.954  0.00  0.00    +0.000 Cl
ENDBRANCH  26  27
ENDBRANCH   9  26
TORSDOF 5
ENDMDL
MODEL 8
REMARK VINA RESULT:      -8.3      3.779      9.091
REMARK  Name = 
REMARK  5 active torsions:
REMARK  status: ('A' for Active; 'I' for Inactive)
REMARK    1  A    between atoms: C_4  and  C_5
REMARK    2  A    between atoms: N_13  and  C_14
REMARK    3  A    between atoms: C_14  and  C_15
REMARK    4  A    between atoms: N_24  and  C_25
REMARK    5  A    between atoms: C_29  and  C_30
REMARK                            x       y       z     vdW  Elec       q    Type
REMARK                         _______ _______ _______ _____ _____    ______ ____
ROOT
ATOM      1  C   UNL     1       0.823  12.061  18.948  0.00  0.00    +0.000 A 
ATOM      2  N   UNL     1       2.052  12.022  18.458  0.00  0.00    +0.000 NA
ATOM      3  C   UNL     1       2.513  13.311  18.441  0.00  0.00    +0.000 A 
ATOM      4  C   UNL     1       3.739  13.821  17.991  0.00  0.00    +0.000 A 
ATOM      5  C   UNL     1       3.990  15.193  18.124  0.00  0.00    +0.000 A 
ATOM      6  C   UNL     1       3.045  16.037  18.706  0.00  0.00    +0.000 A 
ATOM      7  C   UNL     1       1.810  15.548  19.139  0.00  0.00    +0.000 A 
ATOM      8  C   UNL     1       1.569  14.176  18.972  0.00  0.00    +0.000 A 
ATOM      9  N   UNL     1       0.458  13.379  19.182  0.00  0.00    +0.000 N 
ENDROOT
BRANCH   1  13
ATOM     10  O   UNL     1       1.498   8.638  21.612  0.00  0.00    +0.000 OA
ATOM     11  C   UNL     1       1.022   9.116  20.594  0.00  0.00    +0.000 C 
ATOM     12  C   UNL     1       0.048  10.265  20.625  0.00  0.00    +0.000 C 
ATOM     13  C   UNL     1       0.048  10.788  19.202  0.00  0.00    +0.000 C 
ATOM     14  C   UNL     1       0.507   9.611  18.357  0.00  0.00    +0.000 C 
ATOM     15  N   UNL     1       1.290   8.788  19.253  0.00  0.00    +0.000 N 
BRANCH  15  16
ATOM     16  C   UNL     1       2.284   7.862  18.823  0.00  0.00    +0.000 A 
ATOM     17  C   UNL     1       3.137   8.169  17.756  0.00  0.00    +0.000 A 
ATOM     18  C   UNL     1       4.028   7.227  17.236  0.00  0.00    +0.000 A 
ATOM     19  C   UNL     1       4.068   5.943  17.761  0.00  0.00    +0.000 A 
ATOM     20  C   UNL     1       3.241   5.600  18.835  0.00  0.00    +0.000 A 
ATOM     21  C   UNL     1       2.386   6.579  19.386  0.00  0.00    +0.000 A 
BRANCH  20  22
ATOM     22  C   UNL     1       3.217   4.184  19.363  0.00  0.00    +0.000 C 
ATOM     23  F   UNL     1       2.857   3.260  18.428  0.00  0.00    +0.000 F 
ATOM     24  F   UNL     1       4.425   3.784  19.842  0.00  0.00    +0.000 F 
ATOM     25  F   UNL     1       2.336   4.033  20.392  0.00  0.00    +0.000 F 
ENDBRANCH  20  22
ENDBRANCH  15  16
ENDBRANCH   1  13
BRANCH   9  26
ATOM     26  C   UNL     1      -0.839  13.940  19.540  0.00  0.00    +0.000 C 
BRANCH  26  27
ATOM     27  C   UNL     1      -1.380  13.549  20.896  0.00  0.00    +0.000 A 
ATOM     28  C   UNL     1      -0.734  13.828  22.110  0.00  0.00    +0.000 A 
ATOM     29  F   UNL     1       0.456  14.439  22.142  0.00  0.00    +0.000 F 
ATOM     30  C   UNL     1      -1.301  13.512  23.344  0.00  0.00    +0.000 A 
ATOM     31  C   UNL     1      -2.539  12.892  23.401  0.00  0.00    +0.000 A 
ATOM     32  C   UNL     1      -3.190  12.559  22.216  0.00  0.00    +0.000 A 
ATOM     33  C   UNL     1      -2.610  12.870  20.980  0.00  0.00    +0.000 A 
ATOM     34 CL   UNL     1      -3.459  12.357  19.560  0.00  0.00    +0.000 Cl
ENDBRANCH  26  27
ENDBRANCH   9  26
TORSDOF 5
ENDMDL
MODEL 9
REMARK VINA RESULT:      -8.3      3.635      8.477
REMARK  Name = 
REMARK  5 active torsions:
REMARK  status: ('A' for Active; 'I' for Inactive)
REMARK    1  A    between atoms: C_4  and  C_5
REMARK    2  A    between atoms: N_13  and  C_14
REMARK    3  A    between atoms: C_14  and  C_15
REMARK    4  A    between atoms: N_24  and  C_25
REMARK    5  A    between atoms: C_29  and  C_30
REMARK                            x       y       z     vdW  Elec       q    Type
REMARK                         _______ _______ _______ _____ _____    ______ ____
ROOT
ATOM      1  C   UNL     1      -0.324  10.101  18.456  0.00  0.00    +0.000 A 
ATOM      2  N   UNL     1      -0.635   9.514  17.312  0.00  0.00    +0.000 NA
ATOM      3  C   UNL     1      -1.877   9.967  16.958  0.00  0.00    +0.000 A 
ATOM      4  C   UNL     1      -2.674   9.635  15.852  0.00  0.00    +0.000 A 
ATOM      5  C   UNL     1      -3.907  10.280  15.691  0.00  0.00    +0.000 A 
ATOM      6  C   UNL     1      -4.332  11.246  16.603  0.00  0.00    +0.000 A 
ATOM      7  C   UNL     1      -3.560  11.570  17.721  0.00  0.00    +0.000 A 
ATOM      8  C   UNL     1      -2.341  10.894  17.878  0.00  0.00    +0.000 A 
ATOM      9  N   UNL     1      -1.391  10.880  18.883  0.00  0.00    +0.000 N 
ENDROOT
BRANCH   1  13
ATOM     10  O   UNL     1       3.386   8.242  17.025  0.00  0.00    +0.000 OA
ATOM     11  C   UNL     1       2.644   8.571  17.938  0.00  0.00    +0.000 C 
ATOM     12  C   UNL     1       2.233  10.003  18.164  0.00  0.00    +0.000 C 
ATOM     13  C   UNL     1       1.035   9.903  19.087  0.00  0.00    +0.000 C 
ATOM     14  C   UNL     1       1.197   8.563  19.786  0.00  0.00    +0.000 C 
ATOM     15  N   UNL     1       1.990   7.760  18.883  0.00  0.00    +0.000 N 
BRANCH  15  16
ATOM     16  C   UNL     1       2.003   6.335  18.881  0.00  0.00    +0.000 A 
ATOM     17  C   UNL     1       1.706   5.617  17.716  0.00  0.00    +0.000 A 
ATOM     18  C   UNL     1       1.584   4.225  17.724  0.00  0.00    +0.000 A 
ATOM     19  C   UNL     1       1.734   3.521  18.910  0.00  0.00    +0.000 A 
ATOM     20  C   UNL     1       2.041   4.200  20.094  0.00  0.00    +0.000 A 
ATOM     21  C   UNL     1       2.217   5.600  20.058  0.00  0.00    +0.000 A 
BRANCH  20  22
ATOM     22  C   UNL     1       2.127   3.454  21.405  0.00  0.00    +0.000 C 
ATOM     23  F   UNL     1       0.967   2.830  21.754  0.00  0.00    +0.000 F 
ATOM     24  F   UNL     1       3.085   2.488  21.396  0.00  0.00    +0.000 F 
ATOM     25  F   UNL     1       2.433   4.278  22.447  0.00  0.00    +0.000 F 
ENDBRANCH  20  22
ENDBRANCH  15  16
ENDBRANCH   1  13
BRANCH   9  26
ATOM     26  C   UNL     1      -1.598  11.564  20.153  0.00  0.00    +0.000 C 
BRANCH  26  27
ATOM     27  C   UNL     1      -0.774  12.811  20.379  0.00  0.00    +0.000 A 
ATOM     28  C   UNL     1      -0.287  13.628  19.347  0.00  0.00    +0.000 A 
ATOM     29  F   UNL     1      -0.494  13.325  18.061  0.00  0.00    +0.000 F 
ATOM     30  C   UNL     1       0.410  14.809  19.601  0.00  0.00    +0.000 A 
ATOM     31  C   UNL     1       0.653  15.205  20.906  0.00  0.00    +0.000 A 
ATOM     32  C   UNL     1       0.226  14.396  21.955  0.00  0.00    +0.000 A 
ATOM     33  C   UNL     1      -0.466  13.207  21.694  0.00  0.00    +0.000 A 
ATOM     34 CL   UNL     1      -0.899  12.231  23.058  0.00  0.00    +0.000 Cl
ENDBRANCH  26  27
ENDBRANCH   9  26
TORSDOF 5
ENDMDL
