MODEL 1
REMARK VINA RESULT:      -8.3      0.000      0.000
REMARK  Name = 
REMARK  6 active torsions:
REMARK  status: ('A' for Active; 'I' for Inactive)
REMARK    1  A    between atoms: C_4  and  O_5
REMARK    2  A    between atoms: C_7  and  C_8
REMARK    3  A    between atoms: C_9  and  C_10
REMARK    4  A    between atoms: C_14  and  O_15
REMARK    5  A    between atoms: O_15  and  C_16
REMARK    6  A    between atoms: C_16  and  C_17
REMARK                            x       y       z     vdW  Elec       q    Type
REMARK                         _______ _______ _______ _____ _____    ______ ____
ROOT
ATOM      1  C   UNL     1       6.460   6.070  18.174  0.00  0.00    +0.000 A 
ATOM      2  C   UNL     1       6.167   7.049  17.208  0.00  0.00    +0.000 A 
ATOM      3 CL   UNL     1       4.811   6.904  16.140  0.00  0.00    +0.000 Cl
ATOM      4  C   UNL     1       6.964   8.195  17.074  0.00  0.00    +0.000 A 
ATOM      5  C   UNL     1       8.063   8.384  17.907  0.00  0.00    +0.000 A 
ATOM      6  C   UNL     1       8.375   7.414  18.858  0.00  0.00    +0.000 A 
ATOM      7  C   UNL     1       7.579   6.273  18.997  0.00  0.00    +0.000 A 
ATOM      8 CL   UNL     1       8.025   5.137  20.229  0.00  0.00    +0.000 Cl
ENDROOT
BRANCH   1  10
ATOM      9  C   UNL     1       4.480   4.865  18.992  0.00  0.00    +0.000 C 
ATOM     10  C   UNL     1       5.633   4.859  18.306  0.00  0.00    +0.000 C 
BRANCH   9  16
ATOM     11  O   UNL     1       1.952   2.846  22.223  0.00  0.00    +0.000 OA
ATOM     12  C   UNL     1       2.093   3.071  21.024  0.00  0.00    +0.000 C 
ATOM     13  C   UNL     1       0.965   2.830  20.061  0.00  0.00    +0.000 C 
ATOM     14  C   UNL     1       1.400   2.660  18.621  0.00  0.00    +0.000 C 
ATOM     15  C   UNL     1       2.397   3.731  18.236  0.00  0.00    +0.000 C 
ATOM     16  C   UNL     1       3.595   3.664  19.171  0.00  0.00    +0.000 C 
ATOM     17  O   UNL     1       3.221   3.645  20.561  0.00  0.00    +0.000 OA
BRANCH  14  18
ATOM     18  O   UNL     1       1.927   1.359  18.374  0.00  0.00    +0.000 OA
ATOM     19  H   UNL     1       2.375   1.015  19.166  0.00  0.00    +0.000 HD
ENDBRANCH  14  18
ENDBRANCH   9  16
ENDBRANCH   1  10
BRANCH   5  20
ATOM     20  O   UNL     1       8.922   9.447  17.851  0.00  0.00    +0.000 OA
BRANCH  20  21
ATOM     21  C   UNL     1       9.230  10.073  19.097  0.00  0.00    +0.000 C 
BRANCH  21  22
ATOM     22  C   UNL     1      10.078  11.294  18.828  0.00  0.00    +0.000 A 
ATOM     23  C   UNL     1       9.742  12.162  17.775  0.00  0.00    +0.000 A 
ATOM     24  C   UNL     1      10.504  13.303  17.529  0.00  0.00    +0.000 A 
ATOM     25  C   UNL     1      11.602  13.579  18.333  0.00  0.00    +0.000 A 
ATOM     26  F   UNL     1      12.333  14.676  18.100  0.00  0.00    +0.000 F 
ATOM     27  C   UNL     1      11.952  12.734  19.380  0.00  0.00    +0.000 A 
ATOM     28  C   UNL     1      11.192  11.590  19.629  0.00  0.00    +0.000 A 
ENDBRANCH  21  22
ENDBRANCH  20  21
ENDBRANCH   5  20
TORSDOF 6
ENDMDL
MODEL 2
REMARK VINA RESULT:      -8.3      0.725      2.030
REMARK  Name = 
REMARK  6 active torsions:
REMARK  status: ('A' for Active; 'I' for Inactive)
REMARK    1  A    between atoms: C_4  and  O_5
REMARK    2  A    between atoms: C_7  and  C_8
REMARK    3  A    between atoms: C_9  and  C_10
REMARK    4  A    between atoms: C_14  and  O_15
REMARK    5  A    between atoms: O_15  and  C_16
REMARK    6  A    between atoms: C_16  and  C_17
REMARK                            x       y       z     vdW  Elec       q    Type
REMARK                         _______ _______ _______ _____ _____    ______ ____
ROOT
ATOM      1  C   UNL     1       6.440   5.998  18.201  0.00  0.00    +0.000 A 
ATOM      2  C   UNL     1       7.578   6.234  18.992  0.00  0.00    +0.000 A 
ATOM      3 CL   UNL     1       8.089   5.119  20.215  0.00  0.00    +0.000 Cl
ATOM      4  C   UNL     1       8.355   7.388  18.818  0.00  0.00    +0.000 A 
ATOM      5  C   UNL     1       8.011   8.322  17.845  0.00  0.00    +0.000 A 
ATOM      6  C   UNL     1       6.876   8.110  17.063  0.00  0.00    +0.000 A 
ATOM      7  C   UNL     1       6.102   6.957  17.232  0.00  0.00    +0.000 A 
ATOM      8 CL   UNL     1       4.728   6.762  16.193  0.00  0.00    +0.000 Cl
ENDROOT
BRANCH   1  10
ATOM      9  C   UNL     1       4.338   4.871  18.795  0.00  0.00    +0.000 C 
ATOM     10  C   UNL     1       5.614   4.793  18.392  0.00  0.00    +0.000 C 
BRANCH   9  16
ATOM     11  O   UNL     1       2.491   2.487  22.232  0.00  0.00    +0.000 OA
ATOM     12  C   UNL     1       2.369   2.875  21.073  0.00  0.00    +0.000 C 
ATOM     13  C   UNL     1       1.040   2.806  20.376  0.00  0.00    +0.000 C 
ATOM     14  C   UNL     1       1.126   2.829  18.865  0.00  0.00    +0.000 C 
ATOM     15  C   UNL     1       2.074   3.915  18.403  0.00  0.00    +0.000 C 
ATOM     16  C   UNL     1       3.445   3.683  19.015  0.00  0.00    +0.000 C 
ATOM     17  O   UNL     1       3.395   3.477  20.439  0.00  0.00    +0.000 OA
BRANCH  14  18
ATOM     18  O   UNL     1       1.504   1.562  18.333  0.00  0.00    +0.000 OA
ATOM     19  H   UNL     1       2.276   1.652  17.748  0.00  0.00    +0.000 HD
ENDBRANCH  14  18
ENDBRANCH   9  16
ENDBRANCH   1  10
BRANCH   5  20
ATOM     20  O   UNL     1       8.677   9.491  17.602  0.00  0.00    +0.000 OA
BRANCH  20  21
ATOM     21  C   UNL     1       9.125  10.211  18.751  0.00  0.00    +0.000 C 
BRANCH  21  22
ATOM     22  C   UNL     1       9.710  11.529  18.299  0.00  0.00    +0.000 A 
ATOM     23  C   UNL     1      11.051  11.594  17.882  0.00  0.00    +0.000 A 
ATOM     24  C   UNL     1      11.596  12.799  17.442  0.00  0.00    +0.000 A 
ATOM     25  C   UNL     1      10.804  13.940  17.418  0.00  0.00    +0.000 A 
ATOM     26  F   UNL     1      11.327  15.098  16.993  0.00  0.00    +0.000 F 
ATOM     27  C   UNL     1       9.477  13.898  17.826  0.00  0.00    +0.000 A 
ATOM     28  C   UNL     1       8.926  12.693  18.267  0.00  0.00    +0.000 A 
ENDBRANCH  21  22
ENDBRANCH  20  21
ENDBRANCH   5  20
TORSDOF 6
ENDMDL
MODEL 3
REMARK VINA RESULT:      -8.2      0.778      1.218
REMARK  Name = 
REMARK  6 active torsions:
REMARK  status: ('A' for Active; 'I' for Inactive)
REMARK    1  A    between atoms: C_4  and  O_5
REMARK    2  A    between atoms: C_7  and  C_8
REMARK    3  A    between atoms: C_9  and  C_10
REMARK    4  A    between atoms: C_14  and  O_15
REMARK    5  A    between atoms: O_15  and  C_16
REMARK    6  A    between atoms: C_16  and  C_17
REMARK                            x       y       z     vdW  Elec       q    Type
REMARK                         _______ _______ _______ _____ _____    ______ ____
ROOT
ATOM      1  C   UNL     1       6.793   6.055  18.127  0.00  0.00    +0.000 A 
ATOM      2  C   UNL     1       6.342   7.022  17.210  0.00  0.00    +0.000 A 
ATOM      3 CL   UNL     1       5.004   6.723  16.151  0.00  0.00    +0.000 Cl
ATOM      4  C   UNL     1       6.959   8.277  17.118  0.00  0.00    +0.000 A 
ATOM      5  C   UNL     1       8.033   8.590  17.946  0.00  0.00    +0.000 A 
ATOM      6  C   UNL     1       8.502   7.637  18.849  0.00  0.00    +0.000 A 
ATOM      7  C   UNL     1       7.885   6.386  18.946  0.00  0.00    +0.000 A 
ATOM      8 CL   UNL     1       8.515   5.276  20.120  0.00  0.00    +0.000 Cl
ENDROOT
BRANCH   1  10
ATOM      9  C   UNL     1       5.134   4.495  19.050  0.00  0.00    +0.000 C 
ATOM     10  C   UNL     1       6.155   4.731  18.214  0.00  0.00    +0.000 C 
BRANCH   9  16
ATOM     11  O   UNL     1       1.803   2.539  21.497  0.00  0.00    +0.000 OA
ATOM     12  C   UNL     1       2.404   2.571  20.427  0.00  0.00    +0.000 C 
ATOM     13  C   UNL     1       1.841   1.892  19.209  0.00  0.00    +0.000 C 
ATOM     14  C   UNL     1       2.865   1.576  18.142  0.00  0.00    +0.000 C 
ATOM     15  C   UNL     1       3.761   2.771  17.893  0.00  0.00    +0.000 C 
ATOM     16  C   UNL     1       4.444   3.167  19.192  0.00  0.00    +0.000 C 
ATOM     17  O   UNL     1       3.523   3.309  20.289  0.00  0.00    +0.000 OA
BRANCH  14  18
ATOM     18  O   UNL     1       3.634   0.420  18.466  0.00  0.00    +0.000 OA
ATOM     19  H   UNL     1       3.053  -0.342  18.630  0.00  0.00    +0.000 HD
ENDBRANCH  14  18
ENDBRANCH   9  16
ENDBRANCH   1  10
BRANCH   5  20
ATOM     20  O   UNL     1       8.726   9.769  17.929  0.00  0.00    +0.000 OA
BRANCH  20  21
ATOM     21  C   UNL     1       9.345  10.154  19.157  0.00  0.00    +0.000 C 
BRANCH  21  22
ATOM     22  C   UNL     1      10.127  11.426  18.926  0.00  0.00    +0.000 A 
ATOM     23  C   UNL     1      10.934  11.949  19.953  0.00  0.00    +0.000 A 
ATOM     24  C   UNL     1      11.677  13.110  19.745  0.00  0.00    +0.000 A 
ATOM     25  C   UNL     1      11.616  13.750  18.515  0.00  0.00    +0.000 A 
ATOM     26  F   UNL     1      12.332  14.864  18.314  0.00  0.00    +0.000 F 
ATOM     27  C   UNL     1      10.825  13.251  17.487  0.00  0.00    +0.000 A 
ATOM     28  C   UNL     1      10.080  12.088  17.690  0.00  0.00    +0.000 A 
ENDBRANCH  21  22
ENDBRANCH  20  21
ENDBRANCH   5  20
TORSDOF 6
ENDMDL
MODEL 4
REMARK VINA RESULT:      -8.1      8.770     11.233
REMARK  Name = 
REMARK  6 active torsions:
REMARK  status: ('A' for Active; 'I' for Inactive)
REMARK    1  A    between atoms: C_4  and  O_5
REMARK    2  A    between atoms: C_7  and  C_8
REMARK    3  A    between atoms: C_9  and  C_10
REMARK    4  A    between atoms: C_14  and  O_15
REMARK    5  A    between atoms: O_15  and  C_16
REMARK    6  A    between atoms: C_16  and  C_17
REMARK                            x       y       z     vdW  Elec       q    Type
REMARK                         _______ _______ _______ _____ _____    ______ ____
ROOT
ATOM      1  C   UNL     1       0.143  10.741  20.869  0.00  0.00    +0.000 A 
ATOM      2  C   UNL     1       0.536   9.561  21.525  0.00  0.00    +0.000 A 
ATOM      3 CL   UNL     1       0.179   9.282  23.197  0.00  0.00    +0.000 Cl
ATOM      4  C   UNL     1       1.234   8.553  20.846  0.00  0.00    +0.000 A 
ATOM      5  C   UNL     1       1.545   8.704  19.497  0.00  0.00    +0.000 A 
ATOM      6  C   UNL     1       1.176   9.875  18.837  0.00  0.00    +0.000 A 
ATOM      7  C   UNL     1       0.476  10.880  19.511  0.00  0.00    +0.000 A 
ATOM      8 CL   UNL     1       0.030  12.287  18.601  0.00  0.00    +0.000 Cl
ENDROOT
BRANCH   1  10
ATOM      9  C   UNL     1      -1.915  11.817  21.673  0.00  0.00    +0.000 C 
ATOM     10  C   UNL     1      -0.577  11.808  21.584  0.00  0.00    +0.000 C 
BRANCH   9  16
ATOM     11  O   UNL     1      -5.302  12.183  24.722  0.00  0.00    +0.000 OA
ATOM     12  C   UNL     1      -4.279  12.683  24.264  0.00  0.00    +0.000 C 
ATOM     13  C   UNL     1      -3.562  13.779  25.002  0.00  0.00    +0.000 C 
ATOM     14  C   UNL     1      -2.655  14.624  24.135  0.00  0.00    +0.000 C 
ATOM     15  C   UNL     1      -1.806  13.748  23.240  0.00  0.00    +0.000 C 
ATOM     16  C   UNL     1      -2.709  12.878  22.382  0.00  0.00    +0.000 C 
ATOM     17  O   UNL     1      -3.711  12.184  23.148  0.00  0.00    +0.000 OA
BRANCH  14  18
ATOM     18  O   UNL     1      -3.387  15.579  23.370  0.00  0.00    +0.000 OA
ATOM     19  H   UNL     1      -4.245  15.212  23.095  0.00  0.00    +0.000 HD
ENDBRANCH  14  18
ENDBRANCH   9  16
ENDBRANCH   1  10
BRANCH   5  20
ATOM     20  O   UNL     1       2.240   7.801  18.741  0.00  0.00    +0.000 OA
BRANCH  20  21
ATOM     21  C   UNL     1       2.952   6.793  19.460  0.00  0.00    +0.000 C 
BRANCH  21  22
ATOM     22  C   UNL     1       2.269   5.464  19.234  0.00  0.00    +0.000 A 
ATOM     23  C   UNL     1       1.636   4.811  20.306  0.00  0.00    +0.000 A 
ATOM     24  C   UNL     1       0.984   3.595  20.106  0.00  0.00    +0.000 A 
ATOM     25  C   UNL     1       0.964   3.030  18.837  0.00  0.00    +0.000 A 
ATOM     26  F   UNL     1       0.336   1.863  18.644  0.00  0.00    +0.000 F 
ATOM     27  C   UNL     1       1.583   3.659  17.764  0.00  0.00    +0.000 A 
ATOM     28  C   UNL     1       2.237   4.877  17.960  0.00  0.00    +0.000 A 
ENDBRANCH  21  22
ENDBRANCH  20  21
ENDBRANCH   5  20
TORSDOF 6
ENDMDL
MODEL 5
REMARK VINA RESULT:      -8.1      8.793     11.140
REMARK  Name = 
REMARK  6 active torsions:
REMARK  status: ('A' for Active; 'I' for Inactive)
REMARK    1  A    between atoms: C_4  and  O_5
REMARK    2  A    between atoms: C_7  and  C_8
REMARK    3  A    between atoms: C_9  and  C_10
REMARK    4  A    between atoms: C_14  and  O_15
REMARK    5  A    between atoms: O_15  and  C_16
REMARK    6  A    between atoms: C_16  and  C_17
REMARK                            x       y       z     vdW  Elec       q    Type
REMARK                         _______ _______ _______ _____ _____    ______ ____
ROOT
ATOM      1  C   UNL     1       0.124  10.840  20.791  0.00  0.00    +0.000 A 
ATOM      2  C   UNL     1       0.480  11.025  19.443  0.00  0.00    +0.000 A 
ATOM      3 CL   UNL     1       0.086  12.476  18.583  0.00  0.00    +0.000 Cl
ATOM      4  C   UNL     1       1.179  10.036  18.736  0.00  0.00    +0.000 A 
ATOM      5  C   UNL     1       1.540   8.849  19.366  0.00  0.00    +0.000 A 
ATOM      6  C   UNL     1       1.180   8.644  20.698  0.00  0.00    +0.000 A 
ATOM      7  C   UNL     1       0.487   9.631  21.406  0.00  0.00    +0.000 A 
ATOM      8 CL   UNL     1       0.111   9.302  23.067  0.00  0.00    +0.000 Cl
ENDROOT
BRANCH   1  10
ATOM      9  C   UNL     1      -1.963  11.887  21.556  0.00  0.00    +0.000 C 
ATOM     10  C   UNL     1      -0.623  11.871  21.531  0.00  0.00    +0.000 C 
BRANCH   9  16
ATOM     11  O   UNL     1      -5.156  12.121  24.821  0.00  0.00    +0.000 OA
ATOM     12  C   UNL     1      -4.205  12.675  24.277  0.00  0.00    +0.000 C 
ATOM     13  C   UNL     1      -3.523  13.845  24.929  0.00  0.00    +0.000 C 
ATOM     14  C   UNL     1      -2.740  14.721  23.975  0.00  0.00    +0.000 C 
ATOM     15  C   UNL     1      -1.891  13.876  23.051  0.00  0.00    +0.000 C 
ATOM     16  C   UNL     1      -2.784  12.914  22.285  0.00  0.00    +0.000 C 
ATOM     17  O   UNL     1      -3.678  12.178  23.140  0.00  0.00    +0.000 OA
BRANCH  14  18
ATOM     18  O   UNL     1      -3.590  15.593  23.234  0.00  0.00    +0.000 OA
ATOM     19  H   UNL     1      -3.066  16.268  22.769  0.00  0.00    +0.000 HD
ENDBRANCH  14  18
ENDBRANCH   9  16
ENDBRANCH   1  10
BRANCH   5  20
ATOM     20  O   UNL     1       2.199   7.808  18.773  0.00  0.00    +0.000 OA
BRANCH  20  21
ATOM     21  C   UNL     1       2.778   6.845  19.654  0.00  0.00    +0.000 C 
BRANCH  21  22
ATOM     22  C   UNL     1       2.168   5.494  19.361  0.00  0.00    +0.000 A 
ATOM     23  C   UNL     1       1.570   4.755  20.397  0.00  0.00    +0.000 A 
ATOM     24  C   UNL     1       0.985   3.517  20.135  0.00  0.00    +0.000 A 
ATOM     25  C   UNL     1       0.998   3.014  18.840  0.00  0.00    +0.000 A 
ATOM     26  F   UNL     1       0.434   1.826  18.588  0.00  0.00    +0.000 F 
ATOM     27  C   UNL     1       1.585   3.727  17.802  0.00  0.00    +0.000 A 
ATOM     28  C   UNL     1       2.171   4.968  18.059  0.00  0.00    +0.000 A 
ENDBRANCH  21  22
ENDBRANCH  20  21
ENDBRANCH   5  20
TORSDOF 6
ENDMDL
MODEL 6
REMARK VINA RESULT:      -8.1      0.837      1.954
REMARK  Name = 
REMARK  6 active torsions:
REMARK  status: ('A' for Active; 'I' for Inactive)
REMARK    1  A    between atoms: C_4  and  O_5
REMARK    2  A    between atoms: C_7  and  C_8
REMARK    3  A    between atoms: C_9  and  C_10
REMARK    4  A    between atoms: C_14  and  O_15
REMARK    5  A    between atoms: O_15  and  C_16
REMARK    6  A    between atoms: C_16  and  C_17
REMARK                            x       y       z     vdW  Elec       q    Type
REMARK                         _______ _______ _______ _____ _____    ______ ____
ROOT
ATOM      1  C   UNL     1       6.779   6.050  18.149  0.00  0.00    +0.000 A 
ATOM      2  C   UNL     1       7.875   6.393  18.961  0.00  0.00    +0.000 A 
ATOM      3 CL   UNL     1       8.511   5.303  20.147  0.00  0.00    +0.000 Cl
ATOM      4  C   UNL     1       8.506   7.639  18.839  0.00  0.00    +0.000 A 
ATOM      5  C   UNL     1       8.056   8.561  17.898  0.00  0.00    +0.000 A 
ATOM      6  C   UNL     1       6.961   8.242  17.096  0.00  0.00    +0.000 A 
ATOM      7  C   UNL     1       6.333   6.998  17.213  0.00  0.00    +0.000 A 
ATOM      8 CL   UNL     1       5.000   6.677  16.153  0.00  0.00    +0.000 Cl
ENDROOT
BRANCH   1  10
ATOM      9  C   UNL     1       5.065   4.577  19.114  0.00  0.00    +0.000 C 
ATOM     10  C   UNL     1       6.106   4.748  18.286  0.00  0.00    +0.000 C 
BRANCH   9  16
ATOM     11  O   UNL     1       1.963   2.689  21.892  0.00  0.00    +0.000 OA
ATOM     12  C   UNL     1       2.435   2.727  20.759  0.00  0.00    +0.000 C 
ATOM     13  C   UNL     1       1.703   2.108  19.601  0.00  0.00    +0.000 C 
ATOM     14  C   UNL     1       2.580   1.781  18.412  0.00  0.00    +0.000 C 
ATOM     15  C   UNL     1       3.492   2.945  18.088  0.00  0.00    +0.000 C 
ATOM     16  C   UNL     1       4.340   3.275  19.305  0.00  0.00    +0.000 C 
ATOM     17  O   UNL     1       3.562   3.422  20.507  0.00  0.00    +0.000 OA
BRANCH  14  18
ATOM     18  O   UNL     1       3.329   0.586  18.615  0.00  0.00    +0.000 OA
ATOM     19  H   UNL     1       4.259   0.718  18.364  0.00  0.00    +0.000 HD
ENDBRANCH  14  18
ENDBRANCH   9  16
ENDBRANCH   1  10
BRANCH   5  20
ATOM     20  O   UNL     1       8.576   9.811  17.706  0.00  0.00    +0.000 OA
BRANCH  20  21
ATOM     21  C   UNL     1       9.249  10.392  18.824  0.00  0.00    +0.000 C 
BRANCH  21  22
ATOM     22  C   UNL     1       9.966  11.639  18.363  0.00  0.00    +0.000 A 
ATOM     23  C   UNL     1       9.238  12.817  18.122  0.00  0.00    +0.000 A 
ATOM     24  C   UNL     1       9.890  13.981  17.717  0.00  0.00    +0.000 A 
ATOM     25  C   UNL     1      11.269  13.970  17.550  0.00  0.00    +0.000 A 
ATOM     26  F   UNL     1      11.896  15.088  17.163  0.00  0.00    +0.000 F 
ATOM     27  C   UNL     1      12.008  12.816  17.782  0.00  0.00    +0.000 A 
ATOM     28  C   UNL     1      11.359  11.649  18.189  0.00  0.00    +0.000 A 
ENDBRANCH  21  22
ENDBRANCH  20  21
ENDBRANCH   5  20
TORSDOF 6
ENDMDL
MODEL 7
REMARK VINA RESULT:      -7.9      8.958     11.377
REMARK  Name = 
REMARK  6 active torsions:
REMARK  status: ('A' for Active; 'I' for Inactive)
REMARK    1  A    between atoms: C_4  and  O_5
REMARK    2  A    between atoms: C_7  and  C_8
REMARK    3  A    between atoms: C_9  and  C_10
REMARK    4  A    between atoms: C_14  and  O_15
REMARK    5  A    between atoms: O_15  and  C_16
REMARK    6  A    between atoms: C_16  and  C_17
REMARK                            x       y       z     vdW  Elec       q    Type
REMARK                         _______ _______ _______ _____ _____    ______ ____
ROOT
ATOM      1  C   UNL     1       0.230  10.794  21.137  0.00  0.00    +0.000 A 
ATOM      2  C   UNL     1       0.663   9.602  21.746  0.00  0.00    +0.000 A 
ATOM      3 CL   UNL     1       0.466   9.319  23.444  0.00  0.00    +0.000 Cl
ATOM      4  C   UNL     1       1.273   8.586  20.997  0.00  0.00    +0.000 A 
ATOM      5  C   UNL     1       1.453   8.740  19.626  0.00  0.00    +0.000 A 
ATOM      6  C   UNL     1       1.043   9.922  19.010  0.00  0.00    +0.000 A 
ATOM      7  C   UNL     1       0.431  10.936  19.754  0.00  0.00    +0.000 A 
ATOM      8 CL   UNL     1      -0.076  12.357  18.899  0.00  0.00    +0.000 Cl
ENDROOT
BRANCH   1  10
ATOM      9  C   UNL     1      -1.594  11.709  22.508  0.00  0.00    +0.000 C 
ATOM     10  C   UNL     1      -0.397  11.869  21.925  0.00  0.00    +0.000 C 
BRANCH   9  16
ATOM     11  O   UNL     1      -0.601  15.429  24.973  0.00  0.00    +0.000 OA
ATOM     12  C   UNL     1      -1.421  14.867  24.251  0.00  0.00    +0.000 C 
ATOM     13  C   UNL     1      -2.564  15.633  23.647  0.00  0.00    +0.000 C 
ATOM     14  C   UNL     1      -3.735  14.773  23.222  0.00  0.00    +0.000 C 
ATOM     15  C   UNL     1      -3.254  13.562  22.453  0.00  0.00    +0.000 C 
ATOM     16  C   UNL     1      -2.290  12.766  23.317  0.00  0.00    +0.000 C 
ATOM     17  O   UNL     1      -1.250  13.580  23.892  0.00  0.00    +0.000 OA
BRANCH  14  18
ATOM     18  O   UNL     1      -4.542  14.387  24.332  0.00  0.00    +0.000 OA
ATOM     19  H   UNL     1      -4.072  13.743  24.889  0.00  0.00    +0.000 HD
ENDBRANCH  14  18
ENDBRANCH   9  16
ENDBRANCH   1  10
BRANCH   5  20
ATOM     20  O   UNL     1       2.054   7.830  18.801  0.00  0.00    +0.000 OA
BRANCH  20  21
ATOM     21  C   UNL     1       2.852   6.833  19.439  0.00  0.00    +0.000 C 
BRANCH  21  22
ATOM     22  C   UNL     1       2.207   5.484  19.221  0.00  0.00    +0.000 A 
ATOM     23  C   UNL     1       1.582   4.824  20.293  0.00  0.00    +0.000 A 
ATOM     24  C   UNL     1       0.965   3.589  20.100  0.00  0.00    +0.000 A 
ATOM     25  C   UNL     1       0.970   3.011  18.837  0.00  0.00    +0.000 A 
ATOM     26  F   UNL     1       0.375   1.826  18.650  0.00  0.00    +0.000 F 
ATOM     27  C   UNL     1       1.582   3.647  17.763  0.00  0.00    +0.000 A 
ATOM     28  C   UNL     1       2.201   4.884  17.952  0.00  0.00    +0.000 A 
ENDBRANCH  21  22
ENDBRANCH  20  21
ENDBRANCH   5  20
TORSDOF 6
ENDMDL
MODEL 8
REMARK VINA RESULT:      -7.8      9.131     11.408
REMARK  Name = 
REMARK  6 active torsions:
REMARK  status: ('A' for Active; 'I' for Inactive)
REMARK    1  A    between atoms: C_4  and  O_5
REMARK    2  A    between atoms: C_7  and  C_8
REMARK    3  A    between atoms: C_9  and  C_10
REMARK    4  A    between atoms: C_14  and  O_15
REMARK    5  A    between atoms: O_15  and  C_16
REMARK    6  A    between atoms: C_16  and  C_17
REMARK                            x       y       z     vdW  Elec       q    Type
REMARK                         _______ _______ _______ _____ _____    ______ ____
ROOT
ATOM      1  C   UNL     1      -0.406  10.772  20.786  0.00  0.00    +0.000 A 
ATOM      2  C   UNL     1      -0.091  10.969  19.429  0.00  0.00    +0.000 A 
ATOM      3 CL   UNL     1      -0.695  12.325  18.537  0.00  0.00    +0.000 Cl
ATOM      4  C   UNL     1       0.735  10.070  18.740  0.00  0.00    +0.000 A 
ATOM      5  C   UNL     1       1.266   8.963  19.397  0.00  0.00    +0.000 A 
ATOM      6  C   UNL     1       0.950   8.746  20.737  0.00  0.00    +0.000 A 
ATOM      7  C   UNL     1       0.130   9.644  21.428  0.00  0.00    +0.000 A 
ATOM      8 CL   UNL     1      -0.183   9.311  23.101  0.00  0.00    +0.000 Cl
ENDROOT
BRANCH   1  10
ATOM      9  C   UNL     1      -0.827  12.481  22.501  0.00  0.00    +0.000 C 
ATOM     10  C   UNL     1      -1.286  11.707  21.507  0.00  0.00    +0.000 C 
BRANCH   9  16
ATOM     11  O   UNL     1      -2.725  16.615  22.033  0.00  0.00    +0.000 OA
ATOM     12  C   UNL     1      -2.808  15.502  22.545  0.00  0.00    +0.000 C 
ATOM     13  C   UNL     1      -4.097  15.034  23.161  0.00  0.00    +0.000 C 
ATOM     14  C   UNL     1      -3.937  13.912  24.164  0.00  0.00    +0.000 C 
ATOM     15  C   UNL     1      -3.021  12.837  23.620  0.00  0.00    +0.000 C 
ATOM     16  C   UNL     1      -1.672  13.449  23.280  0.00  0.00    +0.000 C 
ATOM     17  O   UNL     1      -1.782  14.631  22.466  0.00  0.00    +0.000 OA
BRANCH  14  18
ATOM     18  O   UNL     1      -3.474  14.388  25.425  0.00  0.00    +0.000 OA
ATOM     19  H   UNL     1      -4.219  14.522  26.036  0.00  0.00    +0.000 HD
ENDBRANCH  14  18
ENDBRANCH   9  16
ENDBRANCH   1  10
BRANCH   5  20
ATOM     20  O   UNL     1       2.061   8.011  18.823  0.00  0.00    +0.000 OA
BRANCH  20  21
ATOM     21  C   UNL     1       2.667   7.074  19.715  0.00  0.00    +0.000 C 
BRANCH  21  22
ATOM     22  C   UNL     1       2.116   5.699  19.419  0.00  0.00    +0.000 A 
ATOM     23  C   UNL     1       1.571   4.923  20.457  0.00  0.00    +0.000 A 
ATOM     24  C   UNL     1       1.041   3.661  20.193  0.00  0.00    +0.000 A 
ATOM     25  C   UNL     1       1.054   3.172  18.894  0.00  0.00    +0.000 A 
ATOM     26  F   UNL     1       0.542   1.960  18.639  0.00  0.00    +0.000 F 
ATOM     27  C   UNL     1       1.588   3.921  17.853  0.00  0.00    +0.000 A 
ATOM     28  C   UNL     1       2.120   5.186  18.113  0.00  0.00    +0.000 A 
ENDBRANCH  21  22
ENDBRANCH  20  21
ENDBRANCH   5  20
TORSDOF 6
ENDMDL
MODEL 9
REMARK VINA RESULT:      -7.7      8.979     11.278
REMARK  Name = 
REMARK  6 active torsions:
REMARK  status: ('A' for Active; 'I' for Inactive)
REMARK    1  A    between atoms: C_4  and  O_5
REMARK    2  A    between atoms: C_7  and  C_8
REMARK    3  A    between atoms: C_9  and  C_10
REMARK    4  A    between atoms: C_14  and  O_15
REMARK    5  A    between atoms: O_15  and  C_16
REMARK    6  A    between atoms: C_16  and  C_17
REMARK                            x       y       z     vdW  Elec       q    Type
REMARK                         _______ _______ _______ _____ _____    ______ ____
ROOT
ATOM      1  C   UNL     1       0.296  10.947  20.898  0.00  0.00    +0.000 A 
ATOM      2  C   UNL     1       0.593  11.135  19.537  0.00  0.00    +0.000 A 
ATOM      3 CL   UNL     1       0.252  12.626  18.723  0.00  0.00    +0.000 Cl
ATOM      4  C   UNL     1       1.186  10.117  18.778  0.00  0.00    +0.000 A 
ATOM      5  C   UNL     1       1.500   8.896  19.368  0.00  0.00    +0.000 A 
ATOM      6  C   UNL     1       1.197   8.689  20.713  0.00  0.00    +0.000 A 
ATOM      7  C   UNL     1       0.609   9.705  21.474  0.00  0.00    +0.000 A 
ATOM      8 CL   UNL     1       0.298   9.369  23.146  0.00  0.00    +0.000 Cl
ENDROOT
BRANCH   1  10
ATOM      9  C   UNL     1      -1.644  11.970  22.007  0.00  0.00    +0.000 C 
ATOM     10  C   UNL     1      -0.341  12.011  21.694  0.00  0.00    +0.000 C 
BRANCH   9  16
ATOM     11  O   UNL     1      -4.066  15.795  21.366  0.00  0.00    +0.000 OA
ATOM     12  C   UNL     1      -3.878  14.808  22.072  0.00  0.00    +0.000 C 
ATOM     13  C   UNL     1      -4.891  14.399  23.105  0.00  0.00    +0.000 C 
ATOM     14  C   UNL     1      -4.338  13.519  24.205  0.00  0.00    +0.000 C 
ATOM     15  C   UNL     1      -3.483  12.414  23.625  0.00  0.00    +0.000 C 
ATOM     16  C   UNL     1      -2.356  13.024  22.808  0.00  0.00    +0.000 C 
ATOM     17  O   UNL     1      -2.817  14.005  21.861  0.00  0.00    +0.000 OA
BRANCH  14  18
ATOM     18  O   UNL     1      -3.612  14.272  25.174  0.00  0.00    +0.000 OA
ATOM     19  H   UNL     1      -3.101  13.681  25.754  0.00  0.00    +0.000 HD
ENDBRANCH  14  18
ENDBRANCH   9  16
ENDBRANCH   1  10
BRANCH   5  20
ATOM     20  O   UNL     1       2.056   7.826  18.723  0.00  0.00    +0.000 OA
BRANCH  20  21
ATOM     21  C   UNL     1       2.726   6.872  19.549  0.00  0.00    +0.000 C 
BRANCH  21  22
ATOM     22  C   UNL     1       2.116   5.511  19.306  0.00  0.00    +0.000 A 
ATOM     23  C   UNL     1       2.206   4.920  18.033  0.00  0.00    +0.000 A 
ATOM     24  C   UNL     1       1.666   3.656  17.802  0.00  0.00    +0.000 A 
ATOM     25  C   UNL     1       1.037   2.980  18.840  0.00  0.00    +0.000 A 
ATOM     26  F   UNL     1       0.520   1.764  18.619  0.00  0.00    +0.000 F 
ATOM     27  C   UNL     1       0.937   3.546  20.105  0.00  0.00    +0.000 A 
ATOM     28  C   UNL     1       1.477   4.812  20.341  0.00  0.00    +0.000 A 
ENDBRANCH  21  22
ENDBRANCH  20  21
ENDBRANCH   5  20
TORSDOF 6
ENDMDL
