MODEL 1
REMARK VINA RESULT:      -7.3      0.000      0.000
REMARK  Name = 
REMARK  8 active torsions:
REMARK  status: ('A' for Active; 'I' for Inactive)
REMARK    1  A    between atoms: C_1  and  O_2
REMARK    2  A    between atoms: O_2  and  C_3
REMARK    3  A    between atoms: C_5  and  O_6
REMARK    4  A    between atoms: C_9  and  C_10
REMARK    5  A    between atoms: C_15  and  C_16
REMARK    6  A    between atoms: C_16  and  O_17
REMARK    7  A    between atoms: C_23  and  C_24
REMARK    8  A    between atoms: C_26  and  C_27
REMARK                            x       y       z     vdW  Elec       q    Type
REMARK                         _______ _______ _______ _____ _____    ______ ____
ROOT
ATOM      1  C   UNL     1       0.467  10.587  20.926  0.00  0.00    +0.000 A 
ATOM      2  C   UNL     1       0.503   9.976  19.673  0.00  0.00    +0.000 A 
ATOM      3  C   UNL     1      -0.367  10.395  18.675  0.00  0.00    +0.000 A 
ATOM      4  C   UNL     1      -1.307  11.412  18.884  0.00  0.00    +0.000 A 
ATOM      5  C   UNL     1      -1.357  12.027  20.168  0.00  0.00    +0.000 A 
ATOM      6  C   UNL     1      -0.469  11.605  21.201  0.00  0.00    +0.000 A 
ATOM      7  C   UNL     1      -0.454  12.189  22.597  0.00  0.00    +0.000 C 
ATOM      8  C   UNL     1      -2.454  13.002  20.425  0.00  0.00    +0.000 C 
ATOM      9  O   UNL     1      -3.573  12.838  19.971  0.00  0.00    +0.000 OA
ATOM     10  O   UNL     1      -2.077  14.092  21.132  0.00  0.00    +0.000 OA
ATOM     11  C   UNL     1      -3.167  14.863  21.703  0.00  0.00    +0.000 C 
ATOM     12  C   UNL     1      -4.042  15.580  20.644  0.00  0.00    +0.000 C 
ATOM     13  C   UNL     1      -5.489  15.023  20.631  0.00  0.00    +0.000 C 
ATOM     14  C   UNL     1      -6.249  15.387  19.347  0.00  0.00    +0.000 C 
ATOM     15  C   UNL     1      -6.725  14.176  18.569  0.00  0.00    +0.000 C 
ATOM     16  O   UNL     1      -7.915  13.975  18.342  0.00  0.00    +0.000 OA
ATOM     17  N   UNL     1      -5.713  13.358  18.103  0.00  0.00    +0.000 N 
ATOM     18  C   UNL     1      -6.061  12.007  17.650  0.00  0.00    +0.000 C 
ATOM     19  C   UNL     1      -4.941  11.401  16.764  0.00  0.00    +0.000 C 
ATOM     20  S   UNL     1      -3.581  10.476  17.596  0.00  0.00    +0.000 S 
ATOM     21  C   UNL     1      -2.275  11.751  17.750  0.00  0.00    +0.000 C 
ATOM     22  H   UNL     1      -4.860  13.380  18.661  0.00  0.00    +0.000 HD
ENDROOT
BRANCH  18  23
ATOM     23  C   UNL     1      -6.335  11.173  18.863  0.00  0.00    +0.000 A 
ATOM     24  N   UNL     1      -6.616   9.890  18.907  0.00  0.00    +0.000 NA
ATOM     25  C   UNL     1      -7.158   9.758  20.146  0.00  0.00    +0.000 A 
ATOM     26  C   UNL     1      -7.913   8.550  20.507  0.00  0.00    +0.000 C 
ATOM     27  N   UNL     1      -7.065  10.845  20.925  0.00  0.00    +0.000 NA
ATOM     28  O   UNL     1      -6.512  11.805  20.060  0.00  0.00    +0.000 OA
ENDBRANCH  18  23
BRANCH   1  30
ATOM     29  C   UNL     1       1.425   8.815  22.210  0.00  0.00    +0.000 C 
ATOM     30  O   UNL     1       1.280  10.210  21.970  0.00  0.00    +0.000 OA
ENDBRANCH   1  30
BRANCH   3  31
ATOM     31  O   UNL     1      -0.304   9.789  17.449  0.00  0.00    +0.000 OA
ATOM     32  H   UNL     1       0.630   9.697  17.191  0.00  0.00    +0.000 HD
ENDBRANCH   3  31
BRANCH  12  33
ATOM     33  C   UNL     1      -4.093  17.090  20.915  0.00  0.00    +0.000 C 
BRANCH  33  34
ATOM     34  O   UNL     1      -5.035  17.389  21.935  0.00  0.00    +0.000 OA
ATOM     35  H   UNL     1      -5.909  17.084  21.635  0.00  0.00    +0.000 HD
ENDBRANCH  33  34
ENDBRANCH  12  33
TORSDOF 5
ENDMDL
MODEL 2
REMARK VINA RESULT:      -7.2      3.416      6.456
REMARK  Name = 
REMARK  8 active torsions:
REMARK  status: ('A' for Active; 'I' for Inactive)
REMARK    1  A    between atoms: C_1  and  O_2
REMARK    2  A    between atoms: O_2  and  C_3
REMARK    3  A    between atoms: C_5  and  O_6
REMARK    4  A    between atoms: C_9  and  C_10
REMARK    5  A    between atoms: C_15  and  C_16
REMARK    6  A    between atoms: C_16  and  O_17
REMARK    7  A    between atoms: C_23  and  C_24
REMARK    8  A    between atoms: C_26  and  C_27
REMARK                            x       y       z     vdW  Elec       q    Type
REMARK                         _______ _______ _______ _____ _____    ______ ____
ROOT
ATOM      1  C   UNL     1      -3.319  10.612  16.465  0.00  0.00    +0.000 A 
ATOM      2  C   UNL     1      -2.050  10.036  16.440  0.00  0.00    +0.000 A 
ATOM      3  C   UNL     1      -1.210  10.168  17.539  0.00  0.00    +0.000 A 
ATOM      4  C   UNL     1      -1.586  10.881  18.684  0.00  0.00    +0.000 A 
ATOM      5  C   UNL     1      -2.877  11.485  18.706  0.00  0.00    +0.000 A 
ATOM      6  C   UNL     1      -3.748  11.357  17.583  0.00  0.00    +0.000 A 
ATOM      7  C   UNL     1      -5.130  11.969  17.509  0.00  0.00    +0.000 C 
ATOM      8  C   UNL     1      -3.211  12.362  19.863  0.00  0.00    +0.000 C 
ATOM      9  O   UNL     1      -2.376  13.088  20.375  0.00  0.00    +0.000 OA
ATOM     10  O   UNL     1      -4.476  12.223  20.321  0.00  0.00    +0.000 OA
ATOM     11  C   UNL     1      -4.938  13.295  21.186  0.00  0.00    +0.000 C 
ATOM     12  C   UNL     1      -4.214  13.345  22.553  0.00  0.00    +0.000 C 
ATOM     13  C   UNL     1      -3.381  14.645  22.708  0.00  0.00    +0.000 C 
ATOM     14  C   UNL     1      -2.334  14.545  23.828  0.00  0.00    +0.000 C 
ATOM     15  C   UNL     1      -0.913  14.751  23.339  0.00  0.00    +0.000 C 
ATOM     16  O   UNL     1      -0.206  15.660  23.762  0.00  0.00    +0.000 OA
ATOM     17  N   UNL     1      -0.477  13.807  22.428  0.00  0.00    +0.000 N 
ATOM     18  C   UNL     1       0.728  14.100  21.644  0.00  0.00    +0.000 C 
ATOM     19  C   UNL     1       1.328  12.811  21.026  0.00  0.00    +0.000 C 
ATOM     20  S   UNL     1       0.715  12.272  19.373  0.00  0.00    +0.000 S 
ATOM     21  C   UNL     1      -0.565  11.038  19.811  0.00  0.00    +0.000 C 
ATOM     22  H   UNL     1      -1.218  13.382  21.871  0.00  0.00    +0.000 HD
ENDROOT
BRANCH  18  23
ATOM     23  C   UNL     1       0.361  15.109  20.601  0.00  0.00    +0.000 A 
ATOM     24  N   UNL     1       1.171  15.894  19.925  0.00  0.00    +0.000 NA
ATOM     25  C   UNL     1       0.322  16.844  19.455  0.00  0.00    +0.000 A 
ATOM     26  C   UNL     1       0.840  18.108  18.911  0.00  0.00    +0.000 C 
ATOM     27  N   UNL     1      -0.980  16.592  19.654  0.00  0.00    +0.000 NA
ATOM     28  O   UNL     1      -0.957  15.422  20.432  0.00  0.00    +0.000 OA
ENDBRANCH  18  23
BRANCH   1  30
ATOM     29  C   UNL     1      -3.658  10.191  14.138  0.00  0.00    +0.000 C 
ATOM     30  O   UNL     1      -4.196  10.545  15.408  0.00  0.00    +0.000 OA
ENDBRANCH   1  30
BRANCH   3  31
ATOM     31  O   UNL     1       0.027   9.582  17.496  0.00  0.00    +0.000 OA
ATOM     32  H   UNL     1       0.346   9.588  16.577  0.00  0.00    +0.000 HD
ENDBRANCH   3  31
BRANCH  12  33
ATOM     33  C   UNL     1      -5.223  13.262  23.706  0.00  0.00    +0.000 C 
BRANCH  33  34
ATOM     34  O   UNL     1      -4.954  12.140  24.535  0.00  0.00    +0.000 OA
ATOM     35  H   UNL     1      -5.589  12.153  25.272  0.00  0.00    +0.000 HD
ENDBRANCH  33  34
ENDBRANCH  12  33
TORSDOF 5
ENDMDL
MODEL 3
REMARK VINA RESULT:      -6.7      1.072      1.137
REMARK  Name = 
REMARK  8 active torsions:
REMARK  status: ('A' for Active; 'I' for Inactive)
REMARK    1  A    between atoms: C_1  and  O_2
REMARK    2  A    between atoms: O_2  and  C_3
REMARK    3  A    between atoms: C_5  and  O_6
REMARK    4  A    between atoms: C_9  and  C_10
REMARK    5  A    between atoms: C_15  and  C_16
REMARK    6  A    between atoms: C_16  and  O_17
REMARK    7  A    between atoms: C_23  and  C_24
REMARK    8  A    between atoms: C_26  and  C_27
REMARK                            x       y       z     vdW  Elec       q    Type
REMARK                         _______ _______ _______ _____ _____    ______ ____
ROOT
ATOM      1  C   UNL     1       0.209   9.824  20.595  0.00  0.00    +0.000 A 
ATOM      2  C   UNL     1       0.066   9.528  19.240  0.00  0.00    +0.000 A 
ATOM      3  C   UNL     1      -0.831  10.254  18.466  0.00  0.00    +0.000 A 
ATOM      4  C   UNL     1      -1.623  11.277  19.004  0.00  0.00    +0.000 A 
ATOM      5  C   UNL     1      -1.490  11.570  20.392  0.00  0.00    +0.000 A 
ATOM      6  C   UNL     1      -0.573  10.831  21.197  0.00  0.00    +0.000 A 
ATOM      7  C   UNL     1      -0.369  11.061  22.679  0.00  0.00    +0.000 C 
ATOM      8  C   UNL     1      -2.437  12.555  20.985  0.00  0.00    +0.000 C 
ATOM      9  O   UNL     1      -3.603  12.611  20.632  0.00  0.00    +0.000 OA
ATOM     10  O   UNL     1      -1.875  13.404  21.875  0.00  0.00    +0.000 OA
ATOM     11  C   UNL     1      -2.813  14.117  22.724  0.00  0.00    +0.000 C 
ATOM     12  C   UNL     1      -3.684  15.145  21.960  0.00  0.00    +0.000 C 
ATOM     13  C   UNL     1      -5.183  14.748  21.981  0.00  0.00    +0.000 C 
ATOM     14  C   UNL     1      -6.001  15.479  20.906  0.00  0.00    +0.000 C 
ATOM     15  C   UNL     1      -6.683  14.538  19.930  0.00  0.00    +0.000 C 
ATOM     16  O   UNL     1      -7.902  14.512  19.796  0.00  0.00    +0.000 OA
ATOM     17  N   UNL     1      -5.817  13.763  19.180  0.00  0.00    +0.000 N 
ATOM     18  C   UNL     1      -6.360  12.598  18.473  0.00  0.00    +0.000 C 
ATOM     19  C   UNL     1      -5.400  12.117  17.354  0.00  0.00    +0.000 C 
ATOM     20  S   UNL     1      -4.093  10.896  17.797  0.00  0.00    +0.000 S 
ATOM     21  C   UNL     1      -2.637  11.967  18.092  0.00  0.00    +0.000 C 
ATOM     22  H   UNL     1      -4.923  13.570  19.631  0.00  0.00    +0.000 HD
ENDROOT
BRANCH  18  23
ATOM     23  C   UNL     1      -6.627  11.530  19.487  0.00  0.00    +0.000 A 
ATOM     24  N   UNL     1      -6.690  10.232  19.287  0.00  0.00    +0.000 NA
ATOM     25  C   UNL     1      -7.339   9.801  20.399  0.00  0.00    +0.000 A 
ATOM     26  C   UNL     1      -7.916   8.450  20.453  0.00  0.00    +0.000 C 
ATOM     27  N   UNL     1      -7.522  10.733  21.346  0.00  0.00    +0.000 NA
ATOM     28  O   UNL     1      -7.044  11.903  20.732  0.00  0.00    +0.000 OA
ENDBRANCH  18  23
BRANCH   1  30
ATOM     29  C   UNL     1       1.468   7.837  21.010  0.00  0.00    +0.000 C 
ATOM     30  O   UNL     1       1.057   9.133  21.429  0.00  0.00    +0.000 OA
ENDBRANCH   1  30
BRANCH   3  31
ATOM     31  O   UNL     1      -0.945   9.955  17.135  0.00  0.00    +0.000 OA
ATOM     32  H   UNL     1      -0.064   9.999  16.726  0.00  0.00    +0.000 HD
ENDBRANCH   3  31
BRANCH  12  33
ATOM     33  C   UNL     1      -3.533  16.545  22.571  0.00  0.00    +0.000 C 
BRANCH  33  34
ATOM     34  O   UNL     1      -2.193  17.003  22.460  0.00  0.00    +0.000 OA
ATOM     35  H   UNL     1      -2.215  17.910  22.107  0.00  0.00    +0.000 HD
ENDBRANCH  33  34
ENDBRANCH  12  33
TORSDOF 5
ENDMDL
MODEL 4
REMARK VINA RESULT:      -6.7      3.227      5.939
REMARK  Name = 
REMARK  8 active torsions:
REMARK  status: ('A' for Active; 'I' for Inactive)
REMARK    1  A    between atoms: C_1  and  O_2
REMARK    2  A    between atoms: O_2  and  C_3
REMARK    3  A    between atoms: C_5  and  O_6
REMARK    4  A    between atoms: C_9  and  C_10
REMARK    5  A    between atoms: C_15  and  C_16
REMARK    6  A    between atoms: C_16  and  O_17
REMARK    7  A    between atoms: C_23  and  C_24
REMARK    8  A    between atoms: C_26  and  C_27
REMARK                            x       y       z     vdW  Elec       q    Type
REMARK                         _______ _______ _______ _____ _____    ______ ____
ROOT
ATOM      1  C   UNL     1      -3.584  11.242  17.021  0.00  0.00    +0.000 A 
ATOM      2  C   UNL     1      -2.200  11.378  17.123  0.00  0.00    +0.000 A 
ATOM      3  C   UNL     1      -1.643  11.914  18.277  0.00  0.00    +0.000 A 
ATOM      4  C   UNL     1      -2.428  12.347  19.353  0.00  0.00    +0.000 A 
ATOM      5  C   UNL     1      -3.844  12.223  19.244  0.00  0.00    +0.000 A 
ATOM      6  C   UNL     1      -4.428  11.674  18.064  0.00  0.00    +0.000 A 
ATOM      7  C   UNL     1      -5.917  11.513  17.852  0.00  0.00    +0.000 C 
ATOM      8  C   UNL     1      -4.675  12.818  20.328  0.00  0.00    +0.000 C 
ATOM      9  O   UNL     1      -4.364  13.866  20.869  0.00  0.00    +0.000 OA
ATOM     10  O   UNL     1      -5.739  12.066  20.692  0.00  0.00    +0.000 OA
ATOM     11  C   UNL     1      -6.751  12.764  21.465  0.00  0.00    +0.000 C 
ATOM     12  C   UNL     1      -6.277  13.174  22.881  0.00  0.00    +0.000 C 
ATOM     13  C   UNL     1      -6.221  14.716  23.038  0.00  0.00    +0.000 C 
ATOM     14  C   UNL     1      -5.372  15.155  24.240  0.00  0.00    +0.000 C 
ATOM     15  C   UNL     1      -4.204  16.044  23.856  0.00  0.00    +0.000 C 
ATOM     16  O   UNL     1      -4.086  17.186  24.288  0.00  0.00    +0.000 OA
ATOM     17  N   UNL     1      -3.274  15.443  23.028  0.00  0.00    +0.000 N 
ATOM     18  C   UNL     1      -2.309  16.298  22.328  0.00  0.00    +0.000 C 
ATOM     19  C   UNL     1      -1.092  15.481  21.821  0.00  0.00    +0.000 C 
ATOM     20  S   UNL     1      -1.201  14.704  20.153  0.00  0.00    +0.000 S 
ATOM     21  C   UNL     1      -1.730  12.995  20.548  0.00  0.00    +0.000 C 
ATOM     22  H   UNL     1      -3.650  14.703  22.435  0.00  0.00    +0.000 HD
ENDROOT
BRANCH  18  23
ATOM     23  C   UNL     1      -3.032  16.986  21.212  0.00  0.00    +0.000 A 
ATOM     24  N   UNL     1      -4.315  16.929  20.933  0.00  0.00    +0.000 NA
ATOM     25  C   UNL     1      -4.349  17.371  19.649  0.00  0.00    +0.000 A 
ATOM     26  C   UNL     1      -5.546  17.170  18.819  0.00  0.00    +0.000 C 
ATOM     27  N   UNL     1      -3.189  17.859  19.186  0.00  0.00    +0.000 NA
ATOM     28  O   UNL     1      -2.296  17.597  20.239  0.00  0.00    +0.000 OA
ENDBRANCH  18  23
BRANCH   1  30
ATOM     29  C   UNL     1      -3.379  10.340  14.818  0.00  0.00    +0.000 C 
ATOM     30  O   UNL     1      -4.209  10.742  15.901  0.00  0.00    +0.000 OA
ENDBRANCH   1  30
BRANCH   3  31
ATOM     31  O   UNL     1      -0.281  12.027  18.359  0.00  0.00    +0.000 OA
ATOM     32  H   UNL     1       0.095  11.154  18.565  0.00  0.00    +0.000 HD
ENDBRANCH   3  31
BRANCH  12  33
ATOM     33  C   UNL     1      -7.213  12.599  23.954  0.00  0.00    +0.000 C 
BRANCH  33  34
ATOM     34  O   UNL     1      -7.684  11.313  23.577  0.00  0.00    +0.000 OA
ATOM     35  H   UNL     1      -8.157  11.402  22.732  0.00  0.00    +0.000 HD
ENDBRANCH  33  34
ENDBRANCH  12  33
TORSDOF 5
ENDMDL
MODEL 5
REMARK VINA RESULT:      -6.6      2.879      6.900
REMARK  Name = 
REMARK  8 active torsions:
REMARK  status: ('A' for Active; 'I' for Inactive)
REMARK    1  A    between atoms: C_1  and  O_2
REMARK    2  A    between atoms: O_2  and  C_3
REMARK    3  A    between atoms: C_5  and  O_6
REMARK    4  A    between atoms: C_9  and  C_10
REMARK    5  A    between atoms: C_15  and  C_16
REMARK    6  A    between atoms: C_16  and  O_17
REMARK    7  A    between atoms: C_23  and  C_24
REMARK    8  A    between atoms: C_26  and  C_27
REMARK                            x       y       z     vdW  Elec       q    Type
REMARK                         _______ _______ _______ _____ _____    ______ ____
ROOT
ATOM      1  C   UNL     1      -7.002  14.462  17.793  0.00  0.00    +0.000 A 
ATOM      2  C   UNL     1      -6.767  13.489  16.823  0.00  0.00    +0.000 A 
ATOM      3  C   UNL     1      -5.895  12.442  17.093  0.00  0.00    +0.000 A 
ATOM      4  C   UNL     1      -5.217  12.331  18.314  0.00  0.00    +0.000 A 
ATOM      5  C   UNL     1      -5.444  13.334  19.300  0.00  0.00    +0.000 A 
ATOM      6  C   UNL     1      -6.337  14.413  19.035  0.00  0.00    +0.000 A 
ATOM      7  C   UNL     1      -6.634  15.529  20.014  0.00  0.00    +0.000 C 
ATOM      8  C   UNL     1      -4.612  13.289  20.535  0.00  0.00    +0.000 C 
ATOM      9  O   UNL     1      -3.438  12.960  20.502  0.00  0.00    +0.000 OA
ATOM     10  O   UNL     1      -5.286  13.571  21.673  0.00  0.00    +0.000 OA
ATOM     11  C   UNL     1      -4.453  13.890  22.820  0.00  0.00    +0.000 C 
ATOM     12  C   UNL     1      -3.631  12.686  23.344  0.00  0.00    +0.000 C 
ATOM     13  C   UNL     1      -2.108  12.917  23.168  0.00  0.00    +0.000 C 
ATOM     14  C   UNL     1      -1.298  11.616  23.271  0.00  0.00    +0.000 C 
ATOM     15  C   UNL     1      -0.494  11.312  22.021  0.00  0.00    +0.000 C 
ATOM     16  O   UNL     1       0.729  11.212  22.044  0.00  0.00    +0.000 OA
ATOM     17  N   UNL     1      -1.254  11.110  20.884  0.00  0.00    +0.000 N 
ATOM     18  C   UNL     1      -0.582  11.154  19.580  0.00  0.00    +0.000 C 
ATOM     19  C   UNL     1      -1.442  10.482  18.478  0.00  0.00    +0.000 C 
ATOM     20  S   UNL     1      -2.666  11.524  17.576  0.00  0.00    +0.000 S 
ATOM     21  C   UNL     1      -4.218  11.188  18.489  0.00  0.00    +0.000 C 
ATOM     22  H   UNL     1      -2.151  11.595  20.883  0.00  0.00    +0.000 HD
ENDROOT
BRANCH  18  23
ATOM     23  C   UNL     1      -0.281  12.587  19.268  0.00  0.00    +0.000 A 
ATOM     24  N   UNL     1       0.767  13.066  18.635  0.00  0.00    +0.000 NA
ATOM     25  C   UNL     1       0.738  14.378  18.986  0.00  0.00    +0.000 A 
ATOM     26  C   UNL     1       1.910  15.237  18.768  0.00  0.00    +0.000 C 
ATOM     27  N   UNL     1      -0.362  14.763  19.651  0.00  0.00    +0.000 NA
ATOM     28  O   UNL     1      -1.050  13.555  19.846  0.00  0.00    +0.000 OA
ENDBRANCH  18  23
BRANCH   1  30
ATOM     29  C   UNL     1      -7.424  16.503  16.626  0.00  0.00    +0.000 C 
ATOM     30  O   UNL     1      -7.833  15.540  17.590  0.00  0.00    +0.000 OA
ENDBRANCH   1  30
BRANCH   3  31
ATOM     31  O   UNL     1      -5.689  11.491  16.129  0.00  0.00    +0.000 OA
ATOM     32  H   UNL     1      -6.462  10.902  16.098  0.00  0.00    +0.000 HD
ENDBRANCH   3  31
BRANCH  12  33
ATOM     33  C   UNL     1      -3.927  12.433  24.829  0.00  0.00    +0.000 C 
BRANCH  33  34
ATOM     34  O   UNL     1      -5.234  11.903  25.001  0.00  0.00    +0.000 OA
ATOM     35  H   UNL     1      -5.496  11.475  24.167  0.00  0.00    +0.000 HD
ENDBRANCH  33  34
ENDBRANCH  12  33
TORSDOF 5
ENDMDL
MODEL 6
REMARK VINA RESULT:      -6.3      3.304      6.084
REMARK  Name = 
REMARK  8 active torsions:
REMARK  status: ('A' for Active; 'I' for Inactive)
REMARK    1  A    between atoms: C_1  and  O_2
REMARK    2  A    between atoms: O_2  and  C_3
REMARK    3  A    between atoms: C_5  and  O_6
REMARK    4  A    between atoms: C_9  and  C_10
REMARK    5  A    between atoms: C_15  and  C_16
REMARK    6  A    between atoms: C_16  and  O_17
REMARK    7  A    between atoms: C_23  and  C_24
REMARK    8  A    between atoms: C_26  and  C_27
REMARK                            x       y       z     vdW  Elec       q    Type
REMARK                         _______ _______ _______ _____ _____    ______ ____
ROOT
ATOM      1  C   UNL     1      -3.364  11.107  17.004  0.00  0.00    +0.000 A 
ATOM      2  C   UNL     1      -1.992  10.866  17.039  0.00  0.00    +0.000 A 
ATOM      3  C   UNL     1      -1.272  11.139  18.196  0.00  0.00    +0.000 A 
ATOM      4  C   UNL     1      -1.876  11.670  19.343  0.00  0.00    +0.000 A 
ATOM      5  C   UNL     1      -3.276  11.932  19.304  0.00  0.00    +0.000 A 
ATOM      6  C   UNL     1      -4.026  11.657  18.122  0.00  0.00    +0.000 A 
ATOM      7  C   UNL     1      -5.511  11.911  17.981  0.00  0.00    +0.000 C 
ATOM      8  C   UNL     1      -3.882  12.631  20.472  0.00  0.00    +0.000 C 
ATOM      9  O   UNL     1      -3.285  13.512  21.068  0.00  0.00    +0.000 OA
ATOM     10  O   UNL     1      -5.094  12.158  20.839  0.00  0.00    +0.000 OA
ATOM     11  C   UNL     1      -5.856  13.030  21.715  0.00  0.00    +0.000 C 
ATOM     12  C   UNL     1      -5.242  13.180  23.129  0.00  0.00    +0.000 C 
ATOM     13  C   UNL     1      -4.772  14.634  23.393  0.00  0.00    +0.000 C 
ATOM     14  C   UNL     1      -3.796  14.733  24.574  0.00  0.00    +0.000 C 
ATOM     15  C   UNL     1      -2.447  15.313  24.190  0.00  0.00    +0.000 C 
ATOM     16  O   UNL     1      -2.015  16.344  24.696  0.00  0.00    +0.000 OA
ATOM     17  N   UNL     1      -1.740  14.560  23.271  0.00  0.00    +0.000 N 
ATOM     18  C   UNL     1      -0.607  15.187  22.581  0.00  0.00    +0.000 C 
ATOM     19  C   UNL     1       0.330  14.125  21.951  0.00  0.00    +0.000 C 
ATOM     20  S   UNL     1      -0.039  13.547  20.240  0.00  0.00    +0.000 S 
ATOM     21  C   UNL     1      -0.990  12.010  20.540  0.00  0.00    +0.000 C 
ATOM     22  H   UNL     1      -2.320  13.998  22.648  0.00  0.00    +0.000 HD
ENDROOT
BRANCH  18  23
ATOM     23  C   UNL     1      -1.159  16.132  21.559  0.00  0.00    +0.000 A 
ATOM     24  N   UNL     1      -2.386  16.596  21.477  0.00  0.00    +0.000 NA
ATOM     25  C   UNL     1      -2.437  17.046  20.196  0.00  0.00    +0.000 A 
ATOM     26  C   UNL     1      -3.726  17.356  19.562  0.00  0.00    +0.000 C 
ATOM     27  N   UNL     1      -1.263  17.044  19.547  0.00  0.00    +0.000 NA
ATOM     28  O   UNL     1      -0.398  16.424  20.465  0.00  0.00    +0.000 OA
ENDBRANCH  18  23
BRANCH   1  30
ATOM     29  C   UNL     1      -3.481  10.381  14.732  0.00  0.00    +0.000 C 
ATOM     30  O   UNL     1      -4.139  10.885  15.889  0.00  0.00    +0.000 OA
ENDBRANCH   1  30
BRANCH   3  31
ATOM     31  O   UNL     1       0.073  10.882  18.210  0.00  0.00    +0.000 OA
ATOM     32  H   UNL     1       0.228   9.998  17.836  0.00  0.00    +0.000 HD
ENDBRANCH   3  31
BRANCH  12  33
ATOM     33  C   UNL     1      -6.259  12.784  24.208  0.00  0.00    +0.000 C 
BRANCH  33  34
ATOM     34  O   UNL     1      -7.143  13.859  24.489  0.00  0.00    +0.000 OA
ATOM     35  H   UNL     1      -7.358  14.299  23.648  0.00  0.00    +0.000 HD
ENDBRANCH  33  34
ENDBRANCH  12  33
TORSDOF 5
ENDMDL
MODEL 7
REMARK VINA RESULT:      -6.3      2.714      5.593
REMARK  Name = 
REMARK  8 active torsions:
REMARK  status: ('A' for Active; 'I' for Inactive)
REMARK    1  A    between atoms: C_1  and  O_2
REMARK    2  A    between atoms: O_2  and  C_3
REMARK    3  A    between atoms: C_5  and  O_6
REMARK    4  A    between atoms: C_9  and  C_10
REMARK    5  A    between atoms: C_15  and  C_16
REMARK    6  A    between atoms: C_16  and  O_17
REMARK    7  A    between atoms: C_23  and  C_24
REMARK    8  A    between atoms: C_26  and  C_27
REMARK                            x       y       z     vdW  Elec       q    Type
REMARK                         _______ _______ _______ _____ _____    ______ ____
ROOT
ATOM      1  C   UNL     1      -0.714  15.310  23.706  0.00  0.00    +0.000 A 
ATOM      2  C   UNL     1      -1.626  15.138  24.747  0.00  0.00    +0.000 A 
ATOM      3  C   UNL     1      -2.716  14.294  24.577  0.00  0.00    +0.000 A 
ATOM      4  C   UNL     1      -2.951  13.611  23.377  0.00  0.00    +0.000 A 
ATOM      5  C   UNL     1      -2.029  13.798  22.306  0.00  0.00    +0.000 A 
ATOM      6  C   UNL     1      -0.905  14.662  22.469  0.00  0.00    +0.000 A 
ATOM      7  C   UNL     1       0.120  14.932  21.388  0.00  0.00    +0.000 C 
ATOM      8  C   UNL     1      -2.364  13.185  20.990  0.00  0.00    +0.000 C 
ATOM      9  O   UNL     1      -3.512  13.140  20.581  0.00  0.00    +0.000 OA
ATOM     10  O   UNL     1      -1.309  12.635  20.346  0.00  0.00    +0.000 OA
ATOM     11  C   UNL     1      -1.523  12.363  18.935  0.00  0.00    +0.000 C 
ATOM     12  C   UNL     1      -2.553  11.238  18.669  0.00  0.00    +0.000 C 
ATOM     13  C   UNL     1      -3.814  11.780  17.947  0.00  0.00    +0.000 C 
ATOM     14  C   UNL     1      -5.009  10.820  18.046  0.00  0.00    +0.000 C 
ATOM     15  C   UNL     1      -6.219  11.439  18.719  0.00  0.00    +0.000 C 
ATOM     16  O   UNL     1      -7.297  11.552  18.143  0.00  0.00    +0.000 OA
ATOM     17  N   UNL     1      -6.017  11.811  20.035  0.00  0.00    +0.000 N 
ATOM     18  C   UNL     1      -6.987  12.716  20.661  0.00  0.00    +0.000 C 
ATOM     19  C   UNL     1      -6.882  12.677  22.208  0.00  0.00    +0.000 C 
ATOM     20  S   UNL     1      -5.696  13.824  23.027  0.00  0.00    +0.000 S 
ATOM     21  C   UNL     1      -4.219  12.766  23.257  0.00  0.00    +0.000 C 
ATOM     22  H   UNL     1      -5.051  12.047  20.265  0.00  0.00    +0.000 HD
ENDROOT
BRANCH  18  23
ATOM     23  C   UNL     1      -6.753  14.089  20.113  0.00  0.00    +0.000 A 
ATOM     24  N   UNL     1      -5.601  14.644  19.805  0.00  0.00    +0.000 NA
ATOM     25  C   UNL     1      -5.922  15.963  19.760  0.00  0.00    +0.000 A 
ATOM     26  C   UNL     1      -4.870  16.989  19.767  0.00  0.00    +0.000 C 
ATOM     27  N   UNL     1      -7.233  16.232  19.848  0.00  0.00    +0.000 NA
ATOM     28  O   UNL     1      -7.797  14.968  20.090  0.00  0.00    +0.000 OA
ENDBRANCH  18  23
BRANCH   1  30
ATOM     29  C   UNL     1       0.209  17.358  24.521  0.00  0.00    +0.000 C 
ATOM     30  O   UNL     1       0.375  16.147  23.791  0.00  0.00    +0.000 OA
ENDBRANCH   1  30
BRANCH   3  31
ATOM     31  O   UNL     1      -3.591  14.131  25.617  0.00  0.00    +0.000 OA
ATOM     32  H   UNL     1      -3.174  14.457  26.433  0.00  0.00    +0.000 HD
ENDBRANCH   3  31
BRANCH  12  33
ATOM     33  C   UNL     1      -1.932  10.124  17.815  0.00  0.00    +0.000 C 
BRANCH  33  34
ATOM     34  O   UNL     1      -0.558  10.385  17.566  0.00  0.00    +0.000 OA
ATOM     35  H   UNL     1      -0.502  11.143  16.959  0.00  0.00    +0.000 HD
ENDBRANCH  33  34
ENDBRANCH  12  33
TORSDOF 5
ENDMDL
MODEL 8
REMARK VINA RESULT:      -6.2      3.214      5.916
REMARK  Name = 
REMARK  8 active torsions:
REMARK  status: ('A' for Active; 'I' for Inactive)
REMARK    1  A    between atoms: C_1  and  O_2
REMARK    2  A    between atoms: O_2  and  C_3
REMARK    3  A    between atoms: C_5  and  O_6
REMARK    4  A    between atoms: C_9  and  C_10
REMARK    5  A    between atoms: C_15  and  C_16
REMARK    6  A    between atoms: C_16  and  O_17
REMARK    7  A    between atoms: C_23  and  C_24
REMARK    8  A    between atoms: C_26  and  C_27
REMARK                            x       y       z     vdW  Elec       q    Type
REMARK                         _______ _______ _______ _____ _____    ______ ____
ROOT
ATOM      1  C   UNL     1      -1.678  15.549  24.170  0.00  0.00    +0.000 A 
ATOM      2  C   UNL     1      -0.431  15.980  23.718  0.00  0.00    +0.000 A 
ATOM      3  C   UNL     1      -0.020  15.670  22.428  0.00  0.00    +0.000 A 
ATOM      4  C   UNL     1      -0.812  14.915  21.553  0.00  0.00    +0.000 A 
ATOM      5  C   UNL     1      -2.080  14.460  22.019  0.00  0.00    +0.000 A 
ATOM      6  C   UNL     1      -2.513  14.772  23.342  0.00  0.00    +0.000 A 
ATOM      7  C   UNL     1      -3.835  14.325  23.928  0.00  0.00    +0.000 C 
ATOM      8  C   UNL     1      -2.849  13.538  21.137  0.00  0.00    +0.000 C 
ATOM      9  O   UNL     1      -2.294  12.684  20.466  0.00  0.00    +0.000 OA
ATOM     10  O   UNL     1      -4.180  13.780  21.102  0.00  0.00    +0.000 OA
ATOM     11  C   UNL     1      -4.988  12.702  20.559  0.00  0.00    +0.000 C 
ATOM     12  C   UNL     1      -4.767  12.464  19.044  0.00  0.00    +0.000 C 
ATOM     13  C   UNL     1      -4.140  11.072  18.773  0.00  0.00    +0.000 C 
ATOM     14  C   UNL     1      -3.523  10.966  17.370  0.00  0.00    +0.000 C 
ATOM     15  C   UNL     1      -2.042  10.642  17.391  0.00  0.00    +0.000 C 
ATOM     16  O   UNL     1      -1.590   9.629  16.865  0.00  0.00    +0.000 OA
ATOM     17  N   UNL     1      -1.253  11.600  18.001  0.00  0.00    +0.000 N 
ATOM     18  C   UNL     1       0.117  11.237  18.378  0.00  0.00    +0.000 C 
ATOM     19  C   UNL     1       0.990  12.495  18.622  0.00  0.00    +0.000 C 
ATOM     20  S   UNL     1       1.009  13.227  20.313  0.00  0.00    +0.000 S 
ATOM     21  C   UNL     1      -0.242  14.558  20.181  0.00  0.00    +0.000 C 
ATOM     22  H   UNL     1      -1.729  12.147  18.718  0.00  0.00    +0.000 HD
ENDROOT
BRANCH  18  23
ATOM     23  C   UNL     1       0.041  10.359  19.589  0.00  0.00    +0.000 A 
ATOM     24  N   UNL     1      -0.769  10.480  20.617  0.00  0.00    +0.000 NA
ATOM     25  C   UNL     1      -0.154   9.718  21.558  0.00  0.00    +0.000 A 
ATOM     26  C   UNL     1      -0.538   9.820  22.973  0.00  0.00    +0.000 C 
ATOM     27  N   UNL     1       0.887   8.999  21.114  0.00  0.00    +0.000 NA
ATOM     28  O   UNL     1       1.024   9.433  19.785  0.00  0.00    +0.000 OA
ENDBRANCH  18  23
BRANCH   1  30
ATOM     29  C   UNL     1      -1.172  15.968  26.467  0.00  0.00    +0.000 C 
ATOM     30  O   UNL     1      -2.143  15.796  25.441  0.00  0.00    +0.000 OA
ENDBRANCH   1  30
BRANCH   3  31
ATOM     31  O   UNL     1       1.203  16.115  22.002  0.00  0.00    +0.000 OA
ATOM     32  H   UNL     1       1.292  15.929  21.051  0.00  0.00    +0.000 HD
ENDBRANCH   3  31
BRANCH  12  33
ATOM     33  C   UNL     1      -6.094  12.568  18.280  0.00  0.00    +0.000 C 
BRANCH  33  34
ATOM     34  O   UNL     1      -6.007  13.537  17.245  0.00  0.00    +0.000 OA
ATOM     35  H   UNL     1      -6.888  13.627  16.842  0.00  0.00    +0.000 HD
ENDBRANCH  33  34
ENDBRANCH  12  33
TORSDOF 5
ENDMDL
MODEL 9
REMARK VINA RESULT:      -6.2      2.597      5.434
REMARK  Name = 
REMARK  8 active torsions:
REMARK  status: ('A' for Active; 'I' for Inactive)
REMARK    1  A    between atoms: C_1  and  O_2
REMARK    2  A    between atoms: O_2  and  C_3
REMARK    3  A    between atoms: C_5  and  O_6
REMARK    4  A    between atoms: C_9  and  C_10
REMARK    5  A    between atoms: C_15  and  C_16
REMARK    6  A    between atoms: C_16  and  O_17
REMARK    7  A    between atoms: C_23  and  C_24
REMARK    8  A    between atoms: C_26  and  C_27
REMARK                            x       y       z     vdW  Elec       q    Type
REMARK                         _______ _______ _______ _____ _____    ______ ____
ROOT
ATOM      1  C   UNL     1       0.221   9.999  18.807  0.00  0.00    +0.000 A 
ATOM      2  C   UNL     1       0.854   9.989  20.049  0.00  0.00    +0.000 A 
ATOM      3  C   UNL     1       0.230  10.570  21.145  0.00  0.00    +0.000 A 
ATOM      4  C   UNL     1      -1.021  11.191  21.050  0.00  0.00    +0.000 A 
ATOM      5  C   UNL     1      -1.663  11.217  19.778  0.00  0.00    +0.000 A 
ATOM      6  C   UNL     1      -1.033  10.623  18.644  0.00  0.00    +0.000 A 
ATOM      7  C   UNL     1      -1.629  10.610  17.253  0.00  0.00    +0.000 C 
ATOM      8  C   UNL     1      -2.921  12.005  19.653  0.00  0.00    +0.000 C 
ATOM      9  O   UNL     1      -3.075  13.059  20.246  0.00  0.00    +0.000 OA
ATOM     10  O   UNL     1      -3.876  11.416  18.897  0.00  0.00    +0.000 OA
ATOM     11  C   UNL     1      -4.947  12.296  18.463  0.00  0.00    +0.000 C 
ATOM     12  C   UNL     1      -5.854  12.787  19.618  0.00  0.00    +0.000 C 
ATOM     13  C   UNL     1      -5.740  14.321  19.818  0.00  0.00    +0.000 C 
ATOM     14  C   UNL     1      -6.270  14.779  21.185  0.00  0.00    +0.000 C 
ATOM     15  C   UNL     1      -5.226  15.489  22.025  0.00  0.00    +0.000 C 
ATOM     16  O   UNL     1      -5.372  16.648  22.401  0.00  0.00    +0.000 OA
ATOM     17  N   UNL     1      -4.136  14.709  22.365  0.00  0.00    +0.000 N 
ATOM     18  C   UNL     1      -2.931  15.377  22.868  0.00  0.00    +0.000 C 
ATOM     19  C   UNL     1      -2.000  14.383  23.610  0.00  0.00    +0.000 C 
ATOM     20  S   UNL     1      -0.746  13.463  22.620  0.00  0.00    +0.000 S 
ATOM     21  C   UNL     1      -1.592  11.872  22.294  0.00  0.00    +0.000 C 
ATOM     22  H   UNL     1      -3.927  13.962  21.704  0.00  0.00    +0.000 HD
ENDROOT
BRANCH  18  23
ATOM     23  C   UNL     1      -2.249  16.029  21.705  0.00  0.00    +0.000 A 
ATOM     24  N   UNL     1      -2.145  15.570  20.477  0.00  0.00    +0.000 NA
ATOM     25  C   UNL     1      -1.127  16.318  19.978  0.00  0.00    +0.000 A 
ATOM     26  C   UNL     1      -0.450  15.925  18.734  0.00  0.00    +0.000 C 
ATOM     27  N   UNL     1      -0.721  17.324  20.767  0.00  0.00    +0.000 NA
ATOM     28  O   UNL     1      -1.476  17.129  21.936  0.00  0.00    +0.000 OA
ENDBRANCH  18  23
BRANCH   1  30
ATOM     29  C   UNL     1       2.060   8.847  17.807  0.00  0.00    +0.000 C 
ATOM     30  O   UNL     1       0.785   9.465  17.671  0.00  0.00    +0.000 OA
ENDBRANCH   1  30
BRANCH   3  31
ATOM     31  O   UNL     1       0.866  10.536  22.358  0.00  0.00    +0.000 OA
ATOM     32  H   UNL     1       1.827  10.519  22.209  0.00  0.00    +0.000 HD
ENDBRANCH   3  31
BRANCH  12  33
ATOM     33  C   UNL     1      -7.321  12.430  19.346  0.00  0.00    +0.000 C 
BRANCH  33  34
ATOM     34  O   UNL     1      -7.528  11.028  19.452  0.00  0.00    +0.000 OA
ATOM     35  H   UNL     1      -7.827  10.703  18.585  0.00  0.00    +0.000 HD
ENDBRANCH  33  34
ENDBRANCH  12  33
TORSDOF 5
ENDMDL
