MODEL 1
REMARK VINA RESULT:      -7.8      0.000      0.000
REMARK  Name = 
REMARK  6 active torsions:
REMARK  status: ('A' for Active; 'I' for Inactive)
REMARK    1  A    between atoms: C_2  and  C_5
REMARK    2  A    between atoms: C_5  and  C_6
REMARK    3  A    between atoms: C_6  and  C_7
REMARK    4  A    between atoms: C_7  and  N_8
REMARK    5  A    between atoms: N_8  and  C_9
REMARK    6  A    between atoms: N_12  and  C_13
REMARK                            x       y       z     vdW  Elec       q    Type
REMARK                         _______ _______ _______ _____ _____    ______ ____
ROOT
ATOM      1  C   UNL     1       5.943   6.130  16.918  0.00  0.00    +0.000 A 
ATOM      2  N   UNL     1       5.486   5.012  17.524  0.00  0.00    +0.000 NA
ATOM      3  C   UNL     1       5.979   4.601  18.712  0.00  0.00    +0.000 A 
ATOM      4  N   UNL     1       5.367   3.527  19.375  0.00  0.00    +0.000 N 
ATOM      5  N   UNL     1       6.999   5.187  19.371  0.00  0.00    +0.000 NA
ATOM      6  C   UNL     1       7.429   6.294  18.753  0.00  0.00    +0.000 A 
ATOM      7  N   UNL     1       8.427   7.133  19.155  0.00  0.00    +0.000 N 
ATOM      8  C   UNL     1       8.531   8.131  18.225  0.00  0.00    +0.000 A 
ATOM      9  N   UNL     1       7.649   7.998  17.260  0.00  0.00    +0.000 NA
ATOM     10  C   UNL     1       6.964   6.840  17.568  0.00  0.00    +0.000 A 
ATOM     11  H   UNL     1       5.876   3.381  20.238  0.00  0.00    +0.000 HD
ATOM     12  H   UNL     1       8.988   7.017  19.987  0.00  0.00    +0.000 HD
ENDROOT
BRANCH   4  13
ATOM     13  C   UNL     1       4.117   3.017  19.213  0.00  0.00    +0.000 A 
ATOM     14  C   UNL     1       3.773   2.166  18.121  0.00  0.00    +0.000 A 
ATOM     15  C   UNL     1       2.473   1.713  18.198  0.00  0.00    +0.000 A 
ATOM     16  S   UNL     1       1.651   2.335  19.559  0.00  0.00    +0.000 S 
ATOM     17  C   UNL     1       3.038   3.207  20.051  0.00  0.00    +0.000 A 
ENDBRANCH   4  13
BRANCH   1  18
ATOM     18  N   UNL     1       5.408   6.552  15.702  0.00  0.00    +0.000 N 
ATOM     19  H   UNL     1       4.684   7.249  15.853  0.00  0.00    +0.000 HD
BRANCH  18  20
ATOM     20  C   UNL     1       5.166   5.525  14.708  0.00  0.00    +0.000 C 
BRANCH  20  21
ATOM     21  C   UNL     1       6.489   4.921  14.248  0.00  0.00    +0.000 C 
BRANCH  21  22
ATOM     22  C   UNL     1       6.337   3.489  13.723  0.00  0.00    +0.000 C 
BRANCH  22  24
ATOM     23  F   UNL     1       5.033   3.715  11.739  0.00  0.00    +0.000 F 
ATOM     24  C   UNL     1       6.267   3.437  12.210  0.00  0.00    +0.000 C 
ATOM     25  F   UNL     1       6.607   2.210  11.756  0.00  0.00    +0.000 F 
ATOM     26  F   UNL     1       7.122   4.325  11.657  0.00  0.00    +0.000 F 
ENDBRANCH  22  24
ENDBRANCH  21  22
ENDBRANCH  20  21
ENDBRANCH  18  20
ENDBRANCH   1  18
TORSDOF 6
ENDMDL
MODEL 2
REMARK VINA RESULT:      -7.7      0.429      1.143
REMARK  Name = 
REMARK  6 active torsions:
REMARK  status: ('A' for Active; 'I' for Inactive)
REMARK    1  A    between atoms: C_2  and  C_5
REMARK    2  A    between atoms: C_5  and  C_6
REMARK    3  A    between atoms: C_6  and  C_7
REMARK    4  A    between atoms: C_7  and  N_8
REMARK    5  A    between atoms: N_8  and  C_9
REMARK    6  A    between atoms: N_12  and  C_13
REMARK                            x       y       z     vdW  Elec       q    Type
REMARK                         _______ _______ _______ _____ _____    ______ ____
ROOT
ATOM      1  C   UNL     1       5.857   6.084  16.944  0.00  0.00    +0.000 A 
ATOM      2  N   UNL     1       5.382   4.982  17.566  0.00  0.00    +0.000 NA
ATOM      3  C   UNL     1       5.881   4.568  18.749  0.00  0.00    +0.000 A 
ATOM      4  N   UNL     1       5.253   3.513  19.429  0.00  0.00    +0.000 N 
ATOM      5  N   UNL     1       6.924   5.134  19.391  0.00  0.00    +0.000 NA
ATOM      6  C   UNL     1       7.372   6.226  18.758  0.00  0.00    +0.000 A 
ATOM      7  N   UNL     1       8.395   7.043  19.140  0.00  0.00    +0.000 N 
ATOM      8  C   UNL     1       8.510   8.032  18.201  0.00  0.00    +0.000 A 
ATOM      9  N   UNL     1       7.612   7.913  17.250  0.00  0.00    +0.000 NA
ATOM     10  C   UNL     1       6.904   6.774  17.575  0.00  0.00    +0.000 A 
ATOM     11  H   UNL     1       5.770   3.362  20.287  0.00  0.00    +0.000 HD
ATOM     12  H   UNL     1       8.964   6.920  19.965  0.00  0.00    +0.000 HD
ENDROOT
BRANCH   4  13
ATOM     13  C   UNL     1       3.989   3.033  19.288  0.00  0.00    +0.000 A 
ATOM     14  C   UNL     1       2.875   3.595  19.981  0.00  0.00    +0.000 A 
ATOM     15  C   UNL     1       1.683   2.995  19.633  0.00  0.00    +0.000 A 
ATOM     16  S   UNL     1       1.901   1.735  18.501  0.00  0.00    +0.000 S 
ATOM     17  C   UNL     1       3.591   1.995  18.473  0.00  0.00    +0.000 A 
ENDBRANCH   4  13
BRANCH   1  18
ATOM     18  N   UNL     1       5.316   6.510  15.732  0.00  0.00    +0.000 N 
ATOM     19  H   UNL     1       4.559   7.169  15.891  0.00  0.00    +0.000 HD
BRANCH  18  20
ATOM     20  C   UNL     1       5.132   5.497  14.713  0.00  0.00    +0.000 C 
BRANCH  20  21
ATOM     21  C   UNL     1       6.479   4.902  14.317  0.00  0.00    +0.000 C 
BRANCH  21  22
ATOM     22  C   UNL     1       6.357   3.490  13.734  0.00  0.00    +0.000 C 
BRANCH  22  24
ATOM     23  F   UNL     1       7.149   4.477  11.711  0.00  0.00    +0.000 F 
ATOM     24  C   UNL     1       6.378   3.491  12.218  0.00  0.00    +0.000 C 
ATOM     25  F   UNL     1       5.131   3.657  11.722  0.00  0.00    +0.000 F 
ATOM     26  F   UNL     1       6.852   2.319  11.742  0.00  0.00    +0.000 F 
ENDBRANCH  22  24
ENDBRANCH  21  22
ENDBRANCH  20  21
ENDBRANCH  18  20
ENDBRANCH   1  18
TORSDOF 6
ENDMDL
MODEL 3
REMARK VINA RESULT:      -7.6      0.841      1.209
REMARK  Name = 
REMARK  6 active torsions:
REMARK  status: ('A' for Active; 'I' for Inactive)
REMARK    1  A    between atoms: C_2  and  C_5
REMARK    2  A    between atoms: C_5  and  C_6
REMARK    3  A    between atoms: C_6  and  C_7
REMARK    4  A    between atoms: C_7  and  N_8
REMARK    5  A    between atoms: N_8  and  C_9
REMARK    6  A    between atoms: N_12  and  C_13
REMARK                            x       y       z     vdW  Elec       q    Type
REMARK                         _______ _______ _______ _____ _____    ______ ____
ROOT
ATOM      1  C   UNL     1       5.423   5.857  17.187  0.00  0.00    +0.000 A 
ATOM      2  N   UNL     1       4.801   4.862  17.857  0.00  0.00    +0.000 NA
ATOM      3  C   UNL     1       5.255   4.421  19.049  0.00  0.00    +0.000 A 
ATOM      4  N   UNL     1       4.490   3.498  19.778  0.00  0.00    +0.000 N 
ATOM      5  N   UNL     1       6.383   4.849  19.655  0.00  0.00    +0.000 NA
ATOM      6  C   UNL     1       6.976   5.837  18.974  0.00  0.00    +0.000 A 
ATOM      7  N   UNL     1       8.116   6.507  19.310  0.00  0.00    +0.000 N 
ATOM      8  C   UNL     1       8.359   7.432  18.333  0.00  0.00    +0.000 A 
ATOM      9  N   UNL     1       7.436   7.413  17.398  0.00  0.00    +0.000 NA
ATOM     10  C   UNL     1       6.573   6.406  17.777  0.00  0.00    +0.000 A 
ATOM     11  H   UNL     1       4.995   3.302  20.634  0.00  0.00    +0.000 HD
ATOM     12  H   UNL     1       8.677   6.330  20.132  0.00  0.00    +0.000 HD
ENDROOT
BRANCH   4  13
ATOM     13  C   UNL     1       3.166   3.207  19.672  0.00  0.00    +0.000 A 
ATOM     14  C   UNL     1       2.167   3.913  20.406  0.00  0.00    +0.000 A 
ATOM     15  C   UNL     1       0.891   3.496  20.090  0.00  0.00    +0.000 A 
ATOM     16  S   UNL     1       0.890   2.235  18.939  0.00  0.00    +0.000 S 
ATOM     17  C   UNL     1       2.598   2.249  18.859  0.00  0.00    +0.000 A 
ENDBRANCH   4  13
BRANCH   1  18
ATOM     18  N   UNL     1       4.929   6.314  15.967  0.00  0.00    +0.000 N 
ATOM     19  H   UNL     1       3.912   6.316  15.972  0.00  0.00    +0.000 HD
BRANCH  18  20
ATOM     20  C   UNL     1       5.602   5.839  14.775  0.00  0.00    +0.000 C 
BRANCH  20  21
ATOM     21  C   UNL     1       5.252   4.377  14.524  0.00  0.00    +0.000 C 
BRANCH  21  22
ATOM     22  C   UNL     1       6.343   3.629  13.750  0.00  0.00    +0.000 C 
BRANCH  22  24
ATOM     23  F   UNL     1       4.705   3.797  12.023  0.00  0.00    +0.000 F 
ATOM     24  C   UNL     1       5.973   3.420  12.295  0.00  0.00    +0.000 C 
ATOM     25  F   UNL     1       6.090   2.117  11.952  0.00  0.00    +0.000 F 
ATOM     26  F   UNL     1       6.790   4.128  11.484  0.00  0.00    +0.000 F 
ENDBRANCH  22  24
ENDBRANCH  21  22
ENDBRANCH  20  21
ENDBRANCH  18  20
ENDBRANCH   1  18
TORSDOF 6
ENDMDL
MODEL 4
REMARK VINA RESULT:      -7.5      4.347      6.251
REMARK  Name = 
REMARK  6 active torsions:
REMARK  status: ('A' for Active; 'I' for Inactive)
REMARK    1  A    between atoms: C_2  and  C_5
REMARK    2  A    between atoms: C_5  and  C_6
REMARK    3  A    between atoms: C_6  and  C_7
REMARK    4  A    between atoms: C_7  and  N_8
REMARK    5  A    between atoms: N_8  and  C_9
REMARK    6  A    between atoms: N_12  and  C_13
REMARK                            x       y       z     vdW  Elec       q    Type
REMARK                         _______ _______ _______ _____ _____    ______ ____
ROOT
ATOM      1  C   UNL     1       2.345   6.223  20.025  0.00  0.00    +0.000 A 
ATOM      2  N   UNL     1       3.094   6.024  18.918  0.00  0.00    +0.000 NA
ATOM      3  C   UNL     1       3.276   7.000  18.004  0.00  0.00    +0.000 A 
ATOM      4  N   UNL     1       4.185   6.799  16.954  0.00  0.00    +0.000 N 
ATOM      5  N   UNL     1       2.693   8.216  18.043  0.00  0.00    +0.000 NA
ATOM      6  C   UNL     1       1.962   8.389  19.151  0.00  0.00    +0.000 A 
ATOM      7  N   UNL     1       1.258   9.500  19.515  0.00  0.00    +0.000 N 
ATOM      8  C   UNL     1       0.661   9.238  20.717  0.00  0.00    +0.000 A 
ATOM      9  N   UNL     1       0.952   8.036  21.159  0.00  0.00    +0.000 NA
ATOM     10  C   UNL     1       1.751   7.485  20.179  0.00  0.00    +0.000 A 
ATOM     11  H   UNL     1       4.179   7.639  16.389  0.00  0.00    +0.000 HD
ATOM     12  H   UNL     1       1.191  10.351  18.976  0.00  0.00    +0.000 HD
ENDROOT
BRANCH   4  13
ATOM     13  C   UNL     1       5.211   5.911  16.865  0.00  0.00    +0.000 A 
ATOM     14  C   UNL     1       5.275   4.915  15.847  0.00  0.00    +0.000 A 
ATOM     15  C   UNL     1       6.437   4.174  15.909  0.00  0.00    +0.000 A 
ATOM     16  S   UNL     1       7.436   4.648  17.210  0.00  0.00    +0.000 S 
ATOM     17  C   UNL     1       6.317   5.850  17.687  0.00  0.00    +0.000 A 
ENDBRANCH   4  13
BRANCH   1  18
ATOM     18  N   UNL     1       2.185   5.210  20.970  0.00  0.00    +0.000 N 
ATOM     19  H   UNL     1       3.087   4.921  21.339  0.00  0.00    +0.000 HD
BRANCH  18  20
ATOM     20  C   UNL     1       1.216   4.179  20.658  0.00  0.00    +0.000 C 
BRANCH  20  21
ATOM     21  C   UNL     1       1.888   2.810  20.663  0.00  0.00    +0.000 C 
BRANCH  21  22
ATOM     22  C   UNL     1       1.831   2.116  19.298  0.00  0.00    +0.000 C 
BRANCH  22  24
ATOM     23  F   UNL     1       3.611   1.262  17.959  0.00  0.00    +0.000 F 
ATOM     24  C   UNL     1       3.066   2.389  18.464  0.00  0.00    +0.000 C 
ATOM     25  F   UNL     1       4.018   3.003  19.202  0.00  0.00    +0.000 F 
ATOM     26  F   UNL     1       2.774   3.200  17.423  0.00  0.00    +0.000 F 
ENDBRANCH  22  24
ENDBRANCH  21  22
ENDBRANCH  20  21
ENDBRANCH  18  20
ENDBRANCH   1  18
TORSDOF 6
ENDMDL
MODEL 5
REMARK VINA RESULT:      -7.4      4.483      6.302
REMARK  Name = 
REMARK  6 active torsions:
REMARK  status: ('A' for Active; 'I' for Inactive)
REMARK    1  A    between atoms: C_2  and  C_5
REMARK    2  A    between atoms: C_5  and  C_6
REMARK    3  A    between atoms: C_6  and  C_7
REMARK    4  A    between atoms: C_7  and  N_8
REMARK    5  A    between atoms: N_8  and  C_9
REMARK    6  A    between atoms: N_12  and  C_13
REMARK                            x       y       z     vdW  Elec       q    Type
REMARK                         _______ _______ _______ _____ _____    ______ ____
ROOT
ATOM      1  C   UNL     1       2.231   6.979  19.835  0.00  0.00    +0.000 A 
ATOM      2  N   UNL     1       3.014   6.570  18.812  0.00  0.00    +0.000 NA
ATOM      3  C   UNL     1       3.237   7.353  17.736  0.00  0.00    +0.000 A 
ATOM      4  N   UNL     1       4.177   6.951  16.776  0.00  0.00    +0.000 N 
ATOM      5  N   UNL     1       2.667   8.557  17.523  0.00  0.00    +0.000 NA
ATOM      6  C   UNL     1       1.902   8.941  18.553  0.00  0.00    +0.000 A 
ATOM      7  N   UNL     1       1.200  10.105  18.674  0.00  0.00    +0.000 N 
ATOM      8  C   UNL     1       0.560  10.080  19.883  0.00  0.00    +0.000 A 
ATOM      9  N   UNL     1       0.822   8.982  20.555  0.00  0.00    +0.000 NA
ATOM     10  C   UNL     1       1.647   8.251  19.726  0.00  0.00    +0.000 A 
ATOM     11  H   UNL     1       4.201   7.669  16.062  0.00  0.00    +0.000 HD
ATOM     12  H   UNL     1       1.160  10.839  17.981  0.00  0.00    +0.000 HD
ENDROOT
BRANCH   4  13
ATOM     13  C   UNL     1       5.196   6.058  16.893  0.00  0.00    +0.000 A 
ATOM     14  C   UNL     1       5.327   4.930  16.029  0.00  0.00    +0.000 A 
ATOM     15  C   UNL     1       6.470   4.202  16.286  0.00  0.00    +0.000 A 
ATOM     16  S   UNL     1       7.369   4.849  17.585  0.00  0.00    +0.000 S 
ATOM     17  C   UNL     1       6.232   6.107  17.801  0.00  0.00    +0.000 A 
ENDBRANCH   4  13
BRANCH   1  18
ATOM     18  N   UNL     1       2.028   6.166  20.948  0.00  0.00    +0.000 N 
ATOM     19  H   UNL     1       2.372   6.620  21.790  0.00  0.00    +0.000 HD
BRANCH  18  20
ATOM     20  C   UNL     1       2.301   4.753  20.778  0.00  0.00    +0.000 C 
BRANCH  20  21
ATOM     21  C   UNL     1       1.096   4.058  20.153  0.00  0.00    +0.000 C 
BRANCH  21  22
ATOM     22  C   UNL     1       1.471   2.771  19.412  0.00  0.00    +0.000 C 
BRANCH  22  24
ATOM     23  F   UNL     1       3.471   3.416  18.284  0.00  0.00    +0.000 F 
ATOM     24  C   UNL     1       2.185   3.048  18.104  0.00  0.00    +0.000 C 
ATOM     25  F   UNL     1       1.571   4.043  17.424  0.00  0.00    +0.000 F 
ATOM     26  F   UNL     1       2.182   1.954  17.312  0.00  0.00    +0.000 F 
ENDBRANCH  22  24
ENDBRANCH  21  22
ENDBRANCH  20  21
ENDBRANCH  18  20
ENDBRANCH   1  18
TORSDOF 6
ENDMDL
MODEL 6
REMARK VINA RESULT:      -7.4      4.491      6.522
REMARK  Name = 
REMARK  6 active torsions:
REMARK  status: ('A' for Active; 'I' for Inactive)
REMARK    1  A    between atoms: C_2  and  C_5
REMARK    2  A    between atoms: C_5  and  C_6
REMARK    3  A    between atoms: C_6  and  C_7
REMARK    4  A    between atoms: C_7  and  N_8
REMARK    5  A    between atoms: N_8  and  C_9
REMARK    6  A    between atoms: N_12  and  C_13
REMARK                            x       y       z     vdW  Elec       q    Type
REMARK                         _______ _______ _______ _____ _____    ______ ____
ROOT
ATOM      1  C   UNL     1       2.399   6.489  19.937  0.00  0.00    +0.000 A 
ATOM      2  N   UNL     1       3.132   6.356  18.809  0.00  0.00    +0.000 NA
ATOM      3  C   UNL     1       3.222   7.354  17.904  0.00  0.00    +0.000 A 
ATOM      4  N   UNL     1       4.116   7.229  16.830  0.00  0.00    +0.000 N 
ATOM      5  N   UNL     1       2.557   8.526  17.974  0.00  0.00    +0.000 NA
ATOM      6  C   UNL     1       1.844   8.634  19.102  0.00  0.00    +0.000 A 
ATOM      7  N   UNL     1       1.075   9.688  19.498  0.00  0.00    +0.000 N 
ATOM      8  C   UNL     1       0.527   9.371  20.711  0.00  0.00    +0.000 A 
ATOM      9  N   UNL     1       0.912   8.187  21.129  0.00  0.00    +0.000 NA
ATOM     10  C   UNL     1       1.723   7.705  20.123  0.00  0.00    +0.000 A 
ATOM     11  H   UNL     1       4.038   8.074  16.278  0.00  0.00    +0.000 HD
ATOM     12  H   UNL     1       0.935  10.539  18.973  0.00  0.00    +0.000 HD
ENDROOT
BRANCH   4  13
ATOM     13  C   UNL     1       5.199   6.416  16.705  0.00  0.00    +0.000 A 
ATOM     14  C   UNL     1       6.409   6.637  17.428  0.00  0.00    +0.000 A 
ATOM     15  C   UNL     1       7.346   5.651  17.198  0.00  0.00    +0.000 A 
ATOM     16  S   UNL     1       6.789   4.478  16.088  0.00  0.00    +0.000 S 
ATOM     17  C   UNL     1       5.292   5.287  15.919  0.00  0.00    +0.000 A 
ENDBRANCH   4  13
BRANCH   1  18
ATOM     18  N   UNL     1       2.333   5.457  20.871  0.00  0.00    +0.000 N 
ATOM     19  H   UNL     1       3.259   5.077  21.049  0.00  0.00    +0.000 HD
BRANCH  18  20
ATOM     20  C   UNL     1       1.231   4.525  20.732  0.00  0.00    +0.000 C 
BRANCH  20  21
ATOM     21  C   UNL     1       1.753   3.093  20.742  0.00  0.00    +0.000 C 
BRANCH  21  22
ATOM     22  C   UNL     1       2.586   2.756  19.500  0.00  0.00    +0.000 C 
BRANCH  22  24
ATOM     23  F   UNL     1       1.497   3.798  17.651  0.00  0.00    +0.000 F 
ATOM     24  C   UNL     1       1.731   2.614  18.257  0.00  0.00    +0.000 C 
ATOM     25  F   UNL     1       0.530   2.071  18.560  0.00  0.00    +0.000 F 
ATOM     26  F   UNL     1       2.325   1.805  17.353  0.00  0.00    +0.000 F 
ENDBRANCH  22  24
ENDBRANCH  21  22
ENDBRANCH  20  21
ENDBRANCH  18  20
ENDBRANCH   1  18
TORSDOF 6
ENDMDL
MODEL 7
REMARK VINA RESULT:      -7.4      4.604      7.181
REMARK  Name = 
REMARK  6 active torsions:
REMARK  status: ('A' for Active; 'I' for Inactive)
REMARK    1  A    between atoms: C_2  and  C_5
REMARK    2  A    between atoms: C_5  and  C_6
REMARK    3  A    between atoms: C_6  and  C_7
REMARK    4  A    between atoms: C_7  and  N_8
REMARK    5  A    between atoms: N_8  and  C_9
REMARK    6  A    between atoms: N_12  and  C_13
REMARK                            x       y       z     vdW  Elec       q    Type
REMARK                         _______ _______ _______ _____ _____    ______ ____
ROOT
ATOM      1  C   UNL     1       2.916   4.631  20.043  0.00  0.00    +0.000 A 
ATOM      2  N   UNL     1       4.175   4.782  19.573  0.00  0.00    +0.000 NA
ATOM      3  C   UNL     1       4.666   3.983  18.602  0.00  0.00    +0.000 A 
ATOM      4  N   UNL     1       5.917   4.276  18.038  0.00  0.00    +0.000 N 
ATOM      5  N   UNL     1       4.016   2.932  18.061  0.00  0.00    +0.000 NA
ATOM      6  C   UNL     1       2.771   2.809  18.540  0.00  0.00    +0.000 A 
ATOM      7  N   UNL     1       1.841   1.872  18.196  0.00  0.00    +0.000 N 
ATOM      8  C   UNL     1       0.713   2.118  18.930  0.00  0.00    +0.000 A 
ATOM      9  N   UNL     1       0.853   3.167  19.709  0.00  0.00    +0.000 NA
ATOM     10  C   UNL     1       2.144   3.598  19.489  0.00  0.00    +0.000 A 
ATOM     11  H   UNL     1       6.099   3.571  17.334  0.00  0.00    +0.000 HD
ATOM     12  H   UNL     1       1.980   1.128  17.527  0.00  0.00    +0.000 HD
ENDROOT
BRANCH   4  13
ATOM     13  C   UNL     1       6.606   5.448  18.040  0.00  0.00    +0.000 A 
ATOM     14  C   UNL     1       7.646   5.723  18.977  0.00  0.00    +0.000 A 
ATOM     15  C   UNL     1       8.252   6.940  18.748  0.00  0.00    +0.000 A 
ATOM     16  S   UNL     1       7.552   7.771  17.430  0.00  0.00    +0.000 S 
ATOM     17  C   UNL     1       6.441   6.499  17.163  0.00  0.00    +0.000 A 
ENDBRANCH   4  13
BRANCH   1  18
ATOM     18  N   UNL     1       2.418   5.478  21.031  0.00  0.00    +0.000 N 
ATOM     19  H   UNL     1       2.182   4.951  21.868  0.00  0.00    +0.000 HD
BRANCH  18  20
ATOM     20  C   UNL     1       1.498   6.511  20.597  0.00  0.00    +0.000 C 
BRANCH  20  21
ATOM     21  C   UNL     1       2.227   7.527  19.725  0.00  0.00    +0.000 C 
BRANCH  21  22
ATOM     22  C   UNL     1       1.427   8.818  19.522  0.00  0.00    +0.000 C 
BRANCH  22  24
ATOM     23  F   UNL     1       2.122   8.446  17.270  0.00  0.00    +0.000 F 
ATOM     24  C   UNL     1       1.483   9.309  18.089  0.00  0.00    +0.000 C 
ATOM     25  F   UNL     1       2.130  10.494  18.012  0.00  0.00    +0.000 F 
ATOM     26  F   UNL     1       0.239   9.493  17.594  0.00  0.00    +0.000 F 
ENDBRANCH  22  24
ENDBRANCH  21  22
ENDBRANCH  20  21
ENDBRANCH  18  20
ENDBRANCH   1  18
TORSDOF 6
ENDMDL
MODEL 8
REMARK VINA RESULT:      -7.4      4.469      6.538
REMARK  Name = 
REMARK  6 active torsions:
REMARK  status: ('A' for Active; 'I' for Inactive)
REMARK    1  A    between atoms: C_2  and  C_5
REMARK    2  A    between atoms: C_5  and  C_6
REMARK    3  A    between atoms: C_6  and  C_7
REMARK    4  A    between atoms: C_7  and  N_8
REMARK    5  A    between atoms: N_8  and  C_9
REMARK    6  A    between atoms: N_12  and  C_13
REMARK                            x       y       z     vdW  Elec       q    Type
REMARK                         _______ _______ _______ _____ _____    ______ ____
ROOT
ATOM      1  C   UNL     1       5.262   3.988  16.976  0.00  0.00    +0.000 A 
ATOM      2  N   UNL     1       5.391   4.062  15.632  0.00  0.00    +0.000 NA
ATOM      3  C   UNL     1       6.382   4.774  15.056  0.00  0.00    +0.000 A 
ATOM      4  N   UNL     1       6.568   4.694  13.667  0.00  0.00    +0.000 N 
ATOM      5  N   UNL     1       7.279   5.532  15.720  0.00  0.00    +0.000 NA
ATOM      6  C   UNL     1       7.133   5.437  17.047  0.00  0.00    +0.000 A 
ATOM      7  N   UNL     1       7.881   6.052  18.009  0.00  0.00    +0.000 N 
ATOM      8  C   UNL     1       7.383   5.676  19.226  0.00  0.00    +0.000 A 
ATOM      9  N   UNL     1       6.375   4.841  19.109  0.00  0.00    +0.000 NA
ATOM     10  C   UNL     1       6.196   4.697  17.749  0.00  0.00    +0.000 A 
ATOM     11  H   UNL     1       7.354   5.289  13.437  0.00  0.00    +0.000 HD
ATOM     12  H   UNL     1       8.652   6.681  17.836  0.00  0.00    +0.000 HD
ENDROOT
BRANCH   4  13
ATOM     13  C   UNL     1       6.145   3.737  12.798  0.00  0.00    +0.000 A 
ATOM     14  C   UNL     1       4.808   3.691  12.302  0.00  0.00    +0.000 A 
ATOM     15  C   UNL     1       4.624   2.681  11.382  0.00  0.00    +0.000 A 
ATOM     16  S   UNL     1       6.043   1.764  11.137  0.00  0.00    +0.000 S 
ATOM     17  C   UNL     1       6.907   2.723  12.259  0.00  0.00    +0.000 A 
ENDBRANCH   4  13
BRANCH   1  18
ATOM     18  N   UNL     1       4.246   3.231  17.555  0.00  0.00    +0.000 N 
ATOM     19  H   UNL     1       4.168   2.327  17.096  0.00  0.00    +0.000 HD
BRANCH  18  20
ATOM     20  C   UNL     1       3.022   3.933  17.887  0.00  0.00    +0.000 C 
BRANCH  20  21
ATOM     21  C   UNL     1       1.950   2.939  18.320  0.00  0.00    +0.000 C 
BRANCH  21  22
ATOM     22  C   UNL     1       2.150   2.436  19.753  0.00  0.00    +0.000 C 
BRANCH  22  24
ATOM     23  F   UNL     1       2.359   4.249  21.290  0.00  0.00    +0.000 F 
ATOM     24  C   UNL     1       1.498   3.345  20.776  0.00  0.00    +0.000 C 
ATOM     25  F   UNL     1       1.002   2.627  21.809  0.00  0.00    +0.000 F 
ATOM     26  F   UNL     1       0.470   4.029  20.227  0.00  0.00    +0.000 F 
ENDBRANCH  22  24
ENDBRANCH  21  22
ENDBRANCH  20  21
ENDBRANCH  18  20
ENDBRANCH   1  18
TORSDOF 6
ENDMDL
MODEL 9
REMARK VINA RESULT:      -7.4      6.125      8.541
REMARK  Name = 
REMARK  6 active torsions:
REMARK  status: ('A' for Active; 'I' for Inactive)
REMARK    1  A    between atoms: C_2  and  C_5
REMARK    2  A    between atoms: C_5  and  C_6
REMARK    3  A    between atoms: C_6  and  C_7
REMARK    4  A    between atoms: C_7  and  N_8
REMARK    5  A    between atoms: N_8  and  C_9
REMARK    6  A    between atoms: N_12  and  C_13
REMARK                            x       y       z     vdW  Elec       q    Type
REMARK                         _______ _______ _______ _____ _____    ______ ____
ROOT
ATOM      1  C   UNL     1       2.818   4.835  20.078  0.00  0.00    +0.000 A 
ATOM      2  N   UNL     1       4.106   4.938  19.680  0.00  0.00    +0.000 NA
ATOM      3  C   UNL     1       4.658   4.039  18.838  0.00  0.00    +0.000 A 
ATOM      4  N   UNL     1       5.946   4.272  18.332  0.00  0.00    +0.000 N 
ATOM      5  N   UNL     1       4.043   2.932  18.374  0.00  0.00    +0.000 NA
ATOM      6  C   UNL     1       2.769   2.857  18.779  0.00  0.00    +0.000 A 
ATOM      7  N   UNL     1       1.860   1.885  18.479  0.00  0.00    +0.000 N 
ATOM      8  C   UNL     1       0.686   2.206  19.103  0.00  0.00    +0.000 A 
ATOM      9  N   UNL     1       0.776   3.335  19.769  0.00  0.00    +0.000 NA
ATOM     10  C   UNL     1       2.082   3.744  19.590  0.00  0.00    +0.000 A 
ATOM     11  H   UNL     1       6.173   3.495  17.724  0.00  0.00    +0.000 HD
ATOM     12  H   UNL     1       2.041   1.072  17.907  0.00  0.00    +0.000 HD
ENDROOT
BRANCH   4  13
ATOM     13  C   UNL     1       6.638   5.440  18.251  0.00  0.00    +0.000 A 
ATOM     14  C   UNL     1       7.686   5.773  19.160  0.00  0.00    +0.000 A 
ATOM     15  C   UNL     1       8.292   6.971  18.846  0.00  0.00    +0.000 A 
ATOM     16  S   UNL     1       7.584   7.715  17.482  0.00  0.00    +0.000 S 
ATOM     17  C   UNL     1       6.468   6.431  17.307  0.00  0.00    +0.000 A 
ENDBRANCH   4  13
BRANCH   1  18
ATOM     18  N   UNL     1       2.257   5.784  20.931  0.00  0.00    +0.000 N 
ATOM     19  H   UNL     1       1.509   5.371  21.482  0.00  0.00    +0.000 HD
BRANCH  18  20
ATOM     20  C   UNL     1       2.044   7.107  20.379  0.00  0.00    +0.000 C 
BRANCH  20  21
ATOM     21  C   UNL     1       0.834   7.761  21.039  0.00  0.00    +0.000 C 
BRANCH  21  22
ATOM     22  C   UNL     1       1.168   9.108  21.688  0.00  0.00    +0.000 C 
BRANCH  22  24
ATOM     23  F   UNL     1      -0.984   8.785  22.665  0.00  0.00    +0.000 F 
ATOM     24  C   UNL     1       0.158   9.499  22.748  0.00  0.00    +0.000 C 
ATOM     25  F   UNL     1      -0.172  10.806  22.638  0.00  0.00    +0.000 F 
ATOM     26  F   UNL     1       0.665   9.312  23.987  0.00  0.00    +0.000 F 
ENDBRANCH  22  24
ENDBRANCH  21  22
ENDBRANCH  20  21
ENDBRANCH  18  20
ENDBRANCH   1  18
TORSDOF 6
ENDMDL
