MODEL 1
REMARK VINA RESULT:      -9.0      0.000      0.000
REMARK  Name = 
REMARK  3 active torsions:
REMARK  status: ('A' for Active; 'I' for Inactive)
REMARK    1  A    between atoms: N_11  and  C_12
REMARK    2  A    between atoms: C_12  and  C_13
REMARK    3  A    between atoms: C_16  and  C_17
REMARK                            x       y       z     vdW  Elec       q    Type
REMARK                         _______ _______ _______ _____ _____    ______ ____
ROOT
ATOM      1  O   UNL     1       7.743   4.333  16.237  0.00  0.00    +0.000 OA
ATOM      2  C   UNL     1       6.777   4.414  16.978  0.00  0.00    +0.000 C 
ATOM      3  N   UNL     1       5.532   3.918  16.674  0.00  0.00    +0.000 N 
ATOM      4  C   UNL     1       4.588   4.105  17.749  0.00  0.00    +0.000 C 
ATOM      5  C   UNL     1       3.321   4.860  17.338  0.00  0.00    +0.000 C 
ATOM      6  C   UNL     1       2.171   3.895  17.615  0.00  0.00    +0.000 C 
ATOM      7  C   UNL     1       2.686   3.009  18.736  0.00  0.00    +0.000 C 
ATOM      8  C   UNL     1       4.143   2.777  18.364  0.00  0.00    +0.000 C 
ATOM      9  C   UNL     1       5.464   4.912  18.726  0.00  0.00    +0.000 C 
ATOM     10  O   UNL     1       5.086   5.384  19.787  0.00  0.00    +0.000 OA
ATOM     11  N   UNL     1       6.724   5.003  18.201  0.00  0.00    +0.000 N 
ATOM     12  H   UNL     1       5.364   3.423  15.809  0.00  0.00    +0.000 HD
ENDROOT
BRANCH  11  13
ATOM     13  C   UNL     1       7.837   5.680  18.828  0.00  0.00    +0.000 C 
BRANCH  13  14
ATOM     14  C   UNL     1       7.911   7.086  18.358  0.00  0.00    +0.000 A 
ATOM     15  N   UNL     1       7.265   7.671  17.371  0.00  0.00    +0.000 NA
ATOM     16  N   UNL     1       7.666   8.990  17.371  0.00  0.00    +0.000 NA
ATOM     17  C   UNL     1       8.539   9.123  18.349  0.00  0.00    +0.000 A 
ATOM     18  O   UNL     1       8.759   7.942  19.016  0.00  0.00    +0.000 OA
BRANCH  17  19
ATOM     19  C   UNL     1       9.281  10.300  18.784  0.00  0.00    +0.000 A 
ATOM     20  C   UNL     1       9.298  10.647  20.145  0.00  0.00    +0.000 A 
ATOM     21  C   UNL     1       9.944  11.806  20.584  0.00  0.00    +0.000 A 
ATOM     22  C   UNL     1      10.588  12.633  19.665  0.00  0.00    +0.000 A 
ATOM     23  C   UNL     1      10.606  12.288  18.315  0.00  0.00    +0.000 A 
ATOM     24  C   UNL     1       9.962  11.127  17.878  0.00  0.00    +0.000 A 
ENDBRANCH  17  19
ENDBRANCH  13  14
ENDBRANCH  11  13
TORSDOF 3
ENDMDL
MODEL 2
REMARK VINA RESULT:      -9.0      4.188      6.624
REMARK  Name = 
REMARK  3 active torsions:
REMARK  status: ('A' for Active; 'I' for Inactive)
REMARK    1  A    between atoms: N_11  and  C_12
REMARK    2  A    between atoms: C_12  and  C_13
REMARK    3  A    between atoms: C_16  and  C_17
REMARK                            x       y       z     vdW  Elec       q    Type
REMARK                         _______ _______ _______ _____ _____    ______ ____
ROOT
ATOM      1  O   UNL     1       6.528   4.282  18.756  0.00  0.00    +0.000 OA
ATOM      2  C   UNL     1       5.323   4.473  18.741  0.00  0.00    +0.000 C 
ATOM      3  N   UNL     1       4.404   3.622  19.307  0.00  0.00    +0.000 N 
ATOM      4  C   UNL     1       3.053   4.115  19.189  0.00  0.00    +0.000 C 
ATOM      5  C   UNL     1       2.093   3.137  18.506  0.00  0.00    +0.000 C 
ATOM      6  C   UNL     1       1.008   2.851  19.541  0.00  0.00    +0.000 C 
ATOM      7  C   UNL     1       0.977   4.098  20.408  0.00  0.00    +0.000 C 
ATOM      8  C   UNL     1       2.447   4.469  20.548  0.00  0.00    +0.000 C 
ATOM      9  C   UNL     1       3.310   5.376  18.342  0.00  0.00    +0.000 C 
ATOM     10  O   UNL     1       2.446   6.120  17.906  0.00  0.00    +0.000 OA
ATOM     11  N   UNL     1       4.660   5.512  18.170  0.00  0.00    +0.000 N 
ATOM     12  H   UNL     1       4.697   2.791  19.801  0.00  0.00    +0.000 HD
ENDROOT
BRANCH  11  13
ATOM     13  C   UNL     1       5.300   6.580  17.434  0.00  0.00    +0.000 C 
BRANCH  13  14
ATOM     14  C   UNL     1       6.098   6.023  16.315  0.00  0.00    +0.000 A 
ATOM     15  N   UNL     1       7.391   6.119  16.083  0.00  0.00    +0.000 NA
ATOM     16  N   UNL     1       7.635   5.400  14.933  0.00  0.00    +0.000 NA
ATOM     17  C   UNL     1       6.474   4.921  14.530  0.00  0.00    +0.000 A 
ATOM     18  O   UNL     1       5.442   5.292  15.356  0.00  0.00    +0.000 OA
BRANCH  17  19
ATOM     19  C   UNL     1       6.156   4.102  13.366  0.00  0.00    +0.000 A 
ATOM     20  C   UNL     1       4.815   3.919  12.991  0.00  0.00    +0.000 A 
ATOM     21  C   UNL     1       4.475   3.086  11.920  0.00  0.00    +0.000 A 
ATOM     22  C   UNL     1       5.475   2.429  11.207  0.00  0.00    +0.000 A 
ATOM     23  C   UNL     1       6.812   2.623  11.547  0.00  0.00    +0.000 A 
ATOM     24  C   UNL     1       7.152   3.458  12.616  0.00  0.00    +0.000 A 
ENDBRANCH  17  19
ENDBRANCH  13  14
ENDBRANCH  11  13
TORSDOF 3
ENDMDL
MODEL 3
REMARK VINA RESULT:      -9.0      4.536      6.873
REMARK  Name = 
REMARK  3 active torsions:
REMARK  status: ('A' for Active; 'I' for Inactive)
REMARK    1  A    between atoms: N_11  and  C_12
REMARK    2  A    between atoms: C_12  and  C_13
REMARK    3  A    between atoms: C_16  and  C_17
REMARK                            x       y       z     vdW  Elec       q    Type
REMARK                         _______ _______ _______ _____ _____    ______ ____
ROOT
ATOM      1  O   UNL     1       4.493   6.681  16.821  0.00  0.00    +0.000 OA
ATOM      2  C   UNL     1       4.181   5.756  17.553  0.00  0.00    +0.000 C 
ATOM      3  N   UNL     1       2.906   5.542  18.020  0.00  0.00    +0.000 N 
ATOM      4  C   UNL     1       2.809   4.349  18.824  0.00  0.00    +0.000 C 
ATOM      5  C   UNL     1       2.240   4.589  20.225  0.00  0.00    +0.000 C 
ATOM      6  C   UNL     1       0.978   3.734  20.299  0.00  0.00    +0.000 C 
ATOM      7  C   UNL     1       1.239   2.594  19.328  0.00  0.00    +0.000 C 
ATOM      8  C   UNL     1       1.942   3.276  18.162  0.00  0.00    +0.000 C 
ATOM      9  C   UNL     1       4.293   3.934  18.854  0.00  0.00    +0.000 C 
ATOM     10  O   UNL     1       4.749   2.994  19.486  0.00  0.00    +0.000 OA
ATOM     11  N   UNL     1       4.996   4.793  18.056  0.00  0.00    +0.000 N 
ATOM     12  H   UNL     1       2.142   6.143  17.745  0.00  0.00    +0.000 HD
ENDROOT
BRANCH  11  13
ATOM     13  C   UNL     1       6.422   4.727  17.820  0.00  0.00    +0.000 C 
BRANCH  13  14
ATOM     14  C   UNL     1       6.707   4.863  16.370  0.00  0.00    +0.000 A 
ATOM     15  N   UNL     1       7.518   5.696  15.753  0.00  0.00    +0.000 NA
ATOM     16  N   UNL     1       7.443   5.391  14.411  0.00  0.00    +0.000 NA
ATOM     17  C   UNL     1       6.582   4.399  14.294  0.00  0.00    +0.000 A 
ATOM     18  O   UNL     1       6.058   4.017  15.505  0.00  0.00    +0.000 OA
BRANCH  17  19
ATOM     19  C   UNL     1       6.123   3.698  13.100  0.00  0.00    +0.000 A 
ATOM     20  C   UNL     1       4.784   3.818  12.696  0.00  0.00    +0.000 A 
ATOM     21  C   UNL     1       4.298   3.106  11.595  0.00  0.00    +0.000 A 
ATOM     22  C   UNL     1       5.150   2.267  10.880  0.00  0.00    +0.000 A 
ATOM     23  C   UNL     1       6.489   2.160  11.249  0.00  0.00    +0.000 A 
ATOM     24  C   UNL     1       6.975   2.874  12.349  0.00  0.00    +0.000 A 
ENDBRANCH  17  19
ENDBRANCH  13  14
ENDBRANCH  11  13
TORSDOF 3
ENDMDL
MODEL 4
REMARK VINA RESULT:      -8.9      4.189      6.666
REMARK  Name = 
REMARK  3 active torsions:
REMARK  status: ('A' for Active; 'I' for Inactive)
REMARK    1  A    between atoms: N_11  and  C_12
REMARK    2  A    between atoms: C_12  and  C_13
REMARK    3  A    between atoms: C_16  and  C_17
REMARK                            x       y       z     vdW  Elec       q    Type
REMARK                         _______ _______ _______ _____ _____    ______ ____
ROOT
ATOM      1  O   UNL     1       6.462   4.271  18.833  0.00  0.00    +0.000 OA
ATOM      2  C   UNL     1       5.260   4.474  18.784  0.00  0.00    +0.000 C 
ATOM      3  N   UNL     1       4.317   3.631  19.322  0.00  0.00    +0.000 N 
ATOM      4  C   UNL     1       2.975   4.136  19.165  0.00  0.00    +0.000 C 
ATOM      5  C   UNL     1       2.027   3.167  18.454  0.00  0.00    +0.000 C 
ATOM      6  C   UNL     1       0.909   2.891  19.456  0.00  0.00    +0.000 C 
ATOM      7  C   UNL     1       0.864   4.139  20.322  0.00  0.00    +0.000 C 
ATOM      8  C   UNL     1       2.332   4.496  20.505  0.00  0.00    +0.000 C 
ATOM      9  C   UNL     1       3.269   5.394  18.325  0.00  0.00    +0.000 C 
ATOM     10  O   UNL     1       2.424   6.146  17.864  0.00  0.00    +0.000 OA
ATOM     11  N   UNL     1       4.624   5.518  18.193  0.00  0.00    +0.000 N 
ATOM     12  H   UNL     1       4.588   2.798  19.825  0.00  0.00    +0.000 HD
ENDROOT
BRANCH  11  13
ATOM     13  C   UNL     1       5.294   6.581  17.476  0.00  0.00    +0.000 C 
BRANCH  13  14
ATOM     14  C   UNL     1       6.065   6.022  16.338  0.00  0.00    +0.000 A 
ATOM     15  N   UNL     1       7.346   6.146  16.057  0.00  0.00    +0.000 NA
ATOM     16  N   UNL     1       7.565   5.410  14.912  0.00  0.00    +0.000 NA
ATOM     17  C   UNL     1       6.404   4.895  14.561  0.00  0.00    +0.000 A 
ATOM     18  O   UNL     1       5.393   5.256  15.419  0.00  0.00    +0.000 OA
BRANCH  17  19
ATOM     19  C   UNL     1       6.064   4.045  13.425  0.00  0.00    +0.000 A 
ATOM     20  C   UNL     1       7.087   3.403  12.708  0.00  0.00    +0.000 A 
ATOM     21  C   UNL     1       6.799   2.636  11.575  0.00  0.00    +0.000 A 
ATOM     22  C   UNL     1       5.480   2.497  11.148  0.00  0.00    +0.000 A 
ATOM     23  C   UNL     1       4.450   3.103  11.865  0.00  0.00    +0.000 A 
ATOM     24  C   UNL     1       4.740   3.868  13.000  0.00  0.00    +0.000 A 
ENDBRANCH  17  19
ENDBRANCH  13  14
ENDBRANCH  11  13
TORSDOF 3
ENDMDL
MODEL 5
REMARK VINA RESULT:      -8.8      4.504      6.858
REMARK  Name = 
REMARK  3 active torsions:
REMARK  status: ('A' for Active; 'I' for Inactive)
REMARK    1  A    between atoms: N_11  and  C_12
REMARK    2  A    between atoms: C_12  and  C_13
REMARK    3  A    between atoms: C_16  and  C_17
REMARK                            x       y       z     vdW  Elec       q    Type
REMARK                         _______ _______ _______ _____ _____    ______ ____
ROOT
ATOM      1  O   UNL     1       4.641   7.049  17.472  0.00  0.00    +0.000 OA
ATOM      2  C   UNL     1       4.239   6.011  17.970  0.00  0.00    +0.000 C 
ATOM      3  N   UNL     1       2.943   5.809  18.383  0.00  0.00    +0.000 N 
ATOM      4  C   UNL     1       2.730   4.475  18.889  0.00  0.00    +0.000 C 
ATOM      5  C   UNL     1       2.164   4.433  20.311  0.00  0.00    +0.000 C 
ATOM      6  C   UNL     1       0.831   3.700  20.192  0.00  0.00    +0.000 C 
ATOM      7  C   UNL     1       1.005   2.798  18.982  0.00  0.00    +0.000 C 
ATOM      8  C   UNL     1       1.782   3.666  18.002  0.00  0.00    +0.000 C 
ATOM      9  C   UNL     1       4.171   3.935  18.813  0.00  0.00    +0.000 C 
ATOM     10  O   UNL     1       4.534   2.837  19.206  0.00  0.00    +0.000 OA
ATOM     11  N   UNL     1       4.959   4.890  18.231  0.00  0.00    +0.000 N 
ATOM     12  H   UNL     1       2.239   6.522  18.260  0.00  0.00    +0.000 HD
ENDROOT
BRANCH  11  13
ATOM     13  C   UNL     1       6.376   4.754  17.978  0.00  0.00    +0.000 C 
BRANCH  13  14
ATOM     14  C   UNL     1       6.651   4.886  16.526  0.00  0.00    +0.000 A 
ATOM     15  N   UNL     1       7.454   5.721  15.900  0.00  0.00    +0.000 NA
ATOM     16  N   UNL     1       7.371   5.412  14.560  0.00  0.00    +0.000 NA
ATOM     17  C   UNL     1       6.513   4.416  14.451  0.00  0.00    +0.000 A 
ATOM     18  O   UNL     1       5.999   4.036  15.667  0.00  0.00    +0.000 OA
BRANCH  17  19
ATOM     19  C   UNL     1       6.049   3.711  13.262  0.00  0.00    +0.000 A 
ATOM     20  C   UNL     1       6.943   2.903  12.541  0.00  0.00    +0.000 A 
ATOM     21  C   UNL     1       6.545   2.267  11.361  0.00  0.00    +0.000 A 
ATOM     22  C   UNL     1       5.244   2.428  10.890  0.00  0.00    +0.000 A 
ATOM     23  C   UNL     1       4.336   3.201  11.610  0.00  0.00    +0.000 A 
ATOM     24  C   UNL     1       4.734   3.835  12.791  0.00  0.00    +0.000 A 
ENDBRANCH  17  19
ENDBRANCH  13  14
ENDBRANCH  11  13
TORSDOF 3
ENDMDL
MODEL 6
REMARK VINA RESULT:      -8.7      4.184      6.050
REMARK  Name = 
REMARK  3 active torsions:
REMARK  status: ('A' for Active; 'I' for Inactive)
REMARK    1  A    between atoms: N_11  and  C_12
REMARK    2  A    between atoms: C_12  and  C_13
REMARK    3  A    between atoms: C_16  and  C_17
REMARK                            x       y       z     vdW  Elec       q    Type
REMARK                         _______ _______ _______ _____ _____    ______ ____
ROOT
ATOM      1  O   UNL     1       4.052   6.975  17.861  0.00  0.00    +0.000 OA
ATOM      2  C   UNL     1       3.737   5.915  18.377  0.00  0.00    +0.000 C 
ATOM      3  N   UNL     1       2.440   5.480  18.507  0.00  0.00    +0.000 N 
ATOM      4  C   UNL     1       2.357   4.171  19.109  0.00  0.00    +0.000 C 
ATOM      5  C   UNL     1       1.476   4.118  20.360  0.00  0.00    +0.000 C 
ATOM      6  C   UNL     1       0.371   3.118  20.032  0.00  0.00    +0.000 C 
ATOM      7  C   UNL     1       1.000   2.185  19.010  0.00  0.00    +0.000 C 
ATOM      8  C   UNL     1       1.821   3.121  18.134  0.00  0.00    +0.000 C 
ATOM      9  C   UNL     1       3.846   3.937  19.426  0.00  0.00    +0.000 C 
ATOM     10  O   UNL     1       4.296   2.970  20.021  0.00  0.00    +0.000 OA
ATOM     11  N   UNL     1       4.564   4.989  18.928  0.00  0.00    +0.000 N 
ATOM     12  H   UNL     1       1.669   6.021  18.142  0.00  0.00    +0.000 HD
ENDROOT
BRANCH  11  13
ATOM     13  C   UNL     1       6.000   5.131  19.020  0.00  0.00    +0.000 C 
BRANCH  13  14
ATOM     14  C   UNL     1       6.570   5.435  17.684  0.00  0.00    +0.000 A 
ATOM     15  N   UNL     1       7.454   6.349  17.342  0.00  0.00    +0.000 NA
ATOM     16  N   UNL     1       7.669   6.195  15.989  0.00  0.00    +0.000 NA
ATOM     17  C   UNL     1       6.896   5.205  15.590  0.00  0.00    +0.000 A 
ATOM     18  O   UNL     1       6.151   4.679  16.618  0.00  0.00    +0.000 OA
BRANCH  17  19
ATOM     19  C   UNL     1       6.723   4.633  14.260  0.00  0.00    +0.000 A 
ATOM     20  C   UNL     1       7.637   4.953  13.243  0.00  0.00    +0.000 A 
ATOM     21  C   UNL     1       7.460   4.474  11.941  0.00  0.00    +0.000 A 
ATOM     22  C   UNL     1       6.368   3.663  11.641  0.00  0.00    +0.000 A 
ATOM     23  C   UNL     1       5.469   3.311  12.646  0.00  0.00    +0.000 A 
ATOM     24  C   UNL     1       5.647   3.789  13.948  0.00  0.00    +0.000 A 
ENDBRANCH  17  19
ENDBRANCH  13  14
ENDBRANCH  11  13
TORSDOF 3
ENDMDL
MODEL 7
REMARK VINA RESULT:      -8.6      3.774      7.079
REMARK  Name = 
REMARK  3 active torsions:
REMARK  status: ('A' for Active; 'I' for Inactive)
REMARK    1  A    between atoms: N_11  and  C_12
REMARK    2  A    between atoms: C_12  and  C_13
REMARK    3  A    between atoms: C_16  and  C_17
REMARK                            x       y       z     vdW  Elec       q    Type
REMARK                         _______ _______ _______ _____ _____    ______ ____
ROOT
ATOM      1  O   UNL     1       7.938   5.051  17.966  0.00  0.00    +0.000 OA
ATOM      2  C   UNL     1       7.363   5.177  16.897  0.00  0.00    +0.000 C 
ATOM      3  N   UNL     1       7.603   4.387  15.799  0.00  0.00    +0.000 N 
ATOM      4  C   UNL     1       6.749   4.720  14.685  0.00  0.00    +0.000 C 
ATOM      5  C   UNL     1       7.509   5.057  13.399  0.00  0.00    +0.000 C 
ATOM      6  C   UNL     1       7.038   4.030  12.373  0.00  0.00    +0.000 C 
ATOM      7  C   UNL     1       5.640   3.653  12.834  0.00  0.00    +0.000 C 
ATOM      8  C   UNL     1       5.770   3.593  14.350  0.00  0.00    +0.000 C 
ATOM      9  C   UNL     1       6.020   5.943  15.275  0.00  0.00    +0.000 C 
ATOM     10  O   UNL     1       5.220   6.643  14.674  0.00  0.00    +0.000 OA
ATOM     11  N   UNL     1       6.420   6.099  16.573  0.00  0.00    +0.000 N 
ATOM     12  H   UNL     1       8.263   3.623  15.840  0.00  0.00    +0.000 HD
ENDROOT
BRANCH  11  13
ATOM     13  C   UNL     1       5.952   7.136  17.466  0.00  0.00    +0.000 C 
BRANCH  13  14
ATOM     14  C   UNL     1       4.550   6.866  17.870  0.00  0.00    +0.000 A 
ATOM     15  N   UNL     1       3.460   7.559  17.616  0.00  0.00    +0.000 NA
ATOM     16  N   UNL     1       2.415   6.866  18.188  0.00  0.00    +0.000 NA
ATOM     17  C   UNL     1       2.935   5.801  18.765  0.00  0.00    +0.000 A 
ATOM     18  O   UNL     1       4.299   5.741  18.616  0.00  0.00    +0.000 OA
BRANCH  17  19
ATOM     19  C   UNL     1       2.283   4.736  19.518  0.00  0.00    +0.000 A 
ATOM     20  C   UNL     1       2.559   4.584  20.887  0.00  0.00    +0.000 A 
ATOM     21  C   UNL     1       2.002   3.533  21.621  0.00  0.00    +0.000 A 
ATOM     22  C   UNL     1       1.155   2.621  20.995  0.00  0.00    +0.000 A 
ATOM     23  C   UNL     1       0.846   2.774  19.645  0.00  0.00    +0.000 A 
ATOM     24  C   UNL     1       1.403   3.828  18.912  0.00  0.00    +0.000 A 
ENDBRANCH  17  19
ENDBRANCH  13  14
ENDBRANCH  11  13
TORSDOF 3
ENDMDL
MODEL 8
REMARK VINA RESULT:      -8.5      0.696      1.221
REMARK  Name = 
REMARK  3 active torsions:
REMARK  status: ('A' for Active; 'I' for Inactive)
REMARK    1  A    between atoms: N_11  and  C_12
REMARK    2  A    between atoms: C_12  and  C_13
REMARK    3  A    between atoms: C_16  and  C_17
REMARK                            x       y       z     vdW  Elec       q    Type
REMARK                         _______ _______ _______ _____ _____    ______ ____
ROOT
ATOM      1  O   UNL     1       7.120   5.520  15.554  0.00  0.00    +0.000 OA
ATOM      2  C   UNL     1       6.329   5.339  16.465  0.00  0.00    +0.000 C 
ATOM      3  N   UNL     1       5.034   4.914  16.284  0.00  0.00    +0.000 N 
ATOM      4  C   UNL     1       4.336   4.734  17.533  0.00  0.00    +0.000 C 
ATOM      5  C   UNL     1       3.033   5.533  17.637  0.00  0.00    +0.000 C 
ATOM      6  C   UNL     1       1.937   4.490  17.836  0.00  0.00    +0.000 C 
ATOM      7  C   UNL     1       2.644   3.325  18.507  0.00  0.00    +0.000 C 
ATOM      8  C   UNL     1       3.988   3.267  17.794  0.00  0.00    +0.000 C 
ATOM      9  C   UNL     1       5.415   5.240  18.510  0.00  0.00    +0.000 C 
ATOM     10  O   UNL     1       5.275   5.355  19.717  0.00  0.00    +0.000 OA
ATOM     11  N   UNL     1       6.543   5.529  17.793  0.00  0.00    +0.000 N 
ATOM     12  H   UNL     1       4.680   4.698  15.363  0.00  0.00    +0.000 HD
ENDROOT
BRANCH  11  13
ATOM     13  C   UNL     1       7.780   6.024  18.356  0.00  0.00    +0.000 C 
BRANCH  13  14
ATOM     14  C   UNL     1       7.892   7.488  18.135  0.00  0.00    +0.000 A 
ATOM     15  N   UNL     1       7.214   8.262  17.314  0.00  0.00    +0.000 NA
ATOM     16  N   UNL     1       7.678   9.544  17.516  0.00  0.00    +0.000 NA
ATOM     17  C   UNL     1       8.617   9.469  18.439  0.00  0.00    +0.000 A 
ATOM     18  O   UNL     1       8.820   8.181  18.871  0.00  0.00    +0.000 OA
BRANCH  17  19
ATOM     19  C   UNL     1       9.441  10.522  19.020  0.00  0.00    +0.000 A 
ATOM     20  C   UNL     1      10.307  11.261  18.196  0.00  0.00    +0.000 A 
ATOM     21  C   UNL     1      11.157  12.231  18.735  0.00  0.00    +0.000 A 
ATOM     22  C   UNL     1      11.149  12.479  20.105  0.00  0.00    +0.000 A 
ATOM     23  C   UNL     1      10.275  11.777  20.932  0.00  0.00    +0.000 A 
ATOM     24  C   UNL     1       9.423  10.808  20.393  0.00  0.00    +0.000 A 
ENDBRANCH  17  19
ENDBRANCH  13  14
ENDBRANCH  11  13
TORSDOF 3
ENDMDL
MODEL 9
REMARK VINA RESULT:      -8.4      1.678      2.010
REMARK  Name = 
REMARK  3 active torsions:
REMARK  status: ('A' for Active; 'I' for Inactive)
REMARK    1  A    between atoms: N_11  and  C_12
REMARK    2  A    between atoms: C_12  and  C_13
REMARK    3  A    between atoms: C_16  and  C_17
REMARK                            x       y       z     vdW  Elec       q    Type
REMARK                         _______ _______ _______ _____ _____    ______ ____
ROOT
ATOM      1  O   UNL     1       5.605   3.498  15.940  0.00  0.00    +0.000 OA
ATOM      2  C   UNL     1       4.852   4.069  16.711  0.00  0.00    +0.000 C 
ATOM      3  N   UNL     1       3.912   3.428  17.482  0.00  0.00    +0.000 N 
ATOM      4  C   UNL     1       3.193   4.336  18.340  0.00  0.00    +0.000 C 
ATOM      5  C   UNL     1       1.673   4.283  18.165  0.00  0.00    +0.000 C 
ATOM      6  C   UNL     1       1.125   3.881  19.533  0.00  0.00    +0.000 C 
ATOM      7  C   UNL     1       2.166   4.385  20.517  0.00  0.00    +0.000 C 
ATOM      8  C   UNL     1       3.486   4.087  19.821  0.00  0.00    +0.000 C 
ATOM      9  C   UNL     1       3.793   5.673  17.864  0.00  0.00    +0.000 C 
ATOM     10  O   UNL     1       3.447   6.779  18.251  0.00  0.00    +0.000 OA
ATOM     11  N   UNL     1       4.771   5.404  16.947  0.00  0.00    +0.000 N 
ATOM     12  H   UNL     1       3.823   2.421  17.465  0.00  0.00    +0.000 HD
ENDROOT
BRANCH  11  13
ATOM     13  C   UNL     1       5.574   6.401  16.274  0.00  0.00    +0.000 C 
BRANCH  13  14
ATOM     14  C   UNL     1       6.639   6.897  17.181  0.00  0.00    +0.000 A 
ATOM     15  N   UNL     1       7.388   6.228  18.033  0.00  0.00    +0.000 NA
ATOM     16  N   UNL     1       8.241   7.147  18.605  0.00  0.00    +0.000 NA
ATOM     17  C   UNL     1       7.951   8.318  18.075  0.00  0.00    +0.000 A 
ATOM     18  O   UNL     1       6.925   8.239  17.165  0.00  0.00    +0.000 OA
BRANCH  17  19
ATOM     19  C   UNL     1       8.539   9.629  18.328  0.00  0.00    +0.000 A 
ATOM     20  C   UNL     1       9.368   9.813  19.447  0.00  0.00    +0.000 A 
ATOM     21  C   UNL     1       9.892  11.073  19.753  0.00  0.00    +0.000 A 
ATOM     22  C   UNL     1       9.598  12.164  18.939  0.00  0.00    +0.000 A 
ATOM     23  C   UNL     1       8.802  11.992  17.808  0.00  0.00    +0.000 A 
ATOM     24  C   UNL     1       8.280  10.732  17.501  0.00  0.00    +0.000 A 
ENDBRANCH  17  19
ENDBRANCH  13  14
ENDBRANCH  11  13
TORSDOF 3
ENDMDL
