MODEL 1
REMARK VINA RESULT:      -7.3      0.000      0.000
REMARK  Name = 
REMARK  4 active torsions:
REMARK  status: ('A' for Active; 'I' for Inactive)
REMARK    1  A    between atoms: C_2  and  C_14
REMARK    2  A    between atoms: N_3  and  N_4
REMARK    3  A    between atoms: C_5  and  C_6
REMARK    4  A    between atoms: C_7  and  C_8
REMARK                            x       y       z     vdW  Elec       q    Type
REMARK                         _______ _______ _______ _____ _____    ______ ____
ROOT
ATOM      1  O   UNL     1       5.137   7.401  15.871  0.00  0.00    +0.000 OA
ATOM      2  C   UNL     1       5.439   6.637  16.782  0.00  0.00    +0.000 C 
ATOM      3  N   UNL     1       6.628   6.678  17.502  0.00  0.00    +0.000 N 
ATOM      4  H   UNL     1       6.780   6.089  18.308  0.00  0.00    +0.000 HD
ENDROOT
BRANCH   2   5
ATOM      5  C   UNL     1       4.464   5.582  17.189  0.00  0.00    +0.000 A 
ATOM      6  C   UNL     1       3.218   5.886  17.756  0.00  0.00    +0.000 A 
ATOM      7  C   UNL     1       2.360   4.857  18.159  0.00  0.00    +0.000 A 
ATOM      8  C   UNL     1       2.748   3.526  18.003  0.00  0.00    +0.000 A 
ATOM      9 BR   UNL     1       1.599   2.143  18.584  0.00  0.00    +0.000 Br
ATOM     10  C   UNL     1       3.984   3.212  17.444  0.00  0.00    +0.000 A 
ATOM     11  C   UNL     1       4.842   4.239  17.041  0.00  0.00    +0.000 A 
ENDBRANCH   2   5
BRANCH   3  12
ATOM     12  N   UNL     1       7.567   7.605  17.173  0.00  0.00    +0.000 NA
ATOM     13  C   UNL     1       7.802   8.534  18.042  0.00  0.00    +0.000 C 
BRANCH  13  14
ATOM     14  C   UNL     1       8.814   9.565  17.744  0.00  0.00    +0.000 C 
ATOM     15  C   UNL     1       9.029  10.615  18.548  0.00  0.00    +0.000 C 
BRANCH  15  16
ATOM     16  C   UNL     1      10.034  11.650  18.247  0.00  0.00    +0.000 A 
ATOM     17  C   UNL     1      11.361  11.463  18.658  0.00  0.00    +0.000 A 
ATOM     18  C   UNL     1      12.332  12.435  18.395  0.00  0.00    +0.000 A 
ATOM     19  C   UNL     1      11.992  13.598  17.707  0.00  0.00    +0.000 A 
ATOM     20  C   UNL     1      10.684  13.786  17.271  0.00  0.00    +0.000 A 
ATOM     21  C   UNL     1       9.715  12.814  17.530  0.00  0.00    +0.000 A 
ENDBRANCH  15  16
ENDBRANCH  13  14
ENDBRANCH   3  12
TORSDOF 4
ENDMDL
MODEL 2
REMARK VINA RESULT:      -7.3      1.716      2.238
REMARK  Name = 
REMARK  4 active torsions:
REMARK  status: ('A' for Active; 'I' for Inactive)
REMARK    1  A    between atoms: C_2  and  C_14
REMARK    2  A    between atoms: N_3  and  N_4
REMARK    3  A    between atoms: C_5  and  C_6
REMARK    4  A    between atoms: C_7  and  C_8
REMARK                            x       y       z     vdW  Elec       q    Type
REMARK                         _______ _______ _______ _____ _____    ______ ____
ROOT
ATOM      1  O   UNL     1       7.198   5.177  20.011  0.00  0.00    +0.000 OA
ATOM      2  C   UNL     1       6.357   5.502  19.180  0.00  0.00    +0.000 C 
ATOM      3  N   UNL     1       6.485   6.550  18.276  0.00  0.00    +0.000 N 
ATOM      4  H   UNL     1       5.804   6.708  17.547  0.00  0.00    +0.000 HD
ENDROOT
BRANCH   2   5
ATOM      5  C   UNL     1       5.092   4.712  19.090  0.00  0.00    +0.000 A 
ATOM      6  C   UNL     1       5.081   3.336  18.824  0.00  0.00    +0.000 A 
ATOM      7  C   UNL     1       3.865   2.653  18.709  0.00  0.00    +0.000 A 
ATOM      8  C   UNL     1       2.662   3.345  18.851  0.00  0.00    +0.000 A 
ATOM      9 BR   UNL     1       1.024   2.423  18.658  0.00  0.00    +0.000 Br
ATOM     10  C   UNL     1       2.661   4.713  19.115  0.00  0.00    +0.000 A 
ATOM     11  C   UNL     1       3.874   5.395  19.230  0.00  0.00    +0.000 A 
ENDBRANCH   2   5
BRANCH   3  12
ATOM     12  N   UNL     1       7.606   7.320  18.313  0.00  0.00    +0.000 NA
ATOM     13  C   UNL     1       7.542   8.475  17.734  0.00  0.00    +0.000 C 
BRANCH  13  14
ATOM     14  C   UNL     1       8.723   9.357  17.746  0.00  0.00    +0.000 C 
ATOM     15  C   UNL     1       8.917  10.287  18.691  0.00  0.00    +0.000 C 
BRANCH  15  16
ATOM     16  C   UNL     1      10.093  11.176  18.699  0.00  0.00    +0.000 A 
ATOM     17  C   UNL     1      10.438  11.872  17.533  0.00  0.00    +0.000 A 
ATOM     18  C   UNL     1      11.556  12.714  17.510  0.00  0.00    +0.000 A 
ATOM     19  C   UNL     1      12.333  12.878  18.654  0.00  0.00    +0.000 A 
ATOM     20  C   UNL     1      11.988  12.212  19.826  0.00  0.00    +0.000 A 
ATOM     21  C   UNL     1      10.871  11.375  19.850  0.00  0.00    +0.000 A 
ENDBRANCH  15  16
ENDBRANCH  13  14
ENDBRANCH   3  12
TORSDOF 4
ENDMDL
MODEL 3
REMARK VINA RESULT:      -7.2      0.966      1.275
REMARK  Name = 
REMARK  4 active torsions:
REMARK  status: ('A' for Active; 'I' for Inactive)
REMARK    1  A    between atoms: C_2  and  C_14
REMARK    2  A    between atoms: N_3  and  N_4
REMARK    3  A    between atoms: C_5  and  C_6
REMARK    4  A    between atoms: C_7  and  C_8
REMARK                            x       y       z     vdW  Elec       q    Type
REMARK                         _______ _______ _______ _____ _____    ______ ____
ROOT
ATOM      1  O   UNL     1       5.701   7.064  15.864  0.00  0.00    +0.000 OA
ATOM      2  C   UNL     1       5.996   6.564  16.945  0.00  0.00    +0.000 C 
ATOM      3  N   UNL     1       7.055   6.965  17.752  0.00  0.00    +0.000 N 
ATOM      4  H   UNL     1       7.189   6.584  18.678  0.00  0.00    +0.000 HD
ENDROOT
BRANCH   2   5
ATOM      5  C   UNL     1       5.155   5.449  17.474  0.00  0.00    +0.000 A 
ATOM      6  C   UNL     1       4.655   4.427  16.654  0.00  0.00    +0.000 A 
ATOM      7  C   UNL     1       3.837   3.430  17.195  0.00  0.00    +0.000 A 
ATOM      8  C   UNL     1       3.511   3.457  18.551  0.00  0.00    +0.000 A 
ATOM      9 BR   UNL     1       2.375   2.128  19.267  0.00  0.00    +0.000 Br
ATOM     10  C   UNL     1       4.000   4.468  19.376  0.00  0.00    +0.000 A 
ATOM     11  C   UNL     1       4.818   5.464  18.836  0.00  0.00    +0.000 A 
ENDBRANCH   2   5
BRANCH   3  12
ATOM     12  N   UNL     1       7.871   7.965  17.322  0.00  0.00    +0.000 NA
ATOM     13  C   UNL     1       8.123   8.915  18.162  0.00  0.00    +0.000 C 
BRANCH  13  14
ATOM     14  C   UNL     1       9.005  10.025  17.756  0.00  0.00    +0.000 C 
ATOM     15  C   UNL     1       9.025  11.200  18.399  0.00  0.00    +0.000 C 
BRANCH  15  16
ATOM     16  C   UNL     1       9.900  12.313  17.989  0.00  0.00    +0.000 A 
ATOM     17  C   UNL     1      11.203  12.040  17.551  0.00  0.00    +0.000 A 
ATOM     18  C   UNL     1      12.058  13.079  17.166  0.00  0.00    +0.000 A 
ATOM     19  C   UNL     1      11.616  14.400  17.202  0.00  0.00    +0.000 A 
ATOM     20  C   UNL     1      10.316  14.684  17.611  0.00  0.00    +0.000 A 
ATOM     21  C   UNL     1       9.462  13.647  17.992  0.00  0.00    +0.000 A 
ENDBRANCH  15  16
ENDBRANCH  13  14
ENDBRANCH   3  12
TORSDOF 4
ENDMDL
MODEL 4
REMARK VINA RESULT:      -7.2      1.418      1.440
REMARK  Name = 
REMARK  4 active torsions:
REMARK  status: ('A' for Active; 'I' for Inactive)
REMARK    1  A    between atoms: C_2  and  C_14
REMARK    2  A    between atoms: N_3  and  N_4
REMARK    3  A    between atoms: C_5  and  C_6
REMARK    4  A    between atoms: C_7  and  C_8
REMARK                            x       y       z     vdW  Elec       q    Type
REMARK                         _______ _______ _______ _____ _____    ______ ____
ROOT
ATOM      1  O   UNL     1       6.897   5.768  19.557  0.00  0.00    +0.000 OA
ATOM      2  C   UNL     1       6.153   5.849  18.584  0.00  0.00    +0.000 C 
ATOM      3  N   UNL     1       6.409   6.591  17.437  0.00  0.00    +0.000 N 
ATOM      4  H   UNL     1       5.808   6.540  16.627  0.00  0.00    +0.000 HD
ENDROOT
BRANCH   2   5
ATOM      5  C   UNL     1       4.872   5.080  18.593  0.00  0.00    +0.000 A 
ATOM      6  C   UNL     1       3.993   5.094  19.686  0.00  0.00    +0.000 A 
ATOM      7  C   UNL     1       2.827   4.321  19.658  0.00  0.00    +0.000 A 
ATOM      8  C   UNL     1       2.543   3.530  18.545  0.00  0.00    +0.000 A 
ATOM      9 BR   UNL     1       0.985   2.461  18.530  0.00  0.00    +0.000 Br
ATOM     10  C   UNL     1       3.409   3.506  17.455  0.00  0.00    +0.000 A 
ATOM     11  C   UNL     1       4.574   4.278  17.481  0.00  0.00    +0.000 A 
ENDBRANCH   2   5
BRANCH   3  12
ATOM     12  N   UNL     1       7.551   7.328  17.370  0.00  0.00    +0.000 NA
ATOM     13  C   UNL     1       7.523   8.502  17.912  0.00  0.00    +0.000 C 
BRANCH  13  14
ATOM     14  C   UNL     1       8.732   9.345  17.875  0.00  0.00    +0.000 C 
ATOM     15  C   UNL     1       8.817  10.509  18.534  0.00  0.00    +0.000 C 
BRANCH  15  16
ATOM     16  C   UNL     1      10.022  11.357  18.491  0.00  0.00    +0.000 A 
ATOM     17  C   UNL     1      10.929  11.321  19.559  0.00  0.00    +0.000 A 
ATOM     18  C   UNL     1      12.074  12.124  19.549  0.00  0.00    +0.000 A 
ATOM     19  C   UNL     1      12.333  12.962  18.466  0.00  0.00    +0.000 A 
ATOM     20  C   UNL     1      11.454  12.990  17.387  0.00  0.00    +0.000 A 
ATOM     21  C   UNL     1      10.312  12.186  17.396  0.00  0.00    +0.000 A 
ENDBRANCH  15  16
ENDBRANCH  13  14
ENDBRANCH   3  12
TORSDOF 4
ENDMDL
MODEL 5
REMARK VINA RESULT:      -7.0      0.671      1.262
REMARK  Name = 
REMARK  4 active torsions:
REMARK  status: ('A' for Active; 'I' for Inactive)
REMARK    1  A    between atoms: C_2  and  C_14
REMARK    2  A    between atoms: N_3  and  N_4
REMARK    3  A    between atoms: C_5  and  C_6
REMARK    4  A    between atoms: C_7  and  C_8
REMARK                            x       y       z     vdW  Elec       q    Type
REMARK                         _______ _______ _______ _____ _____    ______ ____
ROOT
ATOM      1  O   UNL     1       4.385   7.835  17.414  0.00  0.00    +0.000 OA
ATOM      2  C   UNL     1       4.944   6.746  17.503  0.00  0.00    +0.000 C 
ATOM      3  N   UNL     1       6.310   6.532  17.361  0.00  0.00    +0.000 N 
ATOM      4  H   UNL     1       6.728   5.631  17.546  0.00  0.00    +0.000 HD
ENDROOT
BRANCH   2   5
ATOM      5  C   UNL     1       4.121   5.539  17.812  0.00  0.00    +0.000 A 
ATOM      6  C   UNL     1       4.653   4.241  17.798  0.00  0.00    +0.000 A 
ATOM      7  C   UNL     1       3.827   3.142  18.053  0.00  0.00    +0.000 A 
ATOM      8  C   UNL     1       2.471   3.336  18.315  0.00  0.00    +0.000 A 
ATOM      9 BR   UNL     1       1.354   1.843  18.623  0.00  0.00    +0.000 Br
ATOM     10  C   UNL     1       1.931   4.620  18.330  0.00  0.00    +0.000 A 
ATOM     11  C   UNL     1       2.755   5.719  18.076  0.00  0.00    +0.000 A 
ENDBRANCH   2   5
BRANCH   3  12
ATOM     12  N   UNL     1       7.116   7.587  17.063  0.00  0.00    +0.000 NA
ATOM     13  C   UNL     1       7.668   8.201  18.059  0.00  0.00    +0.000 C 
BRANCH  13  14
ATOM     14  C   UNL     1       8.557   9.348  17.800  0.00  0.00    +0.000 C 
ATOM     15  C   UNL     1       9.017  10.138  18.780  0.00  0.00    +0.000 C 
BRANCH  15  16
ATOM     16  C   UNL     1       9.898  11.290  18.521  0.00  0.00    +0.000 A 
ATOM     17  C   UNL     1      11.157  11.348  19.135  0.00  0.00    +0.000 A 
ATOM     18  C   UNL     1      12.008  12.436  18.915  0.00  0.00    +0.000 A 
ATOM     19  C   UNL     1      11.617  13.472  18.070  0.00  0.00    +0.000 A 
ATOM     20  C   UNL     1      10.381  13.417  17.434  0.00  0.00    +0.000 A 
ATOM     21  C   UNL     1       9.532  12.329  17.651  0.00  0.00    +0.000 A 
ENDBRANCH  15  16
ENDBRANCH  13  14
ENDBRANCH   3  12
TORSDOF 4
ENDMDL
MODEL 6
REMARK VINA RESULT:      -7.0      4.229      9.839
REMARK  Name = 
REMARK  4 active torsions:
REMARK  status: ('A' for Active; 'I' for Inactive)
REMARK    1  A    between atoms: C_2  and  C_14
REMARK    2  A    between atoms: N_3  and  N_4
REMARK    3  A    between atoms: C_5  and  C_6
REMARK    4  A    between atoms: C_7  and  C_8
REMARK                            x       y       z     vdW  Elec       q    Type
REMARK                         _______ _______ _______ _____ _____    ______ ____
ROOT
ATOM      1  O   UNL     1       9.194  10.138  19.936  0.00  0.00    +0.000 OA
ATOM      2  C   UNL     1       9.176  10.378  18.733  0.00  0.00    +0.000 C 
ATOM      3  N   UNL     1       8.654   9.538  17.755  0.00  0.00    +0.000 N 
ATOM      4  H   UNL     1       8.574   9.831  16.792  0.00  0.00    +0.000 HD
ENDROOT
BRANCH   2   5
ATOM      5  C   UNL     1       9.728  11.679  18.251  0.00  0.00    +0.000 A 
ATOM      6  C   UNL     1      11.012  11.794  17.698  0.00  0.00    +0.000 A 
ATOM      7  C   UNL     1      11.496  13.045  17.301  0.00  0.00    +0.000 A 
ATOM      8  C   UNL     1      10.703  14.181  17.463  0.00  0.00    +0.000 A 
ATOM      9 BR   UNL     1      11.378  15.873  16.959  0.00  0.00    +0.000 Br
ATOM     10  C   UNL     1       9.427  14.080  18.012  0.00  0.00    +0.000 A 
ATOM     11  C   UNL     1       8.942  12.831  18.409  0.00  0.00    +0.000 A 
ENDBRANCH   2   5
BRANCH   3  12
ATOM     12  N   UNL     1       8.149   8.330  18.124  0.00  0.00    +0.000 NA
ATOM     13  C   UNL     1       7.240   7.818  17.360  0.00  0.00    +0.000 C 
BRANCH  13  14
ATOM     14  C   UNL     1       6.658   6.508  17.705  0.00  0.00    +0.000 C 
ATOM     15  C   UNL     1       5.354   6.238  17.552  0.00  0.00    +0.000 C 
BRANCH  15  16
ATOM     16  C   UNL     1       4.769   4.931  17.905  0.00  0.00    +0.000 A 
ATOM     17  C   UNL     1       5.104   4.334  19.128  0.00  0.00    +0.000 A 
ATOM     18  C   UNL     1       4.572   3.090  19.482  0.00  0.00    +0.000 A 
ATOM     19  C   UNL     1       3.690   2.434  18.626  0.00  0.00    +0.000 A 
ATOM     20  C   UNL     1       3.329   3.027  17.419  0.00  0.00    +0.000 A 
ATOM     21  C   UNL     1       3.858   4.271  17.067  0.00  0.00    +0.000 A 
ENDBRANCH  15  16
ENDBRANCH  13  14
ENDBRANCH   3  12
TORSDOF 4
ENDMDL
MODEL 7
REMARK VINA RESULT:      -7.0      0.871      1.309
REMARK  Name = 
REMARK  4 active torsions:
REMARK  status: ('A' for Active; 'I' for Inactive)
REMARK    1  A    between atoms: C_2  and  C_14
REMARK    2  A    between atoms: N_3  and  N_4
REMARK    3  A    between atoms: C_5  and  C_6
REMARK    4  A    between atoms: C_7  and  C_8
REMARK                            x       y       z     vdW  Elec       q    Type
REMARK                         _______ _______ _______ _____ _____    ______ ____
ROOT
ATOM      1  O   UNL     1       4.129   7.942  17.426  0.00  0.00    +0.000 OA
ATOM      2  C   UNL     1       4.711   6.865  17.503  0.00  0.00    +0.000 C 
ATOM      3  N   UNL     1       6.088   6.689  17.423  0.00  0.00    +0.000 N 
ATOM      4  H   UNL     1       6.519   5.792  17.594  0.00  0.00    +0.000 HD
ENDROOT
BRANCH   2   5
ATOM      5  C   UNL     1       3.906   5.627  17.724  0.00  0.00    +0.000 A 
ATOM      6  C   UNL     1       2.525   5.660  17.970  0.00  0.00    +0.000 A 
ATOM      7  C   UNL     1       1.827   4.472  18.213  0.00  0.00    +0.000 A 
ATOM      8  C   UNL     1       2.506   3.254  18.218  0.00  0.00    +0.000 A 
ATOM      9 BR   UNL     1       1.563   1.658  18.583  0.00  0.00    +0.000 Br
ATOM     10  C   UNL     1       3.877   3.208  17.977  0.00  0.00    +0.000 A 
ATOM     11  C   UNL     1       4.576   4.394  17.734  0.00  0.00    +0.000 A 
ENDBRANCH   2   5
BRANCH   3  12
ATOM     12  N   UNL     1       6.880   7.774  17.206  0.00  0.00    +0.000 NA
ATOM     13  C   UNL     1       7.742   8.062  18.127  0.00  0.00    +0.000 C 
BRANCH  13  14
ATOM     14  C   UNL     1       8.632   9.223  17.948  0.00  0.00    +0.000 C 
ATOM     15  C   UNL     1       9.102   9.936  18.980  0.00  0.00    +0.000 C 
BRANCH  15  16
ATOM     16  C   UNL     1       9.985  11.102  18.802  0.00  0.00    +0.000 A 
ATOM     17  C   UNL     1       9.880  11.874  17.637  0.00  0.00    +0.000 A 
ATOM     18  C   UNL     1      10.713  12.980  17.437  0.00  0.00    +0.000 A 
ATOM     19  C   UNL     1      11.651  13.335  18.404  0.00  0.00    +0.000 A 
ATOM     20  C   UNL     1      11.750  12.593  19.577  0.00  0.00    +0.000 A 
ATOM     21  C   UNL     1      10.916  11.491  19.778  0.00  0.00    +0.000 A 
ENDBRANCH  15  16
ENDBRANCH  13  14
ENDBRANCH   3  12
TORSDOF 4
ENDMDL
MODEL 8
REMARK VINA RESULT:      -7.0      1.635      1.919
REMARK  Name = 
REMARK  4 active torsions:
REMARK  status: ('A' for Active; 'I' for Inactive)
REMARK    1  A    between atoms: C_2  and  C_14
REMARK    2  A    between atoms: N_3  and  N_4
REMARK    3  A    between atoms: C_5  and  C_6
REMARK    4  A    between atoms: C_7  and  C_8
REMARK                            x       y       z     vdW  Elec       q    Type
REMARK                         _______ _______ _______ _____ _____    ______ ____
ROOT
ATOM      1  O   UNL     1       8.216   6.177  18.758  0.00  0.00    +0.000 OA
ATOM      2  C   UNL     1       7.238   6.481  18.081  0.00  0.00    +0.000 C 
ATOM      3  N   UNL     1       7.115   7.641  17.326  0.00  0.00    +0.000 N 
ATOM      4  H   UNL     1       6.330   7.791  16.709  0.00  0.00    +0.000 HD
ENDROOT
BRANCH   2   5
ATOM      5  C   UNL     1       6.082   5.538  18.025  0.00  0.00    +0.000 A 
ATOM      6  C   UNL     1       5.679   4.772  19.129  0.00  0.00    +0.000 A 
ATOM      7  C   UNL     1       4.615   3.872  19.009  0.00  0.00    +0.000 A 
ATOM      8  C   UNL     1       3.958   3.731  17.787  0.00  0.00    +0.000 A 
ATOM      9 BR   UNL     1       2.545   2.487  17.623  0.00  0.00    +0.000 Br
ATOM     10  C   UNL     1       4.349   4.484  16.683  0.00  0.00    +0.000 A 
ATOM     11  C   UNL     1       5.412   5.384  16.802  0.00  0.00    +0.000 A 
ENDBRANCH   2   5
BRANCH   3  12
ATOM     12  N   UNL     1       8.126   8.552  17.345  0.00  0.00    +0.000 NA
ATOM     13  C   UNL     1       8.248   9.268  18.414  0.00  0.00    +0.000 C 
BRANCH  13  14
ATOM     14  C   UNL     1       9.329  10.268  18.496  0.00  0.00    +0.000 C 
ATOM     15  C   UNL     1       9.209  11.500  17.983  0.00  0.00    +0.000 C 
BRANCH  15  16
ATOM     16  C   UNL     1      10.292  12.498  18.057  0.00  0.00    +0.000 A 
ATOM     17  C   UNL     1      10.391  13.326  19.183  0.00  0.00    +0.000 A 
ATOM     18  C   UNL     1      11.402  14.288  19.273  0.00  0.00    +0.000 A 
ATOM     19  C   UNL     1      12.333  14.425  18.246  0.00  0.00    +0.000 A 
ATOM     20  C   UNL     1      12.263  13.593  17.132  0.00  0.00    +0.000 A 
ATOM     21  C   UNL     1      11.255  12.630  17.044  0.00  0.00    +0.000 A 
ENDBRANCH  15  16
ENDBRANCH  13  14
ENDBRANCH   3  12
TORSDOF 4
ENDMDL
MODEL 9
REMARK VINA RESULT:      -7.0      0.862      1.741
REMARK  Name = 
REMARK  4 active torsions:
REMARK  status: ('A' for Active; 'I' for Inactive)
REMARK    1  A    between atoms: C_2  and  C_14
REMARK    2  A    between atoms: N_3  and  N_4
REMARK    3  A    between atoms: C_5  and  C_6
REMARK    4  A    between atoms: C_7  and  C_8
REMARK                            x       y       z     vdW  Elec       q    Type
REMARK                         _______ _______ _______ _____ _____    ______ ____
ROOT
ATOM      1  O   UNL     1       4.108   7.767  17.359  0.00  0.00    +0.000 OA
ATOM      2  C   UNL     1       4.648   6.668  17.442  0.00  0.00    +0.000 C 
ATOM      3  N   UNL     1       6.007   6.428  17.276  0.00  0.00    +0.000 N 
ATOM      4  H   UNL     1       6.410   5.519  17.455  0.00  0.00    +0.000 HD
ENDROOT
BRANCH   2   5
ATOM      5  C   UNL     1       3.808   5.478  17.769  0.00  0.00    +0.000 A 
ATOM      6  C   UNL     1       4.231   4.165  17.516  0.00  0.00    +0.000 A 
ATOM      7  C   UNL     1       3.385   3.088  17.804  0.00  0.00    +0.000 A 
ATOM      8  C   UNL     1       2.118   3.321  18.336  0.00  0.00    +0.000 A 
ATOM      9 BR   UNL     1       0.968   1.863  18.688  0.00  0.00    +0.000 Br
ATOM     10  C   UNL     1       1.686   4.620  18.591  0.00  0.00    +0.000 A 
ATOM     11  C   UNL     1       2.529   5.697  18.304  0.00  0.00    +0.000 A 
ENDBRANCH   2   5
BRANCH   3  12
ATOM     12  N   UNL     1       6.827   7.466  16.960  0.00  0.00    +0.000 NA
ATOM     13  C   UNL     1       7.572   7.932  17.909  0.00  0.00    +0.000 C 
BRANCH  13  14
ATOM     14  C   UNL     1       8.487   9.054  17.627  0.00  0.00    +0.000 C 
ATOM     15  C   UNL     1       8.555  10.140  18.409  0.00  0.00    +0.000 C 
BRANCH  15  16
ATOM     16  C   UNL     1       9.462  11.266  18.123  0.00  0.00    +0.000 A 
ATOM     17  C   UNL     1       8.927  12.540  17.893  0.00  0.00    +0.000 A 
ATOM     18  C   UNL     1       9.765  13.624  17.609  0.00  0.00    +0.000 A 
ATOM     19  C   UNL     1      11.147  13.450  17.564  0.00  0.00    +0.000 A 
ATOM     20  C   UNL     1      11.694  12.195  17.815  0.00  0.00    +0.000 A 
ATOM     21  C   UNL     1      10.858  11.114  18.102  0.00  0.00    +0.000 A 
ENDBRANCH  15  16
ENDBRANCH  13  14
ENDBRANCH   3  12
TORSDOF 4
ENDMDL
