MODEL 1
REMARK VINA RESULT:      -8.3      0.000      0.000
REMARK  Name = 
REMARK  10 active torsions:
REMARK  status: ('A' for Active; 'I' for Inactive)
REMARK    1  A    between atoms: C_1  and  C_2
REMARK    2  A    between atoms: C_2  and  C_3
REMARK    3  A    between atoms: C_2  and  C_4
REMARK    4  A    between atoms: C_7  and  N_8
REMARK    5  A    between atoms: N_8  and  C_9
REMARK    6  A    between atoms: N_8  and  S_25
REMARK    7  A    between atoms: C_9  and  C_10
REMARK    8  A    between atoms: N_15  and  C_16
REMARK    9  A    between atoms: C_16  and  C_17
REMARK   10  A    between atoms: S_25  and  C_26
REMARK                            x       y       z     vdW  Elec       q    Type
REMARK                         _______ _______ _______ _____ _____    ______ ____
ROOT
ATOM      1  C   UNL     1       4.132   4.318  19.584  0.00  0.00    +0.000 C 
ENDROOT
BRANCH   1   2
ATOM      2  C   UNL     1       5.276   5.054  18.891  0.00  0.00    +0.000 C 
ATOM      3  O   UNL     1       6.153   5.582  19.584  0.00  0.00    +0.000 OA
ATOM      4  N   UNL     1       5.302   5.181  17.503  0.00  0.00    +0.000 N 
ATOM      5  C   UNL     1       6.419   5.927  16.901  0.00  0.00    +0.000 C 
ATOM      6  C   UNL     1       7.451   4.950  16.291  0.00  0.00    +0.000 C 
ATOM      7  N   UNL     1       6.869   3.990  15.311  0.00  0.00    +0.000 NA
ATOM      8  C   UNL     1       5.724   3.304  15.959  0.00  0.00    +0.000 C 
ATOM      9  C   UNL     1       4.666   4.257  16.551  0.00  0.00    +0.000 C 
BRANCH   7  10
ATOM     10  C   UNL     1       6.509   4.697  14.066  0.00  0.00    +0.000 C 
BRANCH  10  11
ATOM     11  C   UNL     1       6.034   3.824  12.925  0.00  0.00    +0.000 A 
ATOM     12  C   UNL     1       6.906   2.883  12.352  0.00  0.00    +0.000 A 
ATOM     13  C   UNL     1       6.470   2.036  11.332  0.00  0.00    +0.000 A 
ATOM     14  C   UNL     1       5.156   2.113  10.878  0.00  0.00    +0.000 A 
ATOM     15  C   UNL     1       4.280   3.041  11.440  0.00  0.00    +0.000 A 
ATOM     16  C   UNL     1       4.716   3.895  12.456  0.00  0.00    +0.000 A 
ENDBRANCH  10  11
ENDBRANCH   7  10
ENDBRANCH   1   2
BRANCH   1  17
ATOM     17  N   UNL     1       2.786   4.836  19.269  0.00  0.00    +0.000 N 
BRANCH  17  21
ATOM     18  C   UNL     1       1.479   8.899  19.271  0.00  0.00    +0.000 A 
ATOM     19  C   UNL     1       1.494   8.138  20.452  0.00  0.00    +0.000 A 
ATOM     20  C   UNL     1       1.999   6.829  20.468  0.00  0.00    +0.000 A 
ATOM     21  C   UNL     1       2.474   6.236  19.290  0.00  0.00    +0.000 A 
ATOM     22  C   UNL     1       2.521   7.002  18.130  0.00  0.00    +0.000 A 
ATOM     23  C   UNL     1       2.028   8.317  18.117  0.00  0.00    +0.000 A 
BRANCH  18  25
ATOM     24  C   UNL     1      -0.360  10.399  18.489  0.00  0.00    +0.000 C 
ATOM     25  C   UNL     1       0.938  10.325  19.294  0.00  0.00    +0.000 C 
ATOM     26  C   UNL     1       0.715  10.918  20.693  0.00  0.00    +0.000 C 
ENDBRANCH  18  25
ENDBRANCH  17  21
BRANCH  17  27
ATOM     27  S   UNL     1       1.563   3.769  18.802  0.00  0.00    +0.000 S 
ATOM     28  C   UNL     1       2.411   2.205  18.748  0.00  0.00    +0.000 C 
ATOM     29  O   UNL     1       0.592   3.691  19.875  0.00  0.00    +0.000 OA
ATOM     30  O   UNL     1       1.137   4.072  17.455  0.00  0.00    +0.000 OA
ENDBRANCH  17  27
ENDBRANCH   1  17
TORSDOF 7
ENDMDL
MODEL 2
REMARK VINA RESULT:      -7.7      0.764      1.263
REMARK  Name = 
REMARK  10 active torsions:
REMARK  status: ('A' for Active; 'I' for Inactive)
REMARK    1  A    between atoms: C_1  and  C_2
REMARK    2  A    between atoms: C_2  and  C_3
REMARK    3  A    between atoms: C_2  and  C_4
REMARK    4  A    between atoms: C_7  and  N_8
REMARK    5  A    between atoms: N_8  and  C_9
REMARK    6  A    between atoms: N_8  and  S_25
REMARK    7  A    between atoms: C_9  and  C_10
REMARK    8  A    between atoms: N_15  and  C_16
REMARK    9  A    between atoms: C_16  and  C_17
REMARK   10  A    between atoms: S_25  and  C_26
REMARK                            x       y       z     vdW  Elec       q    Type
REMARK                         _______ _______ _______ _____ _____    ______ ____
ROOT
ATOM      1  C   UNL     1       4.267   4.144  19.509  0.00  0.00    +0.000 C 
ENDROOT
BRANCH   1   2
ATOM      2  C   UNL     1       5.303   5.035  18.829  0.00  0.00    +0.000 C 
ATOM      3  O   UNL     1       6.092   5.677  19.533  0.00  0.00    +0.000 OA
ATOM      4  N   UNL     1       5.325   5.170  17.442  0.00  0.00    +0.000 N 
ATOM      5  C   UNL     1       6.332   6.066  16.853  0.00  0.00    +0.000 C 
ATOM      6  C   UNL     1       7.497   5.245  16.251  0.00  0.00    +0.000 C 
ATOM      7  N   UNL     1       7.063   4.218  15.263  0.00  0.00    +0.000 NA
ATOM      8  C   UNL     1       6.019   3.376  15.897  0.00  0.00    +0.000 C 
ATOM      9  C   UNL     1       4.832   4.170  16.482  0.00  0.00    +0.000 C 
BRANCH   7  10
ATOM     10  C   UNL     1       6.620   4.872  14.016  0.00  0.00    +0.000 C 
BRANCH  10  11
ATOM     11  C   UNL     1       6.134   3.947  12.922  0.00  0.00    +0.000 A 
ATOM     12  C   UNL     1       7.022   3.037  12.326  0.00  0.00    +0.000 A 
ATOM     13  C   UNL     1       6.580   2.144  11.350  0.00  0.00    +0.000 A 
ATOM     14  C   UNL     1       5.242   2.142  10.963  0.00  0.00    +0.000 A 
ATOM     15  C   UNL     1       4.349   3.040  11.547  0.00  0.00    +0.000 A 
ATOM     16  C   UNL     1       4.791   3.940  12.520  0.00  0.00    +0.000 A 
ENDBRANCH  10  11
ENDBRANCH   7  10
ENDBRANCH   1   2
BRANCH   1  17
ATOM     17  N   UNL     1       2.866   4.456  19.165  0.00  0.00    +0.000 N 
BRANCH  17  21
ATOM     18  C   UNL     1       1.506   8.428  19.935  0.00  0.00    +0.000 A 
ATOM     19  C   UNL     1       2.006   8.061  18.674  0.00  0.00    +0.000 A 
ATOM     20  C   UNL     1       2.377   6.737  18.395  0.00  0.00    +0.000 A 
ATOM     21  C   UNL     1       2.287   5.750  19.387  0.00  0.00    +0.000 A 
ATOM     22  C   UNL     1       1.735   6.090  20.618  0.00  0.00    +0.000 A 
ATOM     23  C   UNL     1       1.351   7.413  20.892  0.00  0.00    +0.000 A 
BRANCH  18  25
ATOM     24  C   UNL     1       0.643  10.527  18.889  0.00  0.00    +0.000 C 
ATOM     25  C   UNL     1       1.095   9.874  20.196  0.00  0.00    +0.000 C 
ATOM     26  C   UNL     1       0.014  10.063  21.271  0.00  0.00    +0.000 C 
ENDBRANCH  18  25
ENDBRANCH  17  21
BRANCH  17  27
ATOM     27  S   UNL     1       1.902   3.285  18.422  0.00  0.00    +0.000 S 
ATOM     28  C   UNL     1       0.763   2.841  19.715  0.00  0.00    +0.000 C 
ATOM     29  O   UNL     1       1.132   3.927  17.375  0.00  0.00    +0.000 OA
ATOM     30  O   UNL     1       2.695   2.113  18.129  0.00  0.00    +0.000 OA
ENDBRANCH  17  27
ENDBRANCH   1  17
TORSDOF 7
ENDMDL
MODEL 3
REMARK VINA RESULT:      -7.7      0.572      1.365
REMARK  Name = 
REMARK  10 active torsions:
REMARK  status: ('A' for Active; 'I' for Inactive)
REMARK    1  A    between atoms: C_1  and  C_2
REMARK    2  A    between atoms: C_2  and  C_3
REMARK    3  A    between atoms: C_2  and  C_4
REMARK    4  A    between atoms: C_7  and  N_8
REMARK    5  A    between atoms: N_8  and  C_9
REMARK    6  A    between atoms: N_8  and  S_25
REMARK    7  A    between atoms: C_9  and  C_10
REMARK    8  A    between atoms: N_15  and  C_16
REMARK    9  A    between atoms: C_16  and  C_17
REMARK   10  A    between atoms: S_25  and  C_26
REMARK                            x       y       z     vdW  Elec       q    Type
REMARK                         _______ _______ _______ _____ _____    ______ ____
ROOT
ATOM      1  C   UNL     1       4.285   4.234  19.385  0.00  0.00    +0.000 C 
ENDROOT
BRANCH   1   2
ATOM      2  C   UNL     1       5.273   5.167  18.689  0.00  0.00    +0.000 C 
ATOM      3  O   UNL     1       5.998   5.893  19.380  0.00  0.00    +0.000 OA
ATOM      4  N   UNL     1       5.319   5.243  17.298  0.00  0.00    +0.000 N 
ATOM      5  C   UNL     1       6.276   6.183  16.692  0.00  0.00    +0.000 C 
ATOM      6  C   UNL     1       7.509   5.422  16.152  0.00  0.00    +0.000 C 
ATOM      7  N   UNL     1       7.173   4.325  15.201  0.00  0.00    +0.000 NA
ATOM      8  C   UNL     1       6.175   3.439  15.850  0.00  0.00    +0.000 C 
ATOM      9  C   UNL     1       4.922   4.170  16.373  0.00  0.00    +0.000 C 
BRANCH   7  10
ATOM     10  C   UNL     1       6.716   4.893  13.917  0.00  0.00    +0.000 C 
BRANCH  10  11
ATOM     11  C   UNL     1       6.159   3.902  12.919  0.00  0.00    +0.000 A 
ATOM     12  C   UNL     1       4.799   3.947  12.568  0.00  0.00    +0.000 A 
ATOM     13  C   UNL     1       4.279   3.072  11.614  0.00  0.00    +0.000 A 
ATOM     14  C   UNL     1       5.114   2.148  10.990  0.00  0.00    +0.000 A 
ATOM     15  C   UNL     1       6.466   2.093  11.327  0.00  0.00    +0.000 A 
ATOM     16  C   UNL     1       6.987   2.963  12.288  0.00  0.00    +0.000 A 
ENDBRANCH  10  11
ENDBRANCH   7  10
ENDBRANCH   1   2
BRANCH   1  17
ATOM     17  N   UNL     1       2.864   4.536  19.123  0.00  0.00    +0.000 N 
BRANCH  17  21
ATOM     18  C   UNL     1       1.577   8.557  19.750  0.00  0.00    +0.000 A 
ATOM     19  C   UNL     1       1.989   8.113  18.481  0.00  0.00    +0.000 A 
ATOM     20  C   UNL     1       2.334   6.772  18.257  0.00  0.00    +0.000 A 
ATOM     21  C   UNL     1       2.307   5.845  19.308  0.00  0.00    +0.000 A 
ATOM     22  C   UNL     1       1.841   6.261  20.551  0.00  0.00    +0.000 A 
ATOM     23  C   UNL     1       1.482   7.601  20.773  0.00  0.00    +0.000 A 
BRANCH  18  25
ATOM     24  C   UNL     1       1.327  10.779  18.633  0.00  0.00    +0.000 C 
ATOM     25  C   UNL     1       1.191  10.019  19.953  0.00  0.00    +0.000 C 
ATOM     26  C   UNL     1      -0.209  10.251  20.542  0.00  0.00    +0.000 C 
ENDBRANCH  18  25
ENDBRANCH  17  21
BRANCH  17  27
ATOM     27  S   UNL     1       1.846   3.331  18.522  0.00  0.00    +0.000 S 
ATOM     28  C   UNL     1       2.880   1.884  18.577  0.00  0.00    +0.000 C 
ATOM     29  O   UNL     1       0.773   3.124  19.475  0.00  0.00    +0.000 OA
ATOM     30  O   UNL     1       1.546   3.591  17.133  0.00  0.00    +0.000 OA
ENDBRANCH  17  27
ENDBRANCH   1  17
TORSDOF 7
ENDMDL
MODEL 4
REMARK VINA RESULT:      -7.4      0.575      1.196
REMARK  Name = 
REMARK  10 active torsions:
REMARK  status: ('A' for Active; 'I' for Inactive)
REMARK    1  A    between atoms: C_1  and  C_2
REMARK    2  A    between atoms: C_2  and  C_3
REMARK    3  A    between atoms: C_2  and  C_4
REMARK    4  A    between atoms: C_7  and  N_8
REMARK    5  A    between atoms: N_8  and  C_9
REMARK    6  A    between atoms: N_8  and  S_25
REMARK    7  A    between atoms: C_9  and  C_10
REMARK    8  A    between atoms: N_15  and  C_16
REMARK    9  A    between atoms: C_16  and  C_17
REMARK   10  A    between atoms: S_25  and  C_26
REMARK                            x       y       z     vdW  Elec       q    Type
REMARK                         _______ _______ _______ _____ _____    ______ ____
ROOT
ATOM      1  C   UNL     1       4.265   4.228  19.572  0.00  0.00    +0.000 C 
ENDROOT
BRANCH   1   2
ATOM      2  C   UNL     1       5.244   5.151  18.849  0.00  0.00    +0.000 C 
ATOM      3  O   UNL     1       6.009   5.853  19.521  0.00  0.00    +0.000 OA
ATOM      4  N   UNL     1       5.239   5.245  17.458  0.00  0.00    +0.000 N 
ATOM      5  C   UNL     1       6.190   6.174  16.828  0.00  0.00    +0.000 C 
ATOM      6  C   UNL     1       7.386   5.396  16.230  0.00  0.00    +0.000 C 
ATOM      7  N   UNL     1       6.991   4.318  15.280  0.00  0.00    +0.000 NA
ATOM      8  C   UNL     1       6.002   3.444  15.955  0.00  0.00    +0.000 C 
ATOM      9  C   UNL     1       4.784   4.192  16.536  0.00  0.00    +0.000 C 
BRANCH   7  10
ATOM     10  C   UNL     1       6.497   4.912  14.022  0.00  0.00    +0.000 C 
BRANCH  10  11
ATOM     11  C   UNL     1       6.144   3.932  12.924  0.00  0.00    +0.000 A 
ATOM     12  C   UNL     1       7.150   3.152  12.330  0.00  0.00    +0.000 A 
ATOM     13  C   UNL     1       6.837   2.210  11.350  0.00  0.00    +0.000 A 
ATOM     14  C   UNL     1       5.513   2.029  10.958  0.00  0.00    +0.000 A 
ATOM     15  C   UNL     1       4.504   2.795  11.540  0.00  0.00    +0.000 A 
ATOM     16  C   UNL     1       4.817   3.745  12.516  0.00  0.00    +0.000 A 
ENDBRANCH  10  11
ENDBRANCH   7  10
ENDBRANCH   1   2
BRANCH   1  17
ATOM     17  N   UNL     1       2.844   4.473  19.258  0.00  0.00    +0.000 N 
BRANCH  17  21
ATOM     18  C   UNL     1       1.433   8.486  19.604  0.00  0.00    +0.000 A 
ATOM     19  C   UNL     1       1.907   7.984  18.380  0.00  0.00    +0.000 A 
ATOM     20  C   UNL     1       2.294   6.642  18.246  0.00  0.00    +0.000 A 
ATOM     21  C   UNL     1       2.247   5.775  19.346  0.00  0.00    +0.000 A 
ATOM     22  C   UNL     1       1.721   6.246  20.544  0.00  0.00    +0.000 A 
ATOM     23  C   UNL     1       1.320   7.586  20.676  0.00  0.00    +0.000 A 
BRANCH  18  25
ATOM     24  C   UNL     1       1.168  10.431  21.150  0.00  0.00    +0.000 C 
ATOM     25  C   UNL     1       1.003   9.946  19.709  0.00  0.00    +0.000 C 
ATOM     26  C   UNL     1       1.721  10.910  18.753  0.00  0.00    +0.000 C 
ENDBRANCH  18  25
ENDBRANCH  17  21
BRANCH  17  27
ATOM     27  S   UNL     1       1.873   3.203  18.712  0.00  0.00    +0.000 S 
ATOM     28  C   UNL     1       3.014   1.839  18.653  0.00  0.00    +0.000 C 
ATOM     29  O   UNL     1       0.898   2.901  19.740  0.00  0.00    +0.000 OA
ATOM     30  O   UNL     1       1.446   3.463  17.356  0.00  0.00    +0.000 OA
ENDBRANCH  17  27
ENDBRANCH   1  17
TORSDOF 7
ENDMDL
MODEL 5
REMARK VINA RESULT:      -7.2      0.707      1.361
REMARK  Name = 
REMARK  10 active torsions:
REMARK  status: ('A' for Active; 'I' for Inactive)
REMARK    1  A    between atoms: C_1  and  C_2
REMARK    2  A    between atoms: C_2  and  C_3
REMARK    3  A    between atoms: C_2  and  C_4
REMARK    4  A    between atoms: C_7  and  N_8
REMARK    5  A    between atoms: N_8  and  C_9
REMARK    6  A    between atoms: N_8  and  S_25
REMARK    7  A    between atoms: C_9  and  C_10
REMARK    8  A    between atoms: N_15  and  C_16
REMARK    9  A    between atoms: C_16  and  C_17
REMARK   10  A    between atoms: S_25  and  C_26
REMARK                            x       y       z     vdW  Elec       q    Type
REMARK                         _______ _______ _______ _____ _____    ______ ____
ROOT
ATOM      1  C   UNL     1       4.295   4.400  19.618  0.00  0.00    +0.000 C 
ENDROOT
BRANCH   1   2
ATOM      2  C   UNL     1       5.402   5.158  18.887  0.00  0.00    +0.000 C 
ATOM      3  O   UNL     1       6.274   5.729  19.552  0.00  0.00    +0.000 OA
ATOM      4  N   UNL     1       5.399   5.253  17.497  0.00  0.00    +0.000 N 
ATOM      5  C   UNL     1       6.479   6.021  16.858  0.00  0.00    +0.000 C 
ATOM      6  C   UNL     1       7.532   5.064  16.250  0.00  0.00    +0.000 C 
ATOM      7  N   UNL     1       6.964   4.064  15.303  0.00  0.00    +0.000 NA
ATOM      8  C   UNL     1       5.854   3.356  15.987  0.00  0.00    +0.000 C 
ATOM      9  C   UNL     1       4.776   4.287  16.578  0.00  0.00    +0.000 C 
BRANCH   7  10
ATOM     10  C   UNL     1       6.558   4.730  14.049  0.00  0.00    +0.000 C 
BRANCH  10  11
ATOM     11  C   UNL     1       6.022   3.823  12.964  0.00  0.00    +0.000 A 
ATOM     12  C   UNL     1       4.694   3.960  12.528  0.00  0.00    +0.000 A 
ATOM     13  C   UNL     1       4.197   3.164  11.494  0.00  0.00    +0.000 A 
ATOM     14  C   UNL     1       5.025   2.229  10.878  0.00  0.00    +0.000 A 
ATOM     15  C   UNL     1       6.346   2.084  11.299  0.00  0.00    +0.000 A 
ATOM     16  C   UNL     1       6.843   2.875  12.339  0.00  0.00    +0.000 A 
ENDBRANCH  10  11
ENDBRANCH   7  10
ENDBRANCH   1   2
BRANCH   1  17
ATOM     17  N   UNL     1       2.925   4.818  19.263  0.00  0.00    +0.000 N 
BRANCH  17  21
ATOM     18  C   UNL     1       1.199   8.706  19.623  0.00  0.00    +0.000 A 
ATOM     19  C   UNL     1       1.233   7.820  20.713  0.00  0.00    +0.000 A 
ATOM     20  C   UNL     1       1.872   6.574  20.619  0.00  0.00    +0.000 A 
ATOM     21  C   UNL     1       2.467   6.169  19.416  0.00  0.00    +0.000 A 
ATOM     22  C   UNL     1       2.493   7.064  18.352  0.00  0.00    +0.000 A 
ATOM     23  C   UNL     1       1.866   8.317  18.450  0.00  0.00    +0.000 A 
BRANCH  18  25
ATOM     24  C   UNL     1       1.520  11.104  20.247  0.00  0.00    +0.000 C 
ATOM     25  C   UNL     1       0.511  10.060  19.766  0.00  0.00    +0.000 C 
ATOM     26  C   UNL     1      -0.200  10.570  18.504  0.00  0.00    +0.000 C 
ENDBRANCH  18  25
ENDBRANCH  17  21
BRANCH  17  27
ATOM     27  S   UNL     1       1.853   3.701  18.590  0.00  0.00    +0.000 S 
ATOM     28  C   UNL     1       0.676   3.452  19.901  0.00  0.00    +0.000 C 
ATOM     29  O   UNL     1       1.148   4.345  17.500  0.00  0.00    +0.000 OA
ATOM     30  O   UNL     1       2.530   2.442  18.377  0.00  0.00    +0.000 OA
ENDBRANCH  17  27
ENDBRANCH   1  17
TORSDOF 7
ENDMDL
MODEL 6
REMARK VINA RESULT:      -7.2      0.864      1.068
REMARK  Name = 
REMARK  10 active torsions:
REMARK  status: ('A' for Active; 'I' for Inactive)
REMARK    1  A    between atoms: C_1  and  C_2
REMARK    2  A    between atoms: C_2  and  C_3
REMARK    3  A    between atoms: C_2  and  C_4
REMARK    4  A    between atoms: C_7  and  N_8
REMARK    5  A    between atoms: N_8  and  C_9
REMARK    6  A    between atoms: N_8  and  S_25
REMARK    7  A    between atoms: C_9  and  C_10
REMARK    8  A    between atoms: N_15  and  C_16
REMARK    9  A    between atoms: C_16  and  C_17
REMARK   10  A    between atoms: S_25  and  C_26
REMARK                            x       y       z     vdW  Elec       q    Type
REMARK                         _______ _______ _______ _____ _____    ______ ____
ROOT
ATOM      1  C   UNL     1       4.149   4.021  19.429  0.00  0.00    +0.000 C 
ENDROOT
BRANCH   1   2
ATOM      2  C   UNL     1       5.159   4.995  18.825  0.00  0.00    +0.000 C 
ATOM      3  O   UNL     1       5.852   5.682  19.585  0.00  0.00    +0.000 OA
ATOM      4  N   UNL     1       5.259   5.150  17.444  0.00  0.00    +0.000 N 
ATOM      5  C   UNL     1       6.233   6.125  16.930  0.00  0.00    +0.000 C 
ATOM      6  C   UNL     1       7.491   5.399  16.396  0.00  0.00    +0.000 C 
ATOM      7  N   UNL     1       7.197   4.356  15.373  0.00  0.00    +0.000 NA
ATOM      8  C   UNL     1       6.180   3.432  15.931  0.00  0.00    +0.000 C 
ATOM      9  C   UNL     1       4.903   4.129  16.445  0.00  0.00    +0.000 C 
BRANCH   7  10
ATOM     10  C   UNL     1       6.788   4.994  14.106  0.00  0.00    +0.000 C 
BRANCH  10  11
ATOM     11  C   UNL     1       6.308   4.056  13.020  0.00  0.00    +0.000 A 
ATOM     12  C   UNL     1       7.228   3.241  12.339  0.00  0.00    +0.000 A 
ATOM     13  C   UNL     1       6.797   2.336  11.368  0.00  0.00    +0.000 A 
ATOM     14  C   UNL     1       5.441   2.226  11.074  0.00  0.00    +0.000 A 
ATOM     15  C   UNL     1       4.516   3.027  11.743  0.00  0.00    +0.000 A 
ATOM     16  C   UNL     1       4.946   3.940  12.710  0.00  0.00    +0.000 A 
ENDBRANCH  10  11
ENDBRANCH   7  10
ENDBRANCH   1   2
BRANCH   1  17
ATOM     17  N   UNL     1       2.809   4.593  19.666  0.00  0.00    +0.000 N 
BRANCH  17  21
ATOM     18  C   UNL     1       1.575   8.642  19.119  0.00  0.00    +0.000 A 
ATOM     19  C   UNL     1       1.654   8.071  20.401  0.00  0.00    +0.000 A 
ATOM     20  C   UNL     1       2.137   6.768  20.589  0.00  0.00    +0.000 A 
ATOM     21  C   UNL     1       2.524   5.988  19.489  0.00  0.00    +0.000 A 
ATOM     22  C   UNL     1       2.508   6.565  18.224  0.00  0.00    +0.000 A 
ATOM     23  C   UNL     1       2.038   7.875  18.038  0.00  0.00    +0.000 A 
BRANCH  18  25
ATOM     24  C   UNL     1       2.026  10.867  18.074  0.00  0.00    +0.000 C 
ATOM     25  C   UNL     1       1.062  10.069  18.954  0.00  0.00    +0.000 C 
ATOM     26  C   UNL     1      -0.365  10.192  18.401  0.00  0.00    +0.000 C 
ENDBRANCH  18  25
ENDBRANCH  17  21
BRANCH  17  27
ATOM     27  S   UNL     1       1.529   3.582  20.103  0.00  0.00    +0.000 S 
ATOM     28  C   UNL     1       2.029   2.991  21.705  0.00  0.00    +0.000 C 
ATOM     29  O   UNL     1       0.349   4.399  20.298  0.00  0.00    +0.000 OA
ATOM     30  O   UNL     1       1.486   2.439  19.220  0.00  0.00    +0.000 OA
ENDBRANCH  17  27
ENDBRANCH   1  17
TORSDOF 7
ENDMDL
MODEL 7
REMARK VINA RESULT:      -7.1      0.818      1.657
REMARK  Name = 
REMARK  10 active torsions:
REMARK  status: ('A' for Active; 'I' for Inactive)
REMARK    1  A    between atoms: C_1  and  C_2
REMARK    2  A    between atoms: C_2  and  C_3
REMARK    3  A    between atoms: C_2  and  C_4
REMARK    4  A    between atoms: C_7  and  N_8
REMARK    5  A    between atoms: N_8  and  C_9
REMARK    6  A    between atoms: N_8  and  S_25
REMARK    7  A    between atoms: C_9  and  C_10
REMARK    8  A    between atoms: N_15  and  C_16
REMARK    9  A    between atoms: C_16  and  C_17
REMARK   10  A    between atoms: S_25  and  C_26
REMARK                            x       y       z     vdW  Elec       q    Type
REMARK                         _______ _______ _______ _____ _____    ______ ____
ROOT
ATOM      1  C   UNL     1       4.340   4.491  19.561  0.00  0.00    +0.000 C 
ENDROOT
BRANCH   1   2
ATOM      2  C   UNL     1       5.376   5.318  18.803  0.00  0.00    +0.000 C 
ATOM      3  O   UNL     1       6.196   5.983  19.447  0.00  0.00    +0.000 OA
ATOM      4  N   UNL     1       5.363   5.371  17.411  0.00  0.00    +0.000 N 
ATOM      5  C   UNL     1       6.372   6.209  16.744  0.00  0.00    +0.000 C 
ATOM      6  C   UNL     1       7.503   5.329  16.162  0.00  0.00    +0.000 C 
ATOM      7  N   UNL     1       7.022   4.255  15.248  0.00  0.00    +0.000 NA
ATOM      8  C   UNL     1       5.979   3.475  15.958  0.00  0.00    +0.000 C 
ATOM      9  C   UNL     1       4.825   4.327  16.524  0.00  0.00    +0.000 C 
BRANCH   7  10
ATOM     10  C   UNL     1       6.559   4.845  13.976  0.00  0.00    +0.000 C 
BRANCH  10  11
ATOM     11  C   UNL     1       6.013   3.869  12.956  0.00  0.00    +0.000 A 
ATOM     12  C   UNL     1       4.694   4.002  12.494  0.00  0.00    +0.000 A 
ATOM     13  C   UNL     1       4.189   3.141  11.518  0.00  0.00    +0.000 A 
ATOM     14  C   UNL     1       5.001   2.142  10.986  0.00  0.00    +0.000 A 
ATOM     15  C   UNL     1       6.313   2.000  11.435  0.00  0.00    +0.000 A 
ATOM     16  C   UNL     1       6.817   2.856  12.417  0.00  0.00    +0.000 A 
ENDBRANCH  10  11
ENDBRANCH   7  10
ENDBRANCH   1   2
BRANCH   1  17
ATOM     17  N   UNL     1       2.941   4.736  19.157  0.00  0.00    +0.000 N 
BRANCH  17  21
ATOM     18  C   UNL     1       1.631   8.794  18.973  0.00  0.00    +0.000 A 
ATOM     19  C   UNL     1       1.909   8.064  17.804  0.00  0.00    +0.000 A 
ATOM     20  C   UNL     1       2.261   6.707  17.860  0.00  0.00    +0.000 A 
ATOM     21  C   UNL     1       2.376   6.053  19.095  0.00  0.00    +0.000 A 
ATOM     22  C   UNL     1       2.042   6.749  20.252  0.00  0.00    +0.000 A 
ATOM     23  C   UNL     1       1.676   8.104  20.195  0.00  0.00    +0.000 A 
BRANCH  18  25
ATOM     24  C   UNL     1       0.895  10.803  20.264  0.00  0.00    +0.000 C 
ATOM     25  C   UNL     1       1.234  10.263  18.873  0.00  0.00    +0.000 C 
ATOM     26  C   UNL     1       2.270  11.178  18.202  0.00  0.00    +0.000 C 
ENDBRANCH  18  25
ENDBRANCH  17  21
BRANCH  17  27
ATOM     27  S   UNL     1       1.965   3.442  18.684  0.00  0.00    +0.000 S 
ATOM     28  C   UNL     1       0.678   3.456  19.914  0.00  0.00    +0.000 C 
ATOM     29  O   UNL     1       1.347   3.777  17.416  0.00  0.00    +0.000 OA
ATOM     30  O   UNL     1       2.689   2.201  18.836  0.00  0.00    +0.000 OA
ENDBRANCH  17  27
ENDBRANCH   1  17
TORSDOF 7
ENDMDL
MODEL 8
REMARK VINA RESULT:      -6.8      0.894      1.592
REMARK  Name = 
REMARK  10 active torsions:
REMARK  status: ('A' for Active; 'I' for Inactive)
REMARK    1  A    between atoms: C_1  and  C_2
REMARK    2  A    between atoms: C_2  and  C_3
REMARK    3  A    between atoms: C_2  and  C_4
REMARK    4  A    between atoms: C_7  and  N_8
REMARK    5  A    between atoms: N_8  and  C_9
REMARK    6  A    between atoms: N_8  and  S_25
REMARK    7  A    between atoms: C_9  and  C_10
REMARK    8  A    between atoms: N_15  and  C_16
REMARK    9  A    between atoms: C_16  and  C_17
REMARK   10  A    between atoms: S_25  and  C_26
REMARK                            x       y       z     vdW  Elec       q    Type
REMARK                         _______ _______ _______ _____ _____    ______ ____
ROOT
ATOM      1  C   UNL     1       4.097   3.888  19.265  0.00  0.00    +0.000 C 
ENDROOT
BRANCH   1   2
ATOM      2  C   UNL     1       4.951   5.007  18.672  0.00  0.00    +0.000 C 
ATOM      3  O   UNL     1       5.472   5.829  19.435  0.00  0.00    +0.000 OA
ATOM      4  N   UNL     1       5.096   5.135  17.292  0.00  0.00    +0.000 N 
ATOM      5  C   UNL     1       5.911   6.251  16.786  0.00  0.00    +0.000 C 
ATOM      6  C   UNL     1       7.303   5.744  16.342  0.00  0.00    +0.000 C 
ATOM      7  N   UNL     1       7.252   4.635  15.347  0.00  0.00    +0.000 NA
ATOM      8  C   UNL     1       6.383   3.563  15.892  0.00  0.00    +0.000 C 
ATOM      9  C   UNL     1       4.979   4.038  16.318  0.00  0.00    +0.000 C 
BRANCH   7  10
ATOM     10  C   UNL     1       6.805   5.152  14.038  0.00  0.00    +0.000 C 
BRANCH  10  11
ATOM     11  C   UNL     1       6.444   4.107  13.005  0.00  0.00    +0.000 A 
ATOM     12  C   UNL     1       5.096   3.878  12.680  0.00  0.00    +0.000 A 
ATOM     13  C   UNL     1       4.748   2.953  11.695  0.00  0.00    +0.000 A 
ATOM     14  C   UNL     1       5.742   2.253  11.016  0.00  0.00    +0.000 A 
ATOM     15  C   UNL     1       7.083   2.472  11.327  0.00  0.00    +0.000 A 
ATOM     16  C   UNL     1       7.434   3.392  12.319  0.00  0.00    +0.000 A 
ENDBRANCH  10  11
ENDBRANCH   7  10
ENDBRANCH   1   2
BRANCH   1  17
ATOM     17  N   UNL     1       2.778   4.322  19.767  0.00  0.00    +0.000 N 
BRANCH  17  21
ATOM     18  C   UNL     1       1.676   8.403  19.182  0.00  0.00    +0.000 A 
ATOM     19  C   UNL     1       1.896   7.545  18.091  0.00  0.00    +0.000 A 
ATOM     20  C   UNL     1       2.178   6.184  18.282  0.00  0.00    +0.000 A 
ATOM     21  C   UNL     1       2.280   5.654  19.576  0.00  0.00    +0.000 A 
ATOM     22  C   UNL     1       2.003   6.481  20.659  0.00  0.00    +0.000 A 
ATOM     23  C   UNL     1       1.707   7.841  20.468  0.00  0.00    +0.000 A 
BRANCH  18  25
ATOM     24  C   UNL     1       0.203   9.991  17.935  0.00  0.00    +0.000 C 
ATOM     25  C   UNL     1       1.354   9.874  18.937  0.00  0.00    +0.000 C 
ATOM     26  C   UNL     1       1.029  10.692  20.196  0.00  0.00    +0.000 C 
ENDBRANCH  18  25
ENDBRANCH  17  21
BRANCH  17  27
ATOM     27  S   UNL     1       1.769   3.213  20.544  0.00  0.00    +0.000 S 
ATOM     28  C   UNL     1       2.168   1.684  19.727  0.00  0.00    +0.000 C 
ATOM     29  O   UNL     1       2.205   3.088  21.920  0.00  0.00    +0.000 OA
ATOM     30  O   UNL     1       0.388   3.513  20.241  0.00  0.00    +0.000 OA
ENDBRANCH  17  27
ENDBRANCH   1  17
TORSDOF 7
ENDMDL
MODEL 9
REMARK VINA RESULT:      -6.8      5.821      9.290
REMARK  Name = 
REMARK  10 active torsions:
REMARK  status: ('A' for Active; 'I' for Inactive)
REMARK    1  A    between atoms: C_1  and  C_2
REMARK    2  A    between atoms: C_2  and  C_3
REMARK    3  A    between atoms: C_2  and  C_4
REMARK    4  A    between atoms: C_7  and  N_8
REMARK    5  A    between atoms: N_8  and  C_9
REMARK    6  A    between atoms: N_8  and  S_25
REMARK    7  A    between atoms: C_9  and  C_10
REMARK    8  A    between atoms: N_15  and  C_16
REMARK    9  A    between atoms: C_16  and  C_17
REMARK   10  A    between atoms: S_25  and  C_26
REMARK                            x       y       z     vdW  Elec       q    Type
REMARK                         _______ _______ _______ _____ _____    ______ ____
ROOT
ATOM      1  C   UNL     1      -1.055  13.211  22.281  0.00  0.00    +0.000 C 
ENDROOT
BRANCH   1   2
ATOM      2  C   UNL     1      -1.099  11.745  22.708  0.00  0.00    +0.000 C 
ATOM      3  O   UNL     1      -2.061  11.347  23.376  0.00  0.00    +0.000 OA
ATOM      4  N   UNL     1      -0.048  10.883  22.402  0.00  0.00    +0.000 N 
ATOM      5  C   UNL     1      -0.142   9.490  22.867  0.00  0.00    +0.000 C 
ATOM      6  C   UNL     1      -0.534   8.558  21.697  0.00  0.00    +0.000 C 
ATOM      7  N   UNL     1       0.368   8.660  20.515  0.00  0.00    +0.000 NA
ATOM      8  C   UNL     1       0.458  10.087  20.122  0.00  0.00    +0.000 C 
ATOM      9  C   UNL     1       0.874  11.035  21.265  0.00  0.00    +0.000 C 
BRANCH   7  10
ATOM     10  C   UNL     1       1.675   8.046  20.825  0.00  0.00    +0.000 C 
BRANCH  10  11
ATOM     11  C   UNL     1       2.028   6.808  20.030  0.00  0.00    +0.000 A 
ATOM     12  C   UNL     1       1.739   5.535  20.548  0.00  0.00    +0.000 A 
ATOM     13  C   UNL     1       2.013   4.384  19.808  0.00  0.00    +0.000 A 
ATOM     14  C   UNL     1       2.571   4.492  18.537  0.00  0.00    +0.000 A 
ATOM     15  C   UNL     1       2.860   5.750  18.009  0.00  0.00    +0.000 A 
ATOM     16  C   UNL     1       2.594   6.903  18.752  0.00  0.00    +0.000 A 
ENDBRANCH  10  11
ENDBRANCH   7  10
ENDBRANCH   1   2
BRANCH   1  17
ATOM     17  N   UNL     1      -1.417  13.452  20.871  0.00  0.00    +0.000 N 
BRANCH  17  21
ATOM     18  C   UNL     1      -4.863  12.034  18.789  0.00  0.00    +0.000 A 
ATOM     19  C   UNL     1      -3.580  11.541  18.495  0.00  0.00    +0.000 A 
ATOM     20  C   UNL     1      -2.458  11.946  19.233  0.00  0.00    +0.000 A 
ATOM     21  C   UNL     1      -2.588  12.884  20.268  0.00  0.00    +0.000 A 
ATOM     22  C   UNL     1      -3.861  13.330  20.606  0.00  0.00    +0.000 A 
ATOM     23  C   UNL     1      -4.987  12.914  19.876  0.00  0.00    +0.000 A 
BRANCH  18  25
ATOM     24  C   UNL     1      -6.820  10.480  18.756  0.00  0.00    +0.000 C 
ATOM     25  C   UNL     1      -6.064  11.558  17.977  0.00  0.00    +0.000 C 
ATOM     26  C   UNL     1      -7.039  12.662  17.541  0.00  0.00    +0.000 C 
ENDBRANCH  18  25
ENDBRANCH  17  21
BRANCH  17  27
ATOM     27  S   UNL     1      -0.470  14.480  19.924  0.00  0.00    +0.000 S 
ATOM     28  C   UNL     1      -1.349  16.024  20.027  0.00  0.00    +0.000 C 
ATOM     29  O   UNL     1       0.804  14.668  20.589  0.00  0.00    +0.000 OA
ATOM     30  O   UNL     1      -0.515  14.054  18.544  0.00  0.00    +0.000 OA
ENDBRANCH  17  27
ENDBRANCH   1  17
TORSDOF 7
ENDMDL
