MODEL 1
REMARK VINA RESULT:      -7.6      0.000      0.000
REMARK  Name = 
REMARK  4 active torsions:
REMARK  status: ('A' for Active; 'I' for Inactive)
REMARK    1  A    between atoms: C_1  and  C_2
REMARK    2  A    between atoms: C_5  and  C_6
REMARK    3  A    between atoms: C_14  and  C_15
REMARK    4  A    between atoms: C_17  and  C_18
REMARK                            x       y       z     vdW  Elec       q    Type
REMARK                         _______ _______ _______ _____ _____    ______ ____
ROOT
ATOM      1  C   UNL     1      -1.476  12.954  22.853  0.00  0.00    +0.000 A 
ATOM      2  N   UNL     1      -0.746  13.794  23.644  0.00  0.00    +0.000 NA
ATOM      3  N   UNL     1      -1.503  14.833  23.952  0.00  0.00    +0.000 NA
ATOM      4  N   UNL     1      -2.701  14.712  23.313  0.00  0.00    +0.000 N 
ATOM      5  C   UNL     1      -3.736  15.690  23.510  0.00  0.00    +0.000 A 
ATOM      6  C   UNL     1      -3.685  16.498  24.643  0.00  0.00    +0.000 A 
ATOM      7  C   UNL     1      -4.824  17.234  24.979  0.00  0.00    +0.000 A 
ATOM      8  C   UNL     1      -5.962  17.162  24.185  0.00  0.00    +0.000 A 
ATOM      9  C   UNL     1      -5.913  16.399  23.030  0.00  0.00    +0.000 A 
ATOM     10  C   UNL     1      -7.133  16.204  22.176  0.00  0.00    +0.000 C 
ATOM     11  N   UNL     1      -4.811  15.693  22.681  0.00  0.00    +0.000 NA
ATOM     12  C   UNL     1      -2.729  13.510  22.586  0.00  0.00    +0.000 A 
ENDROOT
BRANCH  12  13
ATOM     13  C   UNL     1      -3.851  12.997  21.783  0.00  0.00    +0.000 A 
ATOM     14  C   UNL     1      -5.079  12.660  22.354  0.00  0.00    +0.000 A 
ATOM     15  C   UNL     1      -6.164  12.310  21.551  0.00  0.00    +0.000 A 
ATOM     16  C   UNL     1      -6.018  12.145  20.187  0.00  0.00    +0.000 A 
ATOM     17  N   UNL     1      -7.082  11.787  19.446  0.00  0.00    +0.000 NA
ATOM     18  C   UNL     1      -6.843  11.555  18.139  0.00  0.00    +0.000 A 
ATOM     19  C   UNL     1      -5.579  11.657  17.591  0.00  0.00    +0.000 A 
ATOM     20  N   UNL     1      -4.514  12.061  18.311  0.00  0.00    +0.000 NA
ATOM     21  C   UNL     1      -4.739  12.327  19.613  0.00  0.00    +0.000 A 
ATOM     22  C   UNL     1      -3.700  12.793  20.405  0.00  0.00    +0.000 A 
ENDBRANCH  12  13
BRANCH   1  27
ATOM     23  C   UNL     1       1.112   8.078  21.189  0.00  0.00    +0.000 C 
ATOM     24  C   UNL     1       0.341   9.311  21.560  0.00  0.00    +0.000 A 
ATOM     25  C   UNL     1       0.356  10.437  20.733  0.00  0.00    +0.000 A 
ATOM     26  C   UNL     1      -0.317  11.601  21.109  0.00  0.00    +0.000 A 
ATOM     27  C   UNL     1      -0.961  11.684  22.359  0.00  0.00    +0.000 A 
ATOM     28  C   UNL     1      -1.036  10.536  23.150  0.00  0.00    +0.000 A 
ATOM     29  C   UNL     1      -0.391   9.356  22.753  0.00  0.00    +0.000 A 
ENDBRANCH   1  27
TORSDOF 2
ENDMDL
MODEL 2
REMARK VINA RESULT:      -7.5      2.757      4.402
REMARK  Name = 
REMARK  4 active torsions:
REMARK  status: ('A' for Active; 'I' for Inactive)
REMARK    1  A    between atoms: C_1  and  C_2
REMARK    2  A    between atoms: C_5  and  C_6
REMARK    3  A    between atoms: C_14  and  C_15
REMARK    4  A    between atoms: C_17  and  C_18
REMARK                            x       y       z     vdW  Elec       q    Type
REMARK                         _______ _______ _______ _____ _____    ______ ____
ROOT
ATOM      1  C   UNL     1       0.409   9.718  21.414  0.00  0.00    +0.000 A 
ATOM      2  N   UNL     1       0.580   9.764  22.768  0.00  0.00    +0.000 NA
ATOM      3  N   UNL     1      -0.332  10.577  23.272  0.00  0.00    +0.000 NA
ATOM      4  N   UNL     1      -1.055  11.117  22.252  0.00  0.00    +0.000 N 
ATOM      5  C   UNL     1      -2.150  12.009  22.524  0.00  0.00    +0.000 A 
ATOM      6  C   UNL     1      -2.732  11.986  23.789  0.00  0.00    +0.000 A 
ATOM      7  C   UNL     1      -3.958  12.631  23.962  0.00  0.00    +0.000 A 
ATOM      8  C   UNL     1      -4.560  13.285  22.893  0.00  0.00    +0.000 A 
ATOM      9  C   UNL     1      -3.885  13.334  21.685  0.00  0.00    +0.000 A 
ATOM     10  C   UNL     1      -4.518  13.944  20.466  0.00  0.00    +0.000 C 
ATOM     11  N   UNL     1      -2.687  12.728  21.506  0.00  0.00    +0.000 NA
ATOM     12  C   UNL     1      -0.609  10.592  21.027  0.00  0.00    +0.000 A 
ENDROOT
BRANCH  12  13
ATOM     13  C   UNL     1      -1.148  10.901  19.693  0.00  0.00    +0.000 A 
ATOM     14  C   UNL     1      -0.869  12.101  19.039  0.00  0.00    +0.000 A 
ATOM     15  C   UNL     1      -1.280  12.306  17.722  0.00  0.00    +0.000 A 
ATOM     16  C   UNL     1      -2.094  11.395  17.079  0.00  0.00    +0.000 A 
ATOM     17  N   UNL     1      -2.487  11.634  15.815  0.00  0.00    +0.000 NA
ATOM     18  C   UNL     1      -3.354  10.747  15.286  0.00  0.00    +0.000 A 
ATOM     19  C   UNL     1      -3.831   9.666  16.001  0.00  0.00    +0.000 A 
ATOM     20  N   UNL     1      -3.409   9.387  17.250  0.00  0.00    +0.000 NA
ATOM     21  C   UNL     1      -2.519  10.245  17.785  0.00  0.00    +0.000 A 
ATOM     22  C   UNL     1      -2.004   9.997  19.048  0.00  0.00    +0.000 A 
ENDBRANCH  12  13
BRANCH   1  27
ATOM     23  C   UNL     1       3.078   6.189  17.718  0.00  0.00    +0.000 C 
ATOM     24  C   UNL     1       2.493   7.141  18.720  0.00  0.00    +0.000 A 
ATOM     25  C   UNL     1       2.226   6.726  20.027  0.00  0.00    +0.000 A 
ATOM     26  C   UNL     1       1.630   7.597  20.940  0.00  0.00    +0.000 A 
ATOM     27  C   UNL     1       1.223   8.885  20.540  0.00  0.00    +0.000 A 
ATOM     28  C   UNL     1       1.555   9.322  19.256  0.00  0.00    +0.000 A 
ATOM     29  C   UNL     1       2.188   8.457  18.352  0.00  0.00    +0.000 A 
ENDBRANCH   1  27
TORSDOF 2
ENDMDL
MODEL 3
REMARK VINA RESULT:      -7.5      1.785      2.457
REMARK  Name = 
REMARK  4 active torsions:
REMARK  status: ('A' for Active; 'I' for Inactive)
REMARK    1  A    between atoms: C_1  and  C_2
REMARK    2  A    between atoms: C_5  and  C_6
REMARK    3  A    between atoms: C_14  and  C_15
REMARK    4  A    between atoms: C_17  and  C_18
REMARK                            x       y       z     vdW  Elec       q    Type
REMARK                         _______ _______ _______ _____ _____    ______ ____
ROOT
ATOM      1  C   UNL     1      -0.685  13.144  22.476  0.00  0.00    +0.000 A 
ATOM      2  N   UNL     1       0.365  14.013  22.395  0.00  0.00    +0.000 NA
ATOM      3  N   UNL     1      -0.036  15.189  22.847  0.00  0.00    +0.000 NA
ATOM      4  N   UNL     1      -1.360  15.114  23.160  0.00  0.00    +0.000 N 
ATOM      5  C   UNL     1      -2.043  16.249  23.720  0.00  0.00    +0.000 A 
ATOM      6  C   UNL     1      -1.289  17.250  24.327  0.00  0.00    +0.000 A 
ATOM      7  C   UNL     1      -1.957  18.192  25.113  0.00  0.00    +0.000 A 
ATOM      8  C   UNL     1      -3.337  18.125  25.262  0.00  0.00    +0.000 A 
ATOM      9  C   UNL     1      -4.030  17.150  24.565  0.00  0.00    +0.000 A 
ATOM     10  C   UNL     1      -5.509  16.964  24.751  0.00  0.00    +0.000 C 
ATOM     11  N   UNL     1      -3.398  16.239  23.785  0.00  0.00    +0.000 NA
ATOM     12  C   UNL     1      -1.826  13.808  22.934  0.00  0.00    +0.000 A 
ENDROOT
BRANCH  12  13
ATOM     13  C   UNL     1      -3.190  13.310  23.173  0.00  0.00    +0.000 A 
ATOM     14  C   UNL     1      -3.632  12.939  24.443  0.00  0.00    +0.000 A 
ATOM     15  C   UNL     1      -4.969  12.604  24.661  0.00  0.00    +0.000 A 
ATOM     16  C   UNL     1      -5.855  12.488  23.608  0.00  0.00    +0.000 A 
ATOM     17  N   UNL     1      -7.133  12.144  23.853  0.00  0.00    +0.000 NA
ATOM     18  C   UNL     1      -7.915  11.961  22.771  0.00  0.00    +0.000 A 
ATOM     19  C   UNL     1      -7.435  12.097  21.483  0.00  0.00    +0.000 A 
ATOM     20  N   UNL     1      -6.172  12.488  21.224  0.00  0.00    +0.000 NA
ATOM     21  C   UNL     1      -5.383  12.705  22.293  0.00  0.00    +0.000 A 
ATOM     22  C   UNL     1      -4.085  13.156  22.105  0.00  0.00    +0.000 A 
ENDBRANCH  12  13
BRANCH   1  27
ATOM     23  C   UNL     1       0.331   7.631  21.130  0.00  0.00    +0.000 C 
ATOM     24  C   UNL     1      -0.048   9.049  21.444  0.00  0.00    +0.000 A 
ATOM     25  C   UNL     1       0.037  10.043  20.465  0.00  0.00    +0.000 A 
ATOM     26  C   UNL     1      -0.262  11.371  20.776  0.00  0.00    +0.000 A 
ATOM     27  C   UNL     1      -0.585  11.742  22.096  0.00  0.00    +0.000 A 
ATOM     28  C   UNL     1      -0.740  10.738  23.054  0.00  0.00    +0.000 A 
ATOM     29  C   UNL     1      -0.475   9.400  22.731  0.00  0.00    +0.000 A 
ENDBRANCH   1  27
TORSDOF 2
ENDMDL
MODEL 4
REMARK VINA RESULT:      -7.4      2.871      4.624
REMARK  Name = 
REMARK  4 active torsions:
REMARK  status: ('A' for Active; 'I' for Inactive)
REMARK    1  A    between atoms: C_1  and  C_2
REMARK    2  A    between atoms: C_5  and  C_6
REMARK    3  A    between atoms: C_14  and  C_15
REMARK    4  A    between atoms: C_17  and  C_18
REMARK                            x       y       z     vdW  Elec       q    Type
REMARK                         _______ _______ _______ _____ _____    ______ ____
ROOT
ATOM      1  C   UNL     1       0.634   9.539  20.942  0.00  0.00    +0.000 A 
ATOM      2  N   UNL     1       0.913   9.557  22.278  0.00  0.00    +0.000 NA
ATOM      3  N   UNL     1       0.058  10.375  22.867  0.00  0.00    +0.000 NA
ATOM      4  N   UNL     1      -0.735  10.944  21.917  0.00  0.00    +0.000 N 
ATOM      5  C   UNL     1      -1.789  11.848  22.291  0.00  0.00    +0.000 A 
ATOM      6  C   UNL     1      -2.269  11.811  23.598  0.00  0.00    +0.000 A 
ATOM      7  C   UNL     1      -3.467  12.471  23.879  0.00  0.00    +0.000 A 
ATOM      8  C   UNL     1      -4.141  13.154  22.873  0.00  0.00    +0.000 A 
ATOM      9  C   UNL     1      -3.564  13.215  21.616  0.00  0.00    +0.000 A 
ATOM     10  C   UNL     1      -4.280  13.857  20.462  0.00  0.00    +0.000 C 
ATOM     11  N   UNL     1      -2.393  12.594  21.332  0.00  0.00    +0.000 NA
ATOM     12  C   UNL     1      -0.397  10.435  20.652  0.00  0.00    +0.000 A 
ENDROOT
BRANCH  12  13
ATOM     13  C   UNL     1      -1.035  10.776  19.370  0.00  0.00    +0.000 A 
ATOM     14  C   UNL     1      -0.812  11.997  18.732  0.00  0.00    +0.000 A 
ATOM     15  C   UNL     1      -1.321  12.235  17.455  0.00  0.00    +0.000 A 
ATOM     16  C   UNL     1      -2.175  11.335  16.849  0.00  0.00    +0.000 A 
ATOM     17  N   UNL     1      -2.662  11.606  15.624  0.00  0.00    +0.000 NA
ATOM     18  C   UNL     1      -3.560  10.727  15.136  0.00  0.00    +0.000 A 
ATOM     19  C   UNL     1      -3.976   9.623  15.853  0.00  0.00    +0.000 A 
ATOM     20  N   UNL     1      -3.461   9.313  17.059  0.00  0.00    +0.000 NA
ATOM     21  C   UNL     1      -2.539  10.163  17.551  0.00  0.00    +0.000 A 
ATOM     22  C   UNL     1      -1.930   9.883  18.765  0.00  0.00    +0.000 A 
ENDBRANCH  12  13
BRANCH   1  27
ATOM     23  C   UNL     1       4.050   6.504  17.425  0.00  0.00    +0.000 C 
ATOM     24  C   UNL     1       3.066   7.243  18.285  0.00  0.00    +0.000 A 
ATOM     25  C   UNL     1       2.553   8.478  17.879  0.00  0.00    +0.000 A 
ATOM     26  C   UNL     1       1.682   9.189  18.706  0.00  0.00    +0.000 A 
ATOM     27  C   UNL     1       1.362   8.709  19.991  0.00  0.00    +0.000 A 
ATOM     28  C   UNL     1       1.818   7.443  20.364  0.00  0.00    +0.000 A 
ATOM     29  C   UNL     1       2.663   6.713  19.516  0.00  0.00    +0.000 A 
ENDBRANCH   1  27
TORSDOF 2
ENDMDL
MODEL 5
REMARK VINA RESULT:      -7.4      3.573      5.855
REMARK  Name = 
REMARK  4 active torsions:
REMARK  status: ('A' for Active; 'I' for Inactive)
REMARK    1  A    between atoms: C_1  and  C_2
REMARK    2  A    between atoms: C_5  and  C_6
REMARK    3  A    between atoms: C_14  and  C_15
REMARK    4  A    between atoms: C_17  and  C_18
REMARK                            x       y       z     vdW  Elec       q    Type
REMARK                         _______ _______ _______ _____ _____    ______ ____
ROOT
ATOM      1  C   UNL     1       0.045  10.173  21.363  0.00  0.00    +0.000 A 
ATOM      2  N   UNL     1      -0.638   9.628  22.411  0.00  0.00    +0.000 NA
ATOM      3  N   UNL     1      -1.182  10.612  23.106  0.00  0.00    +0.000 NA
ATOM      4  N   UNL     1      -0.804  11.801  22.559  0.00  0.00    +0.000 N 
ATOM      5  C   UNL     1      -1.294  13.041  23.097  0.00  0.00    +0.000 A 
ATOM      6  C   UNL     1      -2.452  13.023  23.870  0.00  0.00    +0.000 A 
ATOM      7  C   UNL     1      -3.079  14.240  24.145  0.00  0.00    +0.000 A 
ATOM      8  C   UNL     1      -2.541  15.428  23.664  0.00  0.00    +0.000 A 
ATOM      9  C   UNL     1      -1.344  15.376  22.970  0.00  0.00    +0.000 A 
ATOM     10  C   UNL     1      -0.755  16.609  22.345  0.00  0.00    +0.000 C 
ATOM     11  N   UNL     1      -0.715  14.206  22.710  0.00  0.00    +0.000 NA
ATOM     12  C   UNL     1      -0.004  11.567  21.427  0.00  0.00    +0.000 A 
ENDROOT
BRANCH  12  13
ATOM     13  C   UNL     1       0.582  12.587  20.542  0.00  0.00    +0.000 A 
ATOM     14  C   UNL     1      -0.126  13.136  19.472  0.00  0.00    +0.000 A 
ATOM     15  C   UNL     1       0.404  14.197  18.738  0.00  0.00    +0.000 A 
ATOM     16  C   UNL     1       1.696  14.636  18.953  0.00  0.00    +0.000 A 
ATOM     17  N   UNL     1       2.182  15.650  18.213  0.00  0.00    +0.000 NA
ATOM     18  C   UNL     1       3.478  15.963  18.415  0.00  0.00    +0.000 A 
ATOM     19  C   UNL     1       4.271  15.275  19.312  0.00  0.00    +0.000 A 
ATOM     20  N   UNL     1       3.786  14.290  20.093  0.00  0.00    +0.000 NA
ATOM     21  C   UNL     1       2.485  13.983  19.928  0.00  0.00    +0.000 A 
ATOM     22  C   UNL     1       1.903  13.013  20.731  0.00  0.00    +0.000 A 
ENDBRANCH  12  13
BRANCH   1  27
ATOM     23  C   UNL     1       3.319   7.323  17.567  0.00  0.00    +0.000 C 
ATOM     24  C   UNL     1       2.373   8.000  18.516  0.00  0.00    +0.000 A 
ATOM     25  C   UNL     1       1.659   9.135  18.122  0.00  0.00    +0.000 A 
ATOM     26  C   UNL     1       0.823   9.795  19.024  0.00  0.00    +0.000 A 
ATOM     27  C   UNL     1       0.739   9.370  20.365  0.00  0.00    +0.000 A 
ATOM     28  C   UNL     1       1.395   8.195  20.736  0.00  0.00    +0.000 A 
ATOM     29  C   UNL     1       2.206   7.513  19.818  0.00  0.00    +0.000 A 
ENDBRANCH   1  27
TORSDOF 2
ENDMDL
MODEL 6
REMARK VINA RESULT:      -7.1      0.795      1.701
REMARK  Name = 
REMARK  4 active torsions:
REMARK  status: ('A' for Active; 'I' for Inactive)
REMARK    1  A    between atoms: C_1  and  C_2
REMARK    2  A    between atoms: C_5  and  C_6
REMARK    3  A    between atoms: C_14  and  C_15
REMARK    4  A    between atoms: C_17  and  C_18
REMARK                            x       y       z     vdW  Elec       q    Type
REMARK                         _______ _______ _______ _____ _____    ______ ____
ROOT
ATOM      1  C   UNL     1      -1.391  13.148  23.007  0.00  0.00    +0.000 A 
ATOM      2  N   UNL     1      -0.892  14.005  23.946  0.00  0.00    +0.000 NA
ATOM      3  N   UNL     1      -1.767  14.981  24.121  0.00  0.00    +0.000 NA
ATOM      4  N   UNL     1      -2.804  14.805  23.255  0.00  0.00    +0.000 N 
ATOM      5  C   UNL     1      -3.924  15.706  23.264  0.00  0.00    +0.000 A 
ATOM      6  C   UNL     1      -4.155  16.474  24.403  0.00  0.00    +0.000 A 
ATOM      7  C   UNL     1      -5.386  17.122  24.522  0.00  0.00    +0.000 A 
ATOM      8  C   UNL     1      -6.338  17.004  23.516  0.00  0.00    +0.000 A 
ATOM      9  C   UNL     1      -6.009  16.289  22.377  0.00  0.00    +0.000 A 
ATOM     10  C   UNL     1      -7.020  16.046  21.294  0.00  0.00    +0.000 C 
ATOM     11  N   UNL     1      -4.812  15.669  22.239  0.00  0.00    +0.000 NA
ATOM     12  C   UNL     1      -2.603  13.631  22.509  0.00  0.00    +0.000 A 
ENDROOT
BRANCH  12  13
ATOM     13  C   UNL     1      -3.506  13.076  21.488  0.00  0.00    +0.000 A 
ATOM     14  C   UNL     1      -3.167  13.048  20.134  0.00  0.00    +0.000 A 
ATOM     15  C   UNL     1      -3.981  12.392  19.211  0.00  0.00    +0.000 A 
ATOM     16  C   UNL     1      -5.210  11.881  19.581  0.00  0.00    +0.000 A 
ATOM     17  N   UNL     1      -5.978  11.272  18.660  0.00  0.00    +0.000 NA
ATOM     18  C   UNL     1      -7.201  10.881  19.072  0.00  0.00    +0.000 A 
ATOM     19  C   UNL     1      -7.653  11.107  20.357  0.00  0.00    +0.000 A 
ATOM     20  N   UNL     1      -6.877  11.672  21.303  0.00  0.00    +0.000 NA
ATOM     21  C   UNL     1      -5.640  12.043  20.918  0.00  0.00    +0.000 A 
ATOM     22  C   UNL     1      -4.769  12.587  21.850  0.00  0.00    +0.000 A 
ENDBRANCH  12  13
BRANCH   1  27
ATOM     23  C   UNL     1       0.865   8.253  20.961  0.00  0.00    +0.000 C 
ATOM     24  C   UNL     1       0.371   9.532  21.571  0.00  0.00    +0.000 A 
ATOM     25  C   UNL     1      -0.466   9.511  22.691  0.00  0.00    +0.000 A 
ATOM     26  C   UNL     1      -0.969  10.700  23.221  0.00  0.00    +0.000 A 
ATOM     27  C   UNL     1      -0.700  11.934  22.596  0.00  0.00    +0.000 A 
ATOM     28  C   UNL     1       0.193  11.959  21.523  0.00  0.00    +0.000 A 
ATOM     29  C   UNL     1       0.727  10.766  21.014  0.00  0.00    +0.000 A 
ENDBRANCH   1  27
TORSDOF 2
ENDMDL
MODEL 7
REMARK VINA RESULT:      -7.0      3.174      6.660
REMARK  Name = 
REMARK  4 active torsions:
REMARK  status: ('A' for Active; 'I' for Inactive)
REMARK    1  A    between atoms: C_1  and  C_2
REMARK    2  A    between atoms: C_5  and  C_6
REMARK    3  A    between atoms: C_14  and  C_15
REMARK    4  A    between atoms: C_17  and  C_18
REMARK                            x       y       z     vdW  Elec       q    Type
REMARK                         _______ _______ _______ _____ _____    ______ ____
ROOT
ATOM      1  C   UNL     1      -3.243  14.801  21.190  0.00  0.00    +0.000 A 
ATOM      2  N   UNL     1      -3.335  16.161  21.120  0.00  0.00    +0.000 NA
ATOM      3  N   UNL     1      -2.209  16.624  20.604  0.00  0.00    +0.000 NA
ATOM      4  N   UNL     1      -1.355  15.583  20.399  0.00  0.00    +0.000 N 
ATOM      5  C   UNL     1      -0.067  15.802  19.800  0.00  0.00    +0.000 A 
ATOM      6  C   UNL     1       0.137  16.962  19.057  0.00  0.00    +0.000 A 
ATOM      7  C   UNL     1       1.273  17.035  18.248  0.00  0.00    +0.000 A 
ATOM      8  C   UNL     1       2.173  15.976  18.209  0.00  0.00    +0.000 A 
ATOM      9  C   UNL     1       1.947  14.888  19.035  0.00  0.00    +0.000 A 
ATOM     10  C   UNL     1       2.827  13.672  18.976  0.00  0.00    +0.000 C 
ATOM     11  N   UNL     1       0.858  14.809  19.838  0.00  0.00    +0.000 NA
ATOM     12  C   UNL     1      -1.981  14.380  20.767  0.00  0.00    +0.000 A 
ENDROOT
BRANCH  12  13
ATOM     13  C   UNL     1      -1.406  13.028  20.673  0.00  0.00    +0.000 A 
ATOM     14  C   UNL     1      -1.383  12.313  19.474  0.00  0.00    +0.000 A 
ATOM     15  C   UNL     1      -0.710  11.095  19.386  0.00  0.00    +0.000 A 
ATOM     16  C   UNL     1      -0.173  10.494  20.507  0.00  0.00    +0.000 A 
ATOM     17  N   UNL     1       0.453   9.309  20.388  0.00  0.00    +0.000 NA
ATOM     18  C   UNL     1       0.869   8.740  21.538  0.00  0.00    +0.000 A 
ATOM     19  C   UNL     1       0.650   9.323  22.770  0.00  0.00    +0.000 A 
ATOM     20  N   UNL     1       0.068  10.531  22.901  0.00  0.00    +0.000 NA
ATOM     21  C   UNL     1      -0.328  11.130  21.761  0.00  0.00    +0.000 A 
ATOM     22  C   UNL     1      -0.892  12.396  21.813  0.00  0.00    +0.000 A 
ENDBRANCH  12  13
BRANCH   1  27
ATOM     23  C   UNL     1      -7.916  11.971  23.035  0.00  0.00    +0.000 C 
ATOM     24  C   UNL     1      -6.635  12.608  22.578  0.00  0.00    +0.000 A 
ATOM     25  C   UNL     1      -5.798  13.259  23.487  0.00  0.00    +0.000 A 
ATOM     26  C   UNL     1      -4.637  13.898  23.050  0.00  0.00    +0.000 A 
ATOM     27  C   UNL     1      -4.327  13.958  21.677  0.00  0.00    +0.000 A 
ATOM     28  C   UNL     1      -5.125  13.246  20.780  0.00  0.00    +0.000 A 
ATOM     29  C   UNL     1      -6.271  12.574  21.226  0.00  0.00    +0.000 A 
ENDBRANCH   1  27
TORSDOF 2
ENDMDL
MODEL 8
REMARK VINA RESULT:      -7.0      2.382      5.447
REMARK  Name = 
REMARK  4 active torsions:
REMARK  status: ('A' for Active; 'I' for Inactive)
REMARK    1  A    between atoms: C_1  and  C_2
REMARK    2  A    between atoms: C_5  and  C_6
REMARK    3  A    between atoms: C_14  and  C_15
REMARK    4  A    between atoms: C_17  and  C_18
REMARK                            x       y       z     vdW  Elec       q    Type
REMARK                         _______ _______ _______ _____ _____    ______ ____
ROOT
ATOM      1  C   UNL     1      -4.620  12.297  19.710  0.00  0.00    +0.000 A 
ATOM      2  N   UNL     1      -5.927  12.522  20.035  0.00  0.00    +0.000 NA
ATOM      3  N   UNL     1      -5.958  13.214  21.161  0.00  0.00    +0.000 NA
ATOM      4  N   UNL     1      -4.683  13.385  21.611  0.00  0.00    +0.000 N 
ATOM      5  C   UNL     1      -4.425  14.147  22.803  0.00  0.00    +0.000 A 
ATOM      6  C   UNL     1      -5.393  15.045  23.245  0.00  0.00    +0.000 A 
ATOM      7  C   UNL     1      -5.030  15.979  24.218  0.00  0.00    +0.000 A 
ATOM      8  C   UNL     1      -3.738  15.988  24.730  0.00  0.00    +0.000 A 
ATOM      9  C   UNL     1      -2.851  15.015  24.300  0.00  0.00    +0.000 A 
ATOM     10  C   UNL     1      -1.415  15.023  24.742  0.00  0.00    +0.000 C 
ATOM     11  N   UNL     1      -3.193  14.092  23.370  0.00  0.00    +0.000 NA
ATOM     12  C   UNL     1      -3.781  12.805  20.704  0.00  0.00    +0.000 A 
ENDROOT
BRANCH  12  13
ATOM     13  C   UNL     1      -2.313  12.796  20.812  0.00  0.00    +0.000 A 
ATOM     14  C   UNL     1      -1.633  11.872  21.606  0.00  0.00    +0.000 A 
ATOM     15  C   UNL     1      -0.240  11.801  21.580  0.00  0.00    +0.000 A 
ATOM     16  C   UNL     1       0.508  12.731  20.885  0.00  0.00    +0.000 A 
ATOM     17  N   UNL     1       1.851  12.644  20.897  0.00  0.00    +0.000 NA
ATOM     18  C   UNL     1       2.515  13.638  20.275  0.00  0.00    +0.000 A 
ATOM     19  C   UNL     1       1.864  14.697  19.675  0.00  0.00    +0.000 A 
ATOM     20  N   UNL     1       0.520  14.773  19.613  0.00  0.00    +0.000 NA
ATOM     21  C   UNL     1      -0.163  13.773  20.204  0.00  0.00    +0.000 A 
ATOM     22  C   UNL     1      -1.548  13.758  20.138  0.00  0.00    +0.000 A 
ENDBRANCH  12  13
BRANCH   1  27
ATOM     23  C   UNL     1      -2.641  10.013  14.800  0.00  0.00    +0.000 C 
ATOM     24  C   UNL     1      -3.226  10.509  16.090  0.00  0.00    +0.000 A 
ATOM     25  C   UNL     1      -4.407  11.255  16.097  0.00  0.00    +0.000 A 
ATOM     26  C   UNL     1      -4.918  11.763  17.293  0.00  0.00    +0.000 A 
ATOM     27  C   UNL     1      -4.215  11.592  18.501  0.00  0.00    +0.000 A 
ATOM     28  C   UNL     1      -3.075  10.786  18.503  0.00  0.00    +0.000 A 
ATOM     29  C   UNL     1      -2.584  10.246  17.306  0.00  0.00    +0.000 A 
ENDBRANCH   1  27
TORSDOF 2
ENDMDL
MODEL 9
REMARK VINA RESULT:      -6.9      1.449      2.061
REMARK  Name = 
REMARK  4 active torsions:
REMARK  status: ('A' for Active; 'I' for Inactive)
REMARK    1  A    between atoms: C_1  and  C_2
REMARK    2  A    between atoms: C_5  and  C_6
REMARK    3  A    between atoms: C_14  and  C_15
REMARK    4  A    between atoms: C_17  and  C_18
REMARK                            x       y       z     vdW  Elec       q    Type
REMARK                         _______ _______ _______ _____ _____    ______ ____
ROOT
ATOM      1  C   UNL     1      -1.248  12.778  22.531  0.00  0.00    +0.000 A 
ATOM      2  N   UNL     1      -0.920  13.653  23.526  0.00  0.00    +0.000 NA
ATOM      3  N   UNL     1      -1.760  14.672  23.474  0.00  0.00    +0.000 NA
ATOM      4  N   UNL     1      -2.594  14.504  22.409  0.00  0.00    +0.000 N 
ATOM      5  C   UNL     1      -3.642  15.452  22.144  0.00  0.00    +0.000 A 
ATOM      6  C   UNL     1      -4.073  16.278  23.179  0.00  0.00    +0.000 A 
ATOM      7  C   UNL     1      -5.266  16.983  23.006  0.00  0.00    +0.000 A 
ATOM      8  C   UNL     1      -5.983  16.862  21.821  0.00  0.00    +0.000 A 
ATOM      9  C   UNL     1      -5.453  16.084  20.806  0.00  0.00    +0.000 A 
ATOM     10  C   UNL     1      -6.219  15.838  19.537  0.00  0.00    +0.000 C 
ATOM     11  N   UNL     1      -4.289  15.408  20.952  0.00  0.00    +0.000 NA
ATOM     12  C   UNL     1      -2.298  13.290  21.765  0.00  0.00    +0.000 A 
ENDROOT
BRANCH  12  13
ATOM     13  C   UNL     1      -2.987  12.730  20.591  0.00  0.00    +0.000 A 
ATOM     14  C   UNL     1      -4.361  12.492  20.581  0.00  0.00    +0.000 A 
ATOM     15  C   UNL     1      -5.006  12.092  19.410  0.00  0.00    +0.000 A 
ATOM     16  C   UNL     1      -4.287  11.780  18.273  0.00  0.00    +0.000 A 
ATOM     17  N   UNL     1      -4.940  11.379  17.167  0.00  0.00    +0.000 NA
ATOM     18  C   UNL     1      -4.168  11.005  16.126  0.00  0.00    +0.000 A 
ATOM     19  C   UNL     1      -2.789  11.011  16.191  0.00  0.00    +0.000 A 
ATOM     20  N   UNL     1      -2.122  11.456  17.275  0.00  0.00    +0.000 NA
ATOM     21  C   UNL     1      -2.876  11.863  18.314  0.00  0.00    +0.000 A 
ATOM     22  C   UNL     1      -2.260  12.378  19.445  0.00  0.00    +0.000 A 
ENDBRANCH  12  13
BRANCH   1  27
ATOM     23  C   UNL     1       1.073   7.656  21.259  0.00  0.00    +0.000 C 
ATOM     24  C   UNL     1       0.556   9.003  21.673  0.00  0.00    +0.000 A 
ATOM     25  C   UNL     1      -0.362   9.123  22.721  0.00  0.00    +0.000 A 
ATOM     26  C   UNL     1      -0.883  10.370  23.066  0.00  0.00    +0.000 A 
ATOM     27  C   UNL     1      -0.549  11.518  22.321  0.00  0.00    +0.000 A 
ATOM     28  C   UNL     1       0.422  11.407  21.323  0.00  0.00    +0.000 A 
ATOM     29  C   UNL     1       0.973  10.159  21.002  0.00  0.00    +0.000 A 
ENDBRANCH   1  27
TORSDOF 2
ENDMDL
