MODEL 1
REMARK VINA RESULT:      -7.0      0.000      0.000
REMARK  Name = 
REMARK  13 active torsions:
REMARK  status: ('A' for Active; 'I' for Inactive)
REMARK    1  A    between atoms: C_2  and  C_3
REMARK    2  A    between atoms: C_3  and  C_4
REMARK    3  A    between atoms: C_6  and  O_7
REMARK    4  A    between atoms: O_7  and  C_8
REMARK    5  A    between atoms: C_12  and  O_13
REMARK    6  A    between atoms: C_14  and  C_15
REMARK    7  A    between atoms: C_17  and  O_18
REMARK    8  A    between atoms: O_18  and  C_19
REMARK    9  A    between atoms: C_20  and  O_21
REMARK   10  A    between atoms: O_21  and  C_22
REMARK   11  A    between atoms: C_23  and  O_24
REMARK   12  A    between atoms: O_24  and  C_25
REMARK   13  A    between atoms: C_27  and  C_28
REMARK                            x       y       z     vdW  Elec       q    Type
REMARK                         _______ _______ _______ _____ _____    ______ ____
ROOT
ATOM      1  C   UNL     1       5.300   5.539  18.615  0.00  0.00    +0.000 C 
ATOM      2  C   UNL     1       4.894   4.412  19.238  0.00  0.00    +0.000 C 
ATOM      3  C   UNL     1       3.433   3.992  19.299  0.00  0.00    +0.000 C 
ATOM      4  C   UNL     1       2.941   4.404  17.897  0.00  0.00    +0.000 C 
ATOM      5  O   UNL     1       2.710   3.674  16.944  0.00  0.00    +0.000 OA
ATOM      6  C   UNL     1       2.841   5.905  17.870  0.00  0.00    +0.000 C 
ATOM      7  C   UNL     1       4.280   6.472  17.965  0.00  0.00    +0.000 C 
ATOM      8  C   UNL     1       2.006   6.027  19.159  0.00  0.00    +0.000 C 
ATOM      9  C   UNL     1       2.664   5.041  20.174  0.00  0.00    +0.000 C 
ATOM     10  C   UNL     1       1.611   4.460  21.121  0.00  0.00    +0.000 C 
ENDROOT
BRANCH   8  11
ATOM     11  C   UNL     1       1.773   7.463  19.578  0.00  0.00    +0.000 A 
ATOM     12  C   UNL     1       1.590   7.753  20.935  0.00  0.00    +0.000 A 
ATOM     13  C   UNL     1       1.350   9.060  21.371  0.00  0.00    +0.000 A 
ATOM     14  C   UNL     1       1.252  10.110  20.434  0.00  0.00    +0.000 A 
ATOM     15  C   UNL     1       1.441   9.834  19.066  0.00  0.00    +0.000 A 
ATOM     16  C   UNL     1       1.730   8.520  18.669  0.00  0.00    +0.000 A 
BRANCH  13  17
ATOM     17  O   UNL     1       1.181   9.378  22.701  0.00  0.00    +0.000 OA
ATOM     18  C   UNL     1      -0.151   9.298  23.199  0.00  0.00    +0.000 C 
ENDBRANCH  13  17
BRANCH  14  19
ATOM     19  O   UNL     1       0.918  11.336  20.964  0.00  0.00    +0.000 OA
ATOM     20  C   UNL     1      -0.384  11.828  20.682  0.00  0.00    +0.000 C 
ENDBRANCH  14  19
BRANCH  15  21
ATOM     21  O   UNL     1       1.308  10.853  18.156  0.00  0.00    +0.000 OA
ATOM     22  C   UNL     1       2.410  11.736  17.970  0.00  0.00    +0.000 C 
ENDBRANCH  15  21
ENDBRANCH   8  11
BRANCH   3  23
ATOM     23  O   UNL     1       3.299   2.704  19.829  0.00  0.00    +0.000 OA
ATOM     24  C   UNL     1       4.505   2.072  20.235  0.00  0.00    +0.000 C 
ENDBRANCH   3  23
BRANCH   7  25
ATOM     25  O   UNL     1       4.719   6.802  16.649  0.00  0.00    +0.000 OA
ATOM     26  H   UNL     1       4.170   6.315  16.012  0.00  0.00    +0.000 HD
ENDBRANCH   7  25
BRANCH   1  27
ATOM     27  C   UNL     1       6.764   5.891  18.525  0.00  0.00    +0.000 C 
BRANCH  27  29
ATOM     28  C   UNL     1       7.296   4.493  16.515  0.00  0.00    +0.000 C 
ATOM     29  C   UNL     1       7.551   4.857  17.779  0.00  0.00    +0.000 C 
ENDBRANCH  27  29
ENDBRANCH   1  27
TORSDOF 8
ENDMDL
MODEL 2
REMARK VINA RESULT:      -6.8      2.010      7.519
REMARK  Name = 
REMARK  13 active torsions:
REMARK  status: ('A' for Active; 'I' for Inactive)
REMARK    1  A    between atoms: C_2  and  C_3
REMARK    2  A    between atoms: C_3  and  C_4
REMARK    3  A    between atoms: C_6  and  O_7
REMARK    4  A    between atoms: O_7  and  C_8
REMARK    5  A    between atoms: C_12  and  O_13
REMARK    6  A    between atoms: C_14  and  C_15
REMARK    7  A    between atoms: C_17  and  O_18
REMARK    8  A    between atoms: O_18  and  C_19
REMARK    9  A    between atoms: C_20  and  O_21
REMARK   10  A    between atoms: O_21  and  C_22
REMARK   11  A    between atoms: C_23  and  O_24
REMARK   12  A    between atoms: O_24  and  C_25
REMARK   13  A    between atoms: C_27  and  C_28
REMARK                            x       y       z     vdW  Elec       q    Type
REMARK                         _______ _______ _______ _____ _____    ______ ____
ROOT
ATOM      1  C   UNL     1      -0.647  10.100  18.438  0.00  0.00    +0.000 C 
ATOM      2  C   UNL     1      -1.209  10.466  19.610  0.00  0.00    +0.000 C 
ATOM      3  C   UNL     1      -0.442  10.457  20.924  0.00  0.00    +0.000 C 
ATOM      4  C   UNL     1       0.947  10.945  20.466  0.00  0.00    +0.000 C 
ATOM      5  O   UNL     1       1.440  12.052  20.633  0.00  0.00    +0.000 OA
ATOM      6  C   UNL     1       1.600   9.823  19.707  0.00  0.00    +0.000 C 
ATOM      7  C   UNL     1       0.802   9.618  18.394  0.00  0.00    +0.000 C 
ATOM      8  C   UNL     1       1.364   8.748  20.787  0.00  0.00    +0.000 C 
ATOM      9  C   UNL     1      -0.103   8.967  21.275  0.00  0.00    +0.000 C 
ATOM     10  C   UNL     1      -0.240   8.594  22.753  0.00  0.00    +0.000 C 
ENDROOT
BRANCH   8  11
ATOM     11  C   UNL     1       1.791   7.364  20.346  0.00  0.00    +0.000 A 
ATOM     12  C   UNL     1       2.825   7.239  19.411  0.00  0.00    +0.000 A 
ATOM     13  C   UNL     1       3.242   5.984  18.955  0.00  0.00    +0.000 A 
ATOM     14  C   UNL     1       2.593   4.817  19.411  0.00  0.00    +0.000 A 
ATOM     15  C   UNL     1       1.556   4.928  20.358  0.00  0.00    +0.000 A 
ATOM     16  C   UNL     1       1.198   6.199  20.830  0.00  0.00    +0.000 A 
BRANCH  13  17
ATOM     17  O   UNL     1       4.266   5.828  18.048  0.00  0.00    +0.000 OA
ATOM     18  C   UNL     1       4.361   6.824  17.034  0.00  0.00    +0.000 C 
ENDBRANCH  13  17
BRANCH  14  19
ATOM     19  O   UNL     1       3.019   3.646  18.825  0.00  0.00    +0.000 OA
ATOM     20  C   UNL     1       2.291   3.187  17.696  0.00  0.00    +0.000 C 
ENDBRANCH  14  19
BRANCH  15  21
ATOM     21  O   UNL     1       0.905   3.792  20.768  0.00  0.00    +0.000 OA
ATOM     22  C   UNL     1       1.575   2.925  21.679  0.00  0.00    +0.000 C 
ENDBRANCH  15  21
ENDBRANCH   8  11
BRANCH   3  23
ATOM     23  O   UNL     1      -1.185  11.055  21.948  0.00  0.00    +0.000 OA
ATOM     24  C   UNL     1      -1.935  12.204  21.579  0.00  0.00    +0.000 C 
ENDBRANCH   3  23
BRANCH   7  25
ATOM     25  O   UNL     1       1.489  10.295  17.344  0.00  0.00    +0.000 OA
ATOM     26  H   UNL     1       2.112  10.926  17.741  0.00  0.00    +0.000 HD
ENDBRANCH   7  25
BRANCH   1  27
ATOM     27  C   UNL     1      -1.423  10.180  17.147  0.00  0.00    +0.000 C 
BRANCH  27  29
ATOM     28  C   UNL     1      -3.874  10.649  16.925  0.00  0.00    +0.000 C 
ATOM     29  C   UNL     1      -2.874   9.858  17.336  0.00  0.00    +0.000 C 
ENDBRANCH  27  29
ENDBRANCH   1  27
TORSDOF 8
ENDMDL
MODEL 3
REMARK VINA RESULT:      -6.7      1.269      1.538
REMARK  Name = 
REMARK  13 active torsions:
REMARK  status: ('A' for Active; 'I' for Inactive)
REMARK    1  A    between atoms: C_2  and  C_3
REMARK    2  A    between atoms: C_3  and  C_4
REMARK    3  A    between atoms: C_6  and  O_7
REMARK    4  A    between atoms: O_7  and  C_8
REMARK    5  A    between atoms: C_12  and  O_13
REMARK    6  A    between atoms: C_14  and  C_15
REMARK    7  A    between atoms: C_17  and  O_18
REMARK    8  A    between atoms: O_18  and  C_19
REMARK    9  A    between atoms: C_20  and  O_21
REMARK   10  A    between atoms: O_21  and  C_22
REMARK   11  A    between atoms: C_23  and  O_24
REMARK   12  A    between atoms: O_24  and  C_25
REMARK   13  A    between atoms: C_27  and  C_28
REMARK                            x       y       z     vdW  Elec       q    Type
REMARK                         _______ _______ _______ _____ _____    ______ ____
ROOT
ATOM      1  C   UNL     1       6.145   6.045  17.981  0.00  0.00    +0.000 C 
ATOM      2  C   UNL     1       6.004   4.925  18.721  0.00  0.00    +0.000 C 
ATOM      3  C   UNL     1       4.663   4.231  18.908  0.00  0.00    +0.000 C 
ATOM      4  C   UNL     1       4.036   4.403  17.509  0.00  0.00    +0.000 C 
ATOM      5  O   UNL     1       3.917   3.553  16.638  0.00  0.00    +0.000 OA
ATOM      6  C   UNL     1       3.633   5.844  17.361  0.00  0.00    +0.000 C 
ATOM      7  C   UNL     1       4.930   6.692  17.319  0.00  0.00    +0.000 C 
ATOM      8  C   UNL     1       2.848   5.921  18.685  0.00  0.00    +0.000 C 
ATOM      9  C   UNL     1       3.737   5.186  19.737  0.00  0.00    +0.000 C 
ATOM     10  C   UNL     1       2.866   4.501  20.794  0.00  0.00    +0.000 C 
ENDROOT
BRANCH   8  11
ATOM     11  C   UNL     1       2.347   7.316  18.995  0.00  0.00    +0.000 A 
ATOM     12  C   UNL     1       1.766   7.567  20.243  0.00  0.00    +0.000 A 
ATOM     13  C   UNL     1       1.269   8.833  20.570  0.00  0.00    +0.000 A 
ATOM     14  C   UNL     1       1.314   9.875  19.620  0.00  0.00    +0.000 A 
ATOM     15  C   UNL     1       1.903   9.639  18.363  0.00  0.00    +0.000 A 
ATOM     16  C   UNL     1       2.437   8.371  18.088  0.00  0.00    +0.000 A 
BRANCH  13  17
ATOM     17  O   UNL     1       0.706   9.114  21.795  0.00  0.00    +0.000 OA
ATOM     18  C   UNL     1      -0.555   8.505  22.059  0.00  0.00    +0.000 C 
ENDBRANCH  13  17
BRANCH  14  19
ATOM     19  O   UNL     1       0.710  11.048  20.013  0.00  0.00    +0.000 OA
ATOM     20  C   UNL     1      -0.620  11.270  19.568  0.00  0.00    +0.000 C 
ENDBRANCH  14  19
BRANCH  15  21
ATOM     21  O   UNL     1       1.910  10.646  17.431  0.00  0.00    +0.000 OA
ATOM     22  C   UNL     1       2.579  11.860  17.759  0.00  0.00    +0.000 C 
ENDBRANCH  15  21
ENDBRANCH   8  11
BRANCH   3  23
ATOM     23  O   UNL     1       4.816   2.999  19.553  0.00  0.00    +0.000 OA
ATOM     24  C   UNL     1       3.979   1.949  19.090  0.00  0.00    +0.000 C 
ENDBRANCH   3  23
BRANCH   7  25
ATOM     25  O   UNL     1       5.235   6.974  15.955  0.00  0.00    +0.000 OA
ATOM     26  H   UNL     1       4.665   6.423  15.393  0.00  0.00    +0.000 HD
ENDBRANCH   7  25
BRANCH   1  27
ATOM     27  C   UNL     1       7.502   6.669  17.770  0.00  0.00    +0.000 C 
BRANCH  27  29
ATOM     28  C   UNL     1       8.361   8.991  18.157  0.00  0.00    +0.000 C 
ATOM     29  C   UNL     1       7.430   8.162  17.664  0.00  0.00    +0.000 C 
ENDBRANCH  27  29
ENDBRANCH   1  27
TORSDOF 8
ENDMDL
MODEL 4
REMARK VINA RESULT:      -6.7      0.384      2.339
REMARK  Name = 
REMARK  13 active torsions:
REMARK  status: ('A' for Active; 'I' for Inactive)
REMARK    1  A    between atoms: C_2  and  C_3
REMARK    2  A    between atoms: C_3  and  C_4
REMARK    3  A    between atoms: C_6  and  O_7
REMARK    4  A    between atoms: O_7  and  C_8
REMARK    5  A    between atoms: C_12  and  O_13
REMARK    6  A    between atoms: C_14  and  C_15
REMARK    7  A    between atoms: C_17  and  O_18
REMARK    8  A    between atoms: O_18  and  C_19
REMARK    9  A    between atoms: C_20  and  O_21
REMARK   10  A    between atoms: O_21  and  C_22
REMARK   11  A    between atoms: C_23  and  O_24
REMARK   12  A    between atoms: O_24  and  C_25
REMARK   13  A    between atoms: C_27  and  C_28
REMARK                            x       y       z     vdW  Elec       q    Type
REMARK                         _______ _______ _______ _____ _____    ______ ____
ROOT
ATOM      1  C   UNL     1       5.300   5.461  18.794  0.00  0.00    +0.000 C 
ATOM      2  C   UNL     1       4.856   4.298  19.315  0.00  0.00    +0.000 C 
ATOM      3  C   UNL     1       3.397   3.874  19.244  0.00  0.00    +0.000 C 
ATOM      4  C   UNL     1       3.006   4.371  17.838  0.00  0.00    +0.000 C 
ATOM      5  O   UNL     1       2.848   3.700  16.828  0.00  0.00    +0.000 OA
ATOM      6  C   UNL     1       2.900   5.870  17.895  0.00  0.00    +0.000 C 
ATOM      7  C   UNL     1       4.325   6.432  18.130  0.00  0.00    +0.000 C 
ATOM      8  C   UNL     1       1.973   5.913  19.125  0.00  0.00    +0.000 C 
ATOM      9  C   UNL     1       2.560   4.866  20.123  0.00  0.00    +0.000 C 
ATOM     10  C   UNL     1       1.445   4.227  20.954  0.00  0.00    +0.000 C 
ENDROOT
BRANCH   8  11
ATOM     11  C   UNL     1       1.702   7.320  19.613  0.00  0.00    +0.000 A 
ATOM     12  C   UNL     1       1.611   8.357  18.678  0.00  0.00    +0.000 A 
ATOM     13  C   UNL     1       1.385   9.678  19.079  0.00  0.00    +0.000 A 
ATOM     14  C   UNL     1       1.281   9.990  20.451  0.00  0.00    +0.000 A 
ATOM     15  C   UNL     1       1.363   8.956  21.403  0.00  0.00    +0.000 A 
ATOM     16  C   UNL     1       1.541   7.636  20.962  0.00  0.00    +0.000 A 
BRANCH  13  17
ATOM     17  O   UNL     1       1.275  10.716  18.180  0.00  0.00    +0.000 OA
ATOM     18  C   UNL     1       2.493  11.354  17.810  0.00  0.00    +0.000 C 
ENDBRANCH  13  17
BRANCH  14  19
ATOM     19  O   UNL     1       1.155  11.331  20.735  0.00  0.00    +0.000 OA
ATOM     20  C   UNL     1      -0.163  11.849  20.839  0.00  0.00    +0.000 C 
ENDBRANCH  14  19
BRANCH  15  21
ATOM     21  O   UNL     1       1.298   9.272  22.736  0.00  0.00    +0.000 OA
ATOM     22  C   UNL     1       0.012   9.391  23.337  0.00  0.00    +0.000 C 
ENDBRANCH  15  21
ENDBRANCH   8  11
BRANCH   3  23
ATOM     23  O   UNL     1       3.231   2.555  19.683  0.00  0.00    +0.000 OA
ATOM     24  C   UNL     1       3.769   1.548  18.838  0.00  0.00    +0.000 C 
ENDBRANCH   3  23
BRANCH   7  25
ATOM     25  O   UNL     1       4.857   6.842  16.872  0.00  0.00    +0.000 OA
ATOM     26  H   UNL     1       4.280   6.500  16.169  0.00  0.00    +0.000 HD
ENDBRANCH   7  25
BRANCH   1  27
ATOM     27  C   UNL     1       6.765   5.819  18.832  0.00  0.00    +0.000 C 
BRANCH  27  29
ATOM     28  C   UNL     1       7.487   4.582  16.777  0.00  0.00    +0.000 C 
ATOM     29  C   UNL     1       7.610   4.832  18.087  0.00  0.00    +0.000 C 
ENDBRANCH  27  29
ENDBRANCH   1  27
TORSDOF 8
ENDMDL
MODEL 5
REMARK VINA RESULT:      -6.5      1.975      7.258
REMARK  Name = 
REMARK  13 active torsions:
REMARK  status: ('A' for Active; 'I' for Inactive)
REMARK    1  A    between atoms: C_2  and  C_3
REMARK    2  A    between atoms: C_3  and  C_4
REMARK    3  A    between atoms: C_6  and  O_7
REMARK    4  A    between atoms: O_7  and  C_8
REMARK    5  A    between atoms: C_12  and  O_13
REMARK    6  A    between atoms: C_14  and  C_15
REMARK    7  A    between atoms: C_17  and  O_18
REMARK    8  A    between atoms: O_18  and  C_19
REMARK    9  A    between atoms: C_20  and  O_21
REMARK   10  A    between atoms: O_21  and  C_22
REMARK   11  A    between atoms: C_23  and  O_24
REMARK   12  A    between atoms: O_24  and  C_25
REMARK   13  A    between atoms: C_27  and  C_28
REMARK                            x       y       z     vdW  Elec       q    Type
REMARK                         _______ _______ _______ _____ _____    ______ ____
ROOT
ATOM      1  C   UNL     1      -0.664  10.317  18.522  0.00  0.00    +0.000 C 
ATOM      2  C   UNL     1      -1.202  10.594  19.728  0.00  0.00    +0.000 C 
ATOM      3  C   UNL     1      -0.417  10.461  21.024  0.00  0.00    +0.000 C 
ATOM      4  C   UNL     1       0.975  10.960  20.587  0.00  0.00    +0.000 C 
ATOM      5  O   UNL     1       1.490  12.040  20.838  0.00  0.00    +0.000 OA
ATOM      6  C   UNL     1       1.595   9.893  19.728  0.00  0.00    +0.000 C 
ATOM      7  C   UNL     1       0.774   9.814  18.415  0.00  0.00    +0.000 C 
ATOM      8  C   UNL     1       1.353   8.737  20.717  0.00  0.00    +0.000 C 
ATOM      9  C   UNL     1      -0.102   8.941  21.246  0.00  0.00    +0.000 C 
ATOM     10  C   UNL     1      -0.226   8.448  22.690  0.00  0.00    +0.000 C 
ENDROOT
BRANCH   8  11
ATOM     11  C   UNL     1       1.746   7.387  20.157  0.00  0.00    +0.000 A 
ATOM     12  C   UNL     1       1.310   6.228  20.809  0.00  0.00    +0.000 A 
ATOM     13  C   UNL     1       1.664   4.957  20.344  0.00  0.00    +0.000 A 
ATOM     14  C   UNL     1       2.507   4.827  19.220  0.00  0.00    +0.000 A 
ATOM     15  C   UNL     1       2.948   5.985  18.550  0.00  0.00    +0.000 A 
ATOM     16  C   UNL     1       2.532   7.242  19.014  0.00  0.00    +0.000 A 
BRANCH  13  17
ATOM     17  O   UNL     1       1.237   3.799  20.955  0.00  0.00    +0.000 OA
ATOM     18  C   UNL     1       2.130   3.228  21.906  0.00  0.00    +0.000 C 
ENDBRANCH  13  17
BRANCH  14  19
ATOM     19  O   UNL     1       2.869   3.536  18.909  0.00  0.00    +0.000 OA
ATOM     20  C   UNL     1       2.200   2.923  17.817  0.00  0.00    +0.000 C 
ENDBRANCH  14  19
BRANCH  15  21
ATOM     21  O   UNL     1       3.797   5.852  17.480  0.00  0.00    +0.000 OA
ATOM     22  C   UNL     1       5.199   5.911  17.724  0.00  0.00    +0.000 C 
ENDBRANCH  15  21
ENDBRANCH   8  11
BRANCH   3  23
ATOM     23  O   UNL     1      -1.134  10.985  22.106  0.00  0.00    +0.000 OA
ATOM     24  C   UNL     1      -1.877  12.168  21.842  0.00  0.00    +0.000 C 
ENDBRANCH   3  23
BRANCH   7  25
ATOM     25  O   UNL     1       1.459  10.563  17.413  0.00  0.00    +0.000 OA
ATOM     26  H   UNL     1       1.303  11.508  17.577  0.00  0.00    +0.000 HD
ENDBRANCH   7  25
BRANCH   1  27
ATOM     27  C   UNL     1      -1.457  10.518  17.254  0.00  0.00    +0.000 C 
BRANCH  27  29
ATOM     28  C   UNL     1      -3.951  10.688  17.095  0.00  0.00    +0.000 C 
ATOM     29  C   UNL     1      -2.849   9.975  17.362  0.00  0.00    +0.000 C 
ENDBRANCH  27  29
ENDBRANCH   1  27
TORSDOF 8
ENDMDL
MODEL 6
REMARK VINA RESULT:      -6.3      2.084      7.736
REMARK  Name = 
REMARK  13 active torsions:
REMARK  status: ('A' for Active; 'I' for Inactive)
REMARK    1  A    between atoms: C_2  and  C_3
REMARK    2  A    between atoms: C_3  and  C_4
REMARK    3  A    between atoms: C_6  and  O_7
REMARK    4  A    between atoms: O_7  and  C_8
REMARK    5  A    between atoms: C_12  and  O_13
REMARK    6  A    between atoms: C_14  and  C_15
REMARK    7  A    between atoms: C_17  and  O_18
REMARK    8  A    between atoms: O_18  and  C_19
REMARK    9  A    between atoms: C_20  and  O_21
REMARK   10  A    between atoms: O_21  and  C_22
REMARK   11  A    between atoms: C_23  and  O_24
REMARK   12  A    between atoms: O_24  and  C_25
REMARK   13  A    between atoms: C_27  and  C_28
REMARK                            x       y       z     vdW  Elec       q    Type
REMARK                         _______ _______ _______ _____ _____    ______ ____
ROOT
ATOM      1  C   UNL     1      -1.381  11.239  19.423  0.00  0.00    +0.000 C 
ATOM      2  C   UNL     1      -1.731  11.425  20.713  0.00  0.00    +0.000 C 
ATOM      3  C   UNL     1      -0.733  11.317  21.856  0.00  0.00    +0.000 C 
ATOM      4  C   UNL     1       0.521  11.953  21.223  0.00  0.00    +0.000 C 
ATOM      5  O   UNL     1       0.981  13.064  21.439  0.00  0.00    +0.000 OA
ATOM      6  C   UNL     1       1.075  10.976  20.223  0.00  0.00    +0.000 C 
ATOM      7  C   UNL     1       0.056  10.870  19.059  0.00  0.00    +0.000 C 
ATOM      8  C   UNL     1       1.096   9.769  21.181  0.00  0.00    +0.000 C 
ATOM      9  C   UNL     1      -0.262   9.825  21.948  0.00  0.00    +0.000 C 
ATOM     10  C   UNL     1      -0.103   9.272  23.367  0.00  0.00    +0.000 C 
ENDROOT
BRANCH   8  11
ATOM     11  C   UNL     1       1.500   8.480  20.498  0.00  0.00    +0.000 A 
ATOM     12  C   UNL     1       2.144   8.542  19.257  0.00  0.00    +0.000 A 
ATOM     13  C   UNL     1       2.518   7.380  18.575  0.00  0.00    +0.000 A 
ATOM     14  C   UNL     1       2.215   6.114  19.119  0.00  0.00    +0.000 A 
ATOM     15  C   UNL     1       1.574   6.036  20.371  0.00  0.00    +0.000 A 
ATOM     16  C   UNL     1       1.258   7.222  21.050  0.00  0.00    +0.000 A 
BRANCH  13  17
ATOM     17  O   UNL     1       3.167   7.410  17.360  0.00  0.00    +0.000 OA
ATOM     18  C   UNL     1       4.547   7.056  17.379  0.00  0.00    +0.000 C 
ENDBRANCH  13  17
BRANCH  14  19
ATOM     19  O   UNL     1       2.542   5.042  18.320  0.00  0.00    +0.000 OA
ATOM     20  C   UNL     1       1.474   4.380  17.658  0.00  0.00    +0.000 C 
ENDBRANCH  14  19
BRANCH  15  21
ATOM     21  O   UNL     1       1.249   4.803  20.877  0.00  0.00    +0.000 OA
ATOM     22  C   UNL     1       2.284   4.026  21.470  0.00  0.00    +0.000 C 
ENDBRANCH  15  21
ENDBRANCH   8  11
BRANCH   3  23
ATOM     23  O   UNL     1      -1.300  11.737  23.065  0.00  0.00    +0.000 OA
ATOM     24  C   UNL     1      -2.618  12.262  22.981  0.00  0.00    +0.000 C 
ENDBRANCH   3  23
BRANCH   7  25
ATOM     25  O   UNL     1       0.502  11.711  17.997  0.00  0.00    +0.000 OA
ATOM     26  H   UNL     1       1.376  11.403  17.707  0.00  0.00    +0.000 HD
ENDBRANCH   7  25
BRANCH   1  27
ATOM     27  C   UNL     1      -2.387  11.413  18.313  0.00  0.00    +0.000 C 
BRANCH  27  29
ATOM     28  C   UNL     1      -2.522   9.934  16.296  0.00  0.00    +0.000 C 
ATOM     29  C   UNL     1      -2.688  10.124  17.612  0.00  0.00    +0.000 C 
ENDBRANCH  27  29
ENDBRANCH   1  27
TORSDOF 8
ENDMDL
MODEL 7
REMARK VINA RESULT:      -6.3      2.089      4.154
REMARK  Name = 
REMARK  13 active torsions:
REMARK  status: ('A' for Active; 'I' for Inactive)
REMARK    1  A    between atoms: C_2  and  C_3
REMARK    2  A    between atoms: C_3  and  C_4
REMARK    3  A    between atoms: C_6  and  O_7
REMARK    4  A    between atoms: O_7  and  C_8
REMARK    5  A    between atoms: C_12  and  O_13
REMARK    6  A    between atoms: C_14  and  C_15
REMARK    7  A    between atoms: C_17  and  O_18
REMARK    8  A    between atoms: O_18  and  C_19
REMARK    9  A    between atoms: C_20  and  O_21
REMARK   10  A    between atoms: O_21  and  C_22
REMARK   11  A    between atoms: C_23  and  O_24
REMARK   12  A    between atoms: O_24  and  C_25
REMARK   13  A    between atoms: C_27  and  C_28
REMARK                            x       y       z     vdW  Elec       q    Type
REMARK                         _______ _______ _______ _____ _____    ______ ____
ROOT
ATOM      1  C   UNL     1       4.548   3.123  17.405  0.00  0.00    +0.000 C 
ATOM      2  C   UNL     1       5.125   3.358  16.207  0.00  0.00    +0.000 C 
ATOM      3  C   UNL     1       5.938   4.612  15.921  0.00  0.00    +0.000 C 
ATOM      4  C   UNL     1       6.671   4.808  17.263  0.00  0.00    +0.000 C 
ATOM      5  O   UNL     1       7.845   4.571  17.511  0.00  0.00    +0.000 OA
ATOM      6  C   UNL     1       5.666   5.301  18.268  0.00  0.00    +0.000 C 
ATOM      7  C   UNL     1       4.664   4.148  18.531  0.00  0.00    +0.000 C 
ATOM      8  C   UNL     1       5.123   6.448  17.393  0.00  0.00    +0.000 C 
ATOM      9  C   UNL     1       4.964   5.839  15.964  0.00  0.00    +0.000 C 
ATOM     10  C   UNL     1       5.205   6.907  14.894  0.00  0.00    +0.000 C 
ENDROOT
BRANCH   8  11
ATOM     11  C   UNL     1       3.947   7.164  18.021  0.00  0.00    +0.000 A 
ATOM     12  C   UNL     1       3.307   6.582  19.121  0.00  0.00    +0.000 A 
ATOM     13  C   UNL     1       2.202   7.192  19.724  0.00  0.00    +0.000 A 
ATOM     14  C   UNL     1       1.690   8.398  19.200  0.00  0.00    +0.000 A 
ATOM     15  C   UNL     1       2.328   8.998  18.097  0.00  0.00    +0.000 A 
ATOM     16  C   UNL     1       3.463   8.384  17.550  0.00  0.00    +0.000 A 
BRANCH  13  17
ATOM     17  O   UNL     1       1.562   6.652  20.817  0.00  0.00    +0.000 OA
ATOM     18  C   UNL     1       1.529   5.229  20.883  0.00  0.00    +0.000 C 
ENDBRANCH  13  17
BRANCH  14  19
ATOM     19  O   UNL     1       0.545   8.858  19.810  0.00  0.00    +0.000 OA
ATOM     20  C   UNL     1       0.704   9.819  20.843  0.00  0.00    +0.000 C 
ENDBRANCH  14  19
BRANCH  15  21
ATOM     21  O   UNL     1       1.802  10.151  17.570  0.00  0.00    +0.000 OA
ATOM     22  C   UNL     1       2.334  11.396  18.012  0.00  0.00    +0.000 C 
ENDBRANCH  15  21
ENDBRANCH   8  11
BRANCH   3  23
ATOM     23  O   UNL     1       6.580   4.526  14.681  0.00  0.00    +0.000 OA
ATOM     24  C   UNL     1       5.950   3.701  13.712  0.00  0.00    +0.000 C 
ENDBRANCH   3  23
BRANCH   7  25
ATOM     25  O   UNL     1       5.053   3.483  19.731  0.00  0.00    +0.000 OA
ATOM     26  H   UNL     1       4.866   2.535  19.631  0.00  0.00    +0.000 HD
ENDBRANCH   7  25
BRANCH   1  27
ATOM     27  C   UNL     1       3.800   1.840  17.667  0.00  0.00    +0.000 C 
BRANCH  27  29
ATOM     28  C   UNL     1       1.715   2.036  19.042  0.00  0.00    +0.000 C 
ATOM     29  C   UNL     1       2.331   2.066  17.853  0.00  0.00    +0.000 C 
ENDBRANCH  27  29
ENDBRANCH   1  27
TORSDOF 8
ENDMDL
MODEL 8
REMARK VINA RESULT:      -6.2      4.233      8.154
REMARK  Name = 
REMARK  13 active torsions:
REMARK  status: ('A' for Active; 'I' for Inactive)
REMARK    1  A    between atoms: C_2  and  C_3
REMARK    2  A    between atoms: C_3  and  C_4
REMARK    3  A    between atoms: C_6  and  O_7
REMARK    4  A    between atoms: O_7  and  C_8
REMARK    5  A    between atoms: C_12  and  O_13
REMARK    6  A    between atoms: C_14  and  C_15
REMARK    7  A    between atoms: C_17  and  O_18
REMARK    8  A    between atoms: O_18  and  C_19
REMARK    9  A    between atoms: C_20  and  O_21
REMARK   10  A    between atoms: O_21  and  C_22
REMARK   11  A    between atoms: C_23  and  O_24
REMARK   12  A    between atoms: O_24  and  C_25
REMARK   13  A    between atoms: C_27  and  C_28
REMARK                            x       y       z     vdW  Elec       q    Type
REMARK                         _______ _______ _______ _____ _____    ______ ____
ROOT
ATOM      1  C   UNL     1       0.548  11.012  18.934  0.00  0.00    +0.000 C 
ATOM      2  C   UNL     1       1.106  12.158  18.492  0.00  0.00    +0.000 C 
ATOM      3  C   UNL     1       1.035  13.459  19.278  0.00  0.00    +0.000 C 
ATOM      4  C   UNL     1       1.193  12.948  20.724  0.00  0.00    +0.000 C 
ATOM      5  O   UNL     1       2.184  13.022  21.436  0.00  0.00    +0.000 OA
ATOM      6  C   UNL     1      -0.092  12.269  21.113  0.00  0.00    +0.000 C 
ATOM      7  C   UNL     1      -0.223  10.986  20.252  0.00  0.00    +0.000 C 
ATOM      8  C   UNL     1      -1.013  13.431  20.693  0.00  0.00    +0.000 C 
ATOM      9  C   UNL     1      -0.462  13.920  19.316  0.00  0.00    +0.000 C 
ATOM     10  C   UNL     1      -0.691  15.425  19.148  0.00  0.00    +0.000 C 
ENDROOT
BRANCH   8  11
ATOM     11  C   UNL     1      -2.484  13.094  20.816  0.00  0.00    +0.000 A 
ATOM     12  C   UNL     1      -3.055  13.007  22.090  0.00  0.00    +0.000 A 
ATOM     13  C   UNL     1      -4.404  12.677  22.259  0.00  0.00    +0.000 A 
ATOM     14  C   UNL     1      -5.206  12.388  21.135  0.00  0.00    +0.000 A 
ATOM     15  C   UNL     1      -4.645  12.478  19.846  0.00  0.00    +0.000 A 
ATOM     16  C   UNL     1      -3.302  12.861  19.712  0.00  0.00    +0.000 A 
BRANCH  13  17
ATOM     17  O   UNL     1      -4.999  12.600  23.499  0.00  0.00    +0.000 OA
ATOM     18  C   UNL     1      -4.114  12.519  24.613  0.00  0.00    +0.000 C 
ENDBRANCH  13  17
BRANCH  14  19
ATOM     19  O   UNL     1      -6.489  11.981  21.422  0.00  0.00    +0.000 OA
ATOM     20  C   UNL     1      -7.524  12.938  21.246  0.00  0.00    +0.000 C 
ENDBRANCH  14  19
BRANCH  15  21
ATOM     21  O   UNL     1      -5.420  12.159  18.759  0.00  0.00    +0.000 OA
ATOM     22  C   UNL     1      -5.316  10.844  18.222  0.00  0.00    +0.000 C 
ENDBRANCH  15  21
ENDBRANCH   8  11
BRANCH   3  23
ATOM     23  O   UNL     1       1.847  14.443  18.702  0.00  0.00    +0.000 OA
ATOM     24  C   UNL     1       3.074  13.989  18.148  0.00  0.00    +0.000 C 
ENDBRANCH   3  23
BRANCH   7  25
ATOM     25  O   UNL     1       0.219   9.878  21.033  0.00  0.00    +0.000 OA
ATOM     26  H   UNL     1      -0.275   9.090  20.754  0.00  0.00    +0.000 HD
ENDBRANCH   7  25
BRANCH   1  27
ATOM     27  C   UNL     1       0.691   9.728  18.155  0.00  0.00    +0.000 C 
BRANCH  27  29
ATOM     28  C   UNL     1       2.558   8.101  17.772  0.00  0.00    +0.000 C 
ATOM     29  C   UNL     1       2.126   9.360  17.925  0.00  0.00    +0.000 C 
ENDBRANCH  27  29
ENDBRANCH   1  27
TORSDOF 8
ENDMDL
MODEL 9
REMARK VINA RESULT:      -6.2      6.656      8.994
REMARK  Name = 
REMARK  13 active torsions:
REMARK  status: ('A' for Active; 'I' for Inactive)
REMARK    1  A    between atoms: C_2  and  C_3
REMARK    2  A    between atoms: C_3  and  C_4
REMARK    3  A    between atoms: C_6  and  O_7
REMARK    4  A    between atoms: O_7  and  C_8
REMARK    5  A    between atoms: C_12  and  O_13
REMARK    6  A    between atoms: C_14  and  C_15
REMARK    7  A    between atoms: C_17  and  O_18
REMARK    8  A    between atoms: O_18  and  C_19
REMARK    9  A    between atoms: C_20  and  O_21
REMARK   10  A    between atoms: O_21  and  C_22
REMARK   11  A    between atoms: C_23  and  O_24
REMARK   12  A    between atoms: O_24  and  C_25
REMARK   13  A    between atoms: C_27  and  C_28
REMARK                            x       y       z     vdW  Elec       q    Type
REMARK                         _______ _______ _______ _____ _____    ______ ____
ROOT
ATOM      1  C   UNL     1       9.301  11.630  19.420  0.00  0.00    +0.000 C 
ATOM      2  C   UNL     1       9.826  12.386  18.432  0.00  0.00    +0.000 C 
ATOM      3  C   UNL     1       9.976  13.895  18.549  0.00  0.00    +0.000 C 
ATOM      4  C   UNL     1      10.377  14.045  20.030  0.00  0.00    +0.000 C 
ATOM      5  O   UNL     1      11.488  14.289  20.479  0.00  0.00    +0.000 OA
ATOM      6  C   UNL     1       9.155  13.781  20.865  0.00  0.00    +0.000 C 
ATOM      7  C   UNL     1       8.794  12.281  20.704  0.00  0.00    +0.000 C 
ATOM      8  C   UNL     1       8.235  14.757  20.106  0.00  0.00    +0.000 C 
ATOM      9  C   UNL     1       8.540  14.522  18.593  0.00  0.00    +0.000 C 
ATOM     10  C   UNL     1       8.365  15.820  17.801  0.00  0.00    +0.000 C 
ENDROOT
BRANCH   8  11
ATOM     11  C   UNL     1       6.799  14.705  20.581  0.00  0.00    +0.000 A 
ATOM     12  C   UNL     1       6.538  14.397  21.922  0.00  0.00    +0.000 A 
ATOM     13  C   UNL     1       5.228  14.315  22.405  0.00  0.00    +0.000 A 
ATOM     14  C   UNL     1       4.139  14.509  21.529  0.00  0.00    +0.000 A 
ATOM     15  C   UNL     1       4.387  14.826  20.179  0.00  0.00    +0.000 A 
ATOM     16  C   UNL     1       5.713  14.949  19.740  0.00  0.00    +0.000 A 
BRANCH  13  17
ATOM     17  O   UNL     1       4.941  14.031  23.722  0.00  0.00    +0.000 OA
ATOM     18  C   UNL     1       5.498  14.915  24.689  0.00  0.00    +0.000 C 
ENDBRANCH  13  17
BRANCH  14  19
ATOM     19  O   UNL     1       2.898  14.310  22.089  0.00  0.00    +0.000 OA
ATOM     20  C   UNL     1       2.069  15.453  22.246  0.00  0.00    +0.000 C 
ENDBRANCH  14  19
BRANCH  15  21
ATOM     21  O   UNL     1       3.324  14.975  19.325  0.00  0.00    +0.000 OA
ATOM     22  C   UNL     1       3.325  16.091  18.440  0.00  0.00    +0.000 C 
ENDBRANCH  15  21
ENDBRANCH   8  11
BRANCH   3  23
ATOM     23  O   UNL     1      10.715  14.414  17.480  0.00  0.00    +0.000 OA
ATOM     24  C   UNL     1      11.729  13.567  16.958  0.00  0.00    +0.000 C 
ENDBRANCH   3  23
BRANCH   7  25
ATOM     25  O   UNL     1       9.316  11.573  21.827  0.00  0.00    +0.000 OA
ATOM     26  H   UNL     1       9.994  12.126  22.250  0.00  0.00    +0.000 HD
ENDBRANCH   7  25
BRANCH   1  27
ATOM     27  C   UNL     1       9.224  10.129  19.290  0.00  0.00    +0.000 C 
BRANCH  27  29
ATOM     28  C   UNL     1       8.006   8.466  17.866  0.00  0.00    +0.000 C 
ATOM     29  C   UNL     1       8.484   9.702  18.059  0.00  0.00    +0.000 C 
ENDBRANCH  27  29
ENDBRANCH   1  27
TORSDOF 8
ENDMDL
