MODEL 1
REMARK VINA RESULT:      -7.9      0.000      0.000
REMARK  Name = 
REMARK  6 active torsions:
REMARK  status: ('A' for Active; 'I' for Inactive)
REMARK    1  A    between atoms: C_1  and  N_2
REMARK    2  A    between atoms: N_2  and  C_3
REMARK    3  A    between atoms: C_3  and  C_4
REMARK    4  A    between atoms: C_4  and  N_5
REMARK    5  A    between atoms: C_12  and  C_13
REMARK    6  A    between atoms: C_18  and  C_19
REMARK                            x       y       z     vdW  Elec       q    Type
REMARK                         _______ _______ _______ _____ _____    ______ ____
ROOT
ATOM      1  C   UNL     1       2.672   6.124  18.713  0.00  0.00    +0.000 C 
ATOM      2  N   UNL     1       3.350   5.124  17.897  0.00  0.00    +0.000 N 
ATOM      3  C   UNL     1       4.517   5.469  17.224  0.00  0.00    +0.000 A 
ATOM      4  C   UNL     1       5.402   6.381  17.774  0.00  0.00    +0.000 A 
ATOM      5  C   UNL     1       6.567   6.665  17.086  0.00  0.00    +0.000 A 
ATOM      6  N   UNL     1       6.837   6.095  15.891  0.00  0.00    +0.000 NA
ATOM      7  C   UNL     1       5.936   5.223  15.410  0.00  0.00    +0.000 A 
ATOM      8  N   UNL     1       4.804   4.875  16.051  0.00  0.00    +0.000 NA
ENDROOT
BRANCH   7   9
ATOM      9  C   UNL     1       6.215   4.638  14.091  0.00  0.00    +0.000 A 
ATOM     10  C   UNL     1       5.367   3.683  13.502  0.00  0.00    +0.000 A 
ATOM     11  C   UNL     1       5.664   3.129  12.256  0.00  0.00    +0.000 A 
ATOM     12  C   UNL     1       6.817   3.545  11.616  0.00  0.00    +0.000 A 
ATOM     13  N   UNL     1       7.665   4.458  12.131  0.00  0.00    +0.000 NA
ATOM     14  C   UNL     1       7.345   4.975  13.349  0.00  0.00    +0.000 A 
ENDBRANCH   7   9
BRANCH   5  15
ATOM     15  C   UNL     1       7.580   7.624  17.688  0.00  0.00    +0.000 C 
ATOM     16  F   UNL     1       8.598   7.937  16.832  0.00  0.00    +0.000 F 
ATOM     17  F   UNL     1       7.030   8.818  18.049  0.00  0.00    +0.000 F 
ATOM     18  F   UNL     1       8.184   7.130  18.804  0.00  0.00    +0.000 F 
ENDBRANCH   5  15
BRANCH   2  19
ATOM     19  C   UNL     1       2.554   3.990  17.391  0.00  0.00    +0.000 C 
BRANCH  19  20
ATOM     20  C   UNL     1       2.942   2.708  18.133  0.00  0.00    +0.000 C 
BRANCH  20  21
ATOM     21  N   UNL     1       2.499   2.690  19.512  0.00  0.00    +0.000 N 
ATOM     22  C   UNL     1       3.292   2.626  20.622  0.00  0.00    +0.000 A 
ATOM     23  C   UNL     1       2.450   2.763  21.701  0.00  0.00    +0.000 A 
ATOM     24  C   UNL     1       1.169   2.899  21.137  0.00  0.00    +0.000 A 
ATOM     25  N   UNL     1       1.192   2.855  19.802  0.00  0.00    +0.000 NA
ENDBRANCH  20  21
ENDBRANCH  19  20
ENDBRANCH   2  19
TORSDOF 5
ENDMDL
MODEL 2
REMARK VINA RESULT:      -7.8      4.148      6.036
REMARK  Name = 
REMARK  6 active torsions:
REMARK  status: ('A' for Active; 'I' for Inactive)
REMARK    1  A    between atoms: C_1  and  N_2
REMARK    2  A    between atoms: N_2  and  C_3
REMARK    3  A    between atoms: C_3  and  C_4
REMARK    4  A    between atoms: C_4  and  N_5
REMARK    5  A    between atoms: C_12  and  C_13
REMARK    6  A    between atoms: C_18  and  C_19
REMARK                            x       y       z     vdW  Elec       q    Type
REMARK                         _______ _______ _______ _____ _____    ______ ____
ROOT
ATOM      1  C   UNL     1       1.498   8.163  20.770  0.00  0.00    +0.000 C 
ATOM      2  N   UNL     1       1.866   7.723  19.430  0.00  0.00    +0.000 N 
ATOM      3  C   UNL     1       2.559   6.528  19.270  0.00  0.00    +0.000 A 
ATOM      4  C   UNL     1       2.329   5.463  20.124  0.00  0.00    +0.000 A 
ATOM      5  C   UNL     1       3.014   4.282  19.903  0.00  0.00    +0.000 A 
ATOM      6  N   UNL     1       3.910   4.164  18.899  0.00  0.00    +0.000 NA
ATOM      7  C   UNL     1       4.091   5.235  18.109  0.00  0.00    +0.000 A 
ATOM      8  N   UNL     1       3.425   6.398  18.248  0.00  0.00    +0.000 NA
ENDROOT
BRANCH   7   9
ATOM      9  C   UNL     1       5.097   5.115  17.045  0.00  0.00    +0.000 A 
ATOM     10  C   UNL     1       4.984   4.166  16.013  0.00  0.00    +0.000 A 
ATOM     11  C   UNL     1       5.963   4.060  15.024  0.00  0.00    +0.000 A 
ATOM     12  C   UNL     1       7.048   4.915  15.087  0.00  0.00    +0.000 A 
ATOM     13  N   UNL     1       7.207   5.845  16.050  0.00  0.00    +0.000 NA
ATOM     14  C   UNL     1       6.235   5.918  17.000  0.00  0.00    +0.000 A 
ENDBRANCH   7   9
BRANCH   5  15
ATOM     15  C   UNL     1       2.746   3.080  20.794  0.00  0.00    +0.000 C 
ATOM     16  F   UNL     1       2.314   3.423  22.044  0.00  0.00    +0.000 F 
ATOM     17  F   UNL     1       1.785   2.254  20.293  0.00  0.00    +0.000 F 
ATOM     18  F   UNL     1       3.850   2.306  20.990  0.00  0.00    +0.000 F 
ENDBRANCH   5  15
BRANCH   2  19
ATOM     19  C   UNL     1       1.970   8.745  18.372  0.00  0.00    +0.000 C 
BRANCH  19  20
ATOM     20  C   UNL     1       1.379  10.068  18.864  0.00  0.00    +0.000 C 
BRANCH  20  21
ATOM     21  N   UNL     1      -0.025  10.221  18.542  0.00  0.00    +0.000 N 
ATOM     22  C   UNL     1      -0.919  11.046  19.164  0.00  0.00    +0.000 A 
ATOM     23  C   UNL     1      -2.087  10.955  18.445  0.00  0.00    +0.000 A 
ATOM     24  C   UNL     1      -1.799  10.047  17.411  0.00  0.00    +0.000 A 
ATOM     25  N   UNL     1      -0.542   9.595  17.465  0.00  0.00    +0.000 NA
ENDBRANCH  20  21
ENDBRANCH  19  20
ENDBRANCH   2  19
TORSDOF 5
ENDMDL
MODEL 3
REMARK VINA RESULT:      -7.8      4.533      6.445
REMARK  Name = 
REMARK  6 active torsions:
REMARK  status: ('A' for Active; 'I' for Inactive)
REMARK    1  A    between atoms: C_1  and  N_2
REMARK    2  A    between atoms: N_2  and  C_3
REMARK    3  A    between atoms: C_3  and  C_4
REMARK    4  A    between atoms: C_4  and  N_5
REMARK    5  A    between atoms: C_12  and  C_13
REMARK    6  A    between atoms: C_18  and  C_19
REMARK                            x       y       z     vdW  Elec       q    Type
REMARK                         _______ _______ _______ _____ _____    ______ ____
ROOT
ATOM      1  C   UNL     1       1.324   8.604  21.314  0.00  0.00    +0.000 C 
ATOM      2  N   UNL     1       1.534   8.199  19.929  0.00  0.00    +0.000 N 
ATOM      3  C   UNL     1       2.101   6.958  19.660  0.00  0.00    +0.000 A 
ATOM      4  C   UNL     1       1.853   5.877  20.488  0.00  0.00    +0.000 A 
ATOM      5  C   UNL     1       2.409   4.654  20.159  0.00  0.00    +0.000 A 
ATOM      6  N   UNL     1       3.200   4.508  19.073  0.00  0.00    +0.000 NA
ATOM      7  C   UNL     1       3.406   5.597  18.314  0.00  0.00    +0.000 A 
ATOM      8  N   UNL     1       2.860   6.804  18.559  0.00  0.00    +0.000 NA
ENDROOT
BRANCH   7   9
ATOM      9  C   UNL     1       4.300   5.442  17.158  0.00  0.00    +0.000 A 
ATOM     10  C   UNL     1       4.681   4.179  16.671  0.00  0.00    +0.000 A 
ATOM     11  C   UNL     1       5.547   4.059  15.583  0.00  0.00    +0.000 A 
ATOM     12  C   UNL     1       6.020   5.219  14.997  0.00  0.00    +0.000 A 
ATOM     13  N   UNL     1       5.688   6.455  15.419  0.00  0.00    +0.000 NA
ATOM     14  C   UNL     1       4.843   6.534  16.485  0.00  0.00    +0.000 A 
ENDBRANCH   7   9
BRANCH   5  15
ATOM     15  C   UNL     1       2.114   3.438  21.022  0.00  0.00    +0.000 C 
ATOM     16  F   UNL     1       2.879   2.353  20.700  0.00  0.00    +0.000 F 
ATOM     17  F   UNL     1       2.341   3.662  22.347  0.00  0.00    +0.000 F 
ATOM     18  F   UNL     1       0.823   3.015  20.922  0.00  0.00    +0.000 F 
ENDBRANCH   5  15
BRANCH   2  19
ATOM     19  C   UNL     1       1.636   9.257  18.907  0.00  0.00    +0.000 C 
BRANCH  19  20
ATOM     20  C   UNL     1       0.898  10.512  19.380  0.00  0.00    +0.000 C 
BRANCH  20  21
ATOM     21  N   UNL     1      -0.406  10.672  18.770  0.00  0.00    +0.000 N 
ATOM     22  C   UNL     1      -0.917   9.939  17.737  0.00  0.00    +0.000 A 
ATOM     23  C   UNL     1      -2.219  10.354  17.581  0.00  0.00    +0.000 A 
ATOM     24  C   UNL     1      -2.396  11.343  18.565  0.00  0.00    +0.000 A 
ATOM     25  N   UNL     1      -1.294  11.541  19.294  0.00  0.00    +0.000 NA
ENDBRANCH  20  21
ENDBRANCH  19  20
ENDBRANCH   2  19
TORSDOF 5
ENDMDL
MODEL 4
REMARK VINA RESULT:      -7.8      4.317      6.352
REMARK  Name = 
REMARK  6 active torsions:
REMARK  status: ('A' for Active; 'I' for Inactive)
REMARK    1  A    between atoms: C_1  and  N_2
REMARK    2  A    between atoms: N_2  and  C_3
REMARK    3  A    between atoms: C_3  and  C_4
REMARK    4  A    between atoms: C_4  and  N_5
REMARK    5  A    between atoms: C_12  and  C_13
REMARK    6  A    between atoms: C_18  and  C_19
REMARK                            x       y       z     vdW  Elec       q    Type
REMARK                         _______ _______ _______ _____ _____    ______ ____
ROOT
ATOM      1  C   UNL     1       1.541   8.218  20.710  0.00  0.00    +0.000 C 
ATOM      2  N   UNL     1       1.929   7.796  19.369  0.00  0.00    +0.000 N 
ATOM      3  C   UNL     1       2.559   6.569  19.196  0.00  0.00    +0.000 A 
ATOM      4  C   UNL     1       2.242   5.495  20.010  0.00  0.00    +0.000 A 
ATOM      5  C   UNL     1       2.867   4.284  19.776  0.00  0.00    +0.000 A 
ATOM      6  N   UNL     1       3.788   4.143  18.798  0.00  0.00    +0.000 NA
ATOM      7  C   UNL     1       4.055   5.224  18.047  0.00  0.00    +0.000 A 
ATOM      8  N   UNL     1       3.450   6.418  18.199  0.00  0.00    +0.000 NA
ENDROOT
BRANCH   7   9
ATOM      9  C   UNL     1       5.087   5.077  17.012  0.00  0.00    +0.000 A 
ATOM     10  C   UNL     1       5.026   4.069  16.032  0.00  0.00    +0.000 A 
ATOM     11  C   UNL     1       6.029   3.939  15.071  0.00  0.00    +0.000 A 
ATOM     12  C   UNL     1       7.087   4.830  15.109  0.00  0.00    +0.000 A 
ATOM     13  N   UNL     1       7.197   5.816  16.021  0.00  0.00    +0.000 NA
ATOM     14  C   UNL     1       6.201   5.911  16.946  0.00  0.00    +0.000 A 
ENDBRANCH   7   9
BRANCH   5  15
ATOM     15  C   UNL     1       2.502   3.074  20.622  0.00  0.00    +0.000 C 
ATOM     16  F   UNL     1       1.683   3.380  21.672  0.00  0.00    +0.000 F 
ATOM     17  F   UNL     1       1.842   2.114  19.915  0.00  0.00    +0.000 F 
ATOM     18  F   UNL     1       3.588   2.464  21.173  0.00  0.00    +0.000 F 
ENDBRANCH   5  15
BRANCH   2  19
ATOM     19  C   UNL     1       2.126   8.840  18.346  0.00  0.00    +0.000 C 
BRANCH  19  20
ATOM     20  C   UNL     1       0.963   9.834  18.384  0.00  0.00    +0.000 C 
BRANCH  20  21
ATOM     21  N   UNL     1       1.380  11.191  18.672  0.00  0.00    +0.000 N 
ATOM     22  C   UNL     1       0.918  11.989  19.679  0.00  0.00    +0.000 A 
ATOM     23  C   UNL     1       1.684  13.130  19.645  0.00  0.00    +0.000 A 
ATOM     24  C   UNL     1       2.578  12.926  18.579  0.00  0.00    +0.000 A 
ATOM     25  N   UNL     1       2.398  11.744  17.981  0.00  0.00    +0.000 NA
ENDBRANCH  20  21
ENDBRANCH  19  20
ENDBRANCH   2  19
TORSDOF 5
ENDMDL
MODEL 5
REMARK VINA RESULT:      -7.8      1.149      1.556
REMARK  Name = 
REMARK  6 active torsions:
REMARK  status: ('A' for Active; 'I' for Inactive)
REMARK    1  A    between atoms: C_1  and  N_2
REMARK    2  A    between atoms: N_2  and  C_3
REMARK    3  A    between atoms: C_3  and  C_4
REMARK    4  A    between atoms: C_4  and  N_5
REMARK    5  A    between atoms: C_12  and  C_13
REMARK    6  A    between atoms: C_18  and  C_19
REMARK                            x       y       z     vdW  Elec       q    Type
REMARK                         _______ _______ _______ _____ _____    ______ ____
ROOT
ATOM      1  C   UNL     1       2.694   6.275  19.427  0.00  0.00    +0.000 C 
ATOM      2  N   UNL     1       3.063   5.297  18.411  0.00  0.00    +0.000 N 
ATOM      3  C   UNL     1       4.368   5.272  17.930  0.00  0.00    +0.000 A 
ATOM      4  C   UNL     1       5.429   5.586  18.761  0.00  0.00    +0.000 A 
ATOM      5  C   UNL     1       6.712   5.511  18.250  0.00  0.00    +0.000 A 
ATOM      6  N   UNL     1       6.938   5.167  16.963  0.00  0.00    +0.000 NA
ATOM      7  C   UNL     1       5.866   4.879  16.207  0.00  0.00    +0.000 A 
ATOM      8  N   UNL     1       4.597   4.894  16.659  0.00  0.00    +0.000 NA
ENDROOT
BRANCH   7   9
ATOM      9  C   UNL     1       6.115   4.545  14.798  0.00  0.00    +0.000 A 
ATOM     10  C   UNL     1       5.260   3.702  14.066  0.00  0.00    +0.000 A 
ATOM     11  C   UNL     1       5.529   3.386  12.734  0.00  0.00    +0.000 A 
ATOM     12  C   UNL     1       6.661   3.927  12.152  0.00  0.00    +0.000 A 
ATOM     13  N   UNL     1       7.515   4.743  12.803  0.00  0.00    +0.000 NA
ATOM     14  C   UNL     1       7.223   5.027  14.102  0.00  0.00    +0.000 A 
ENDBRANCH   7   9
BRANCH   5  15
ATOM     15  C   UNL     1       7.899   5.803  19.152  0.00  0.00    +0.000 C 
ATOM     16  F   UNL     1       7.570   5.843  20.478  0.00  0.00    +0.000 F 
ATOM     17  F   UNL     1       8.883   4.865  19.051  0.00  0.00    +0.000 F 
ATOM     18  F   UNL     1       8.487   7.003  18.887  0.00  0.00    +0.000 F 
ENDBRANCH   5  15
BRANCH   2  19
ATOM     19  C   UNL     1       1.990   4.739  17.566  0.00  0.00    +0.000 C 
BRANCH  19  20
ATOM     20  C   UNL     1       1.785   3.259  17.893  0.00  0.00    +0.000 C 
BRANCH  20  21
ATOM     21  N   UNL     1       1.858   2.971  19.311  0.00  0.00    +0.000 N 
ATOM     22  C   UNL     1       2.947   2.508  19.994  0.00  0.00    +0.000 A 
ATOM     23  C   UNL     1       2.593   2.507  21.322  0.00  0.00    +0.000 A 
ATOM     24  C   UNL     1       1.270   2.983  21.338  0.00  0.00    +0.000 A 
ATOM     25  N   UNL     1       0.816   3.268  20.114  0.00  0.00    +0.000 NA
ENDBRANCH  20  21
ENDBRANCH  19  20
ENDBRANCH   2  19
TORSDOF 5
ENDMDL
MODEL 6
REMARK VINA RESULT:      -7.7      0.671      1.432
REMARK  Name = 
REMARK  6 active torsions:
REMARK  status: ('A' for Active; 'I' for Inactive)
REMARK    1  A    between atoms: C_1  and  N_2
REMARK    2  A    between atoms: N_2  and  C_3
REMARK    3  A    between atoms: C_3  and  C_4
REMARK    4  A    between atoms: C_4  and  N_5
REMARK    5  A    between atoms: C_12  and  C_13
REMARK    6  A    between atoms: C_18  and  C_19
REMARK                            x       y       z     vdW  Elec       q    Type
REMARK                         _______ _______ _______ _____ _____    ______ ____
ROOT
ATOM      1  C   UNL     1       2.639   5.996  18.634  0.00  0.00    +0.000 C 
ATOM      2  N   UNL     1       3.345   5.007  17.828  0.00  0.00    +0.000 N 
ATOM      3  C   UNL     1       4.512   5.373  17.167  0.00  0.00    +0.000 A 
ATOM      4  C   UNL     1       5.373   6.304  17.724  0.00  0.00    +0.000 A 
ATOM      5  C   UNL     1       6.540   6.609  17.049  0.00  0.00    +0.000 A 
ATOM      6  N   UNL     1       6.835   6.042  15.858  0.00  0.00    +0.000 NA
ATOM      7  C   UNL     1       5.956   5.151  15.370  0.00  0.00    +0.000 A 
ATOM      8  N   UNL     1       4.824   4.782  15.999  0.00  0.00    +0.000 NA
ENDROOT
BRANCH   7   9
ATOM      9  C   UNL     1       6.261   4.568  14.056  0.00  0.00    +0.000 A 
ATOM     10  C   UNL     1       7.368   4.982  13.292  0.00  0.00    +0.000 A 
ATOM     11  C   UNL     1       7.625   4.425  12.039  0.00  0.00    +0.000 A 
ATOM     12  C   UNL     1       6.761   3.454  11.568  0.00  0.00    +0.000 A 
ATOM     13  N   UNL     1       5.687   3.017  12.255  0.00  0.00    +0.000 NA
ATOM     14  C   UNL     1       5.465   3.584  13.473  0.00  0.00    +0.000 A 
ENDBRANCH   7   9
BRANCH   5  15
ATOM     15  C   UNL     1       7.527   7.590  17.659  0.00  0.00    +0.000 C 
ATOM     16  F   UNL     1       8.143   7.106  18.779  0.00  0.00    +0.000 F 
ATOM     17  F   UNL     1       8.536   7.925  16.807  0.00  0.00    +0.000 F 
ATOM     18  F   UNL     1       6.947   8.761  18.042  0.00  0.00    +0.000 F 
ENDBRANCH   5  15
BRANCH   2  19
ATOM     19  C   UNL     1       2.578   3.856  17.317  0.00  0.00    +0.000 C 
BRANCH  19  20
ATOM     20  C   UNL     1       2.897   2.608  18.143  0.00  0.00    +0.000 C 
BRANCH  20  21
ATOM     21  N   UNL     1       2.480   2.716  19.526  0.00  0.00    +0.000 N 
ATOM     22  C   UNL     1       1.197   2.772  19.989  0.00  0.00    +0.000 A 
ATOM     23  C   UNL     1       1.283   2.741  21.360  0.00  0.00    +0.000 A 
ATOM     24  C   UNL     1       2.661   2.670  21.628  0.00  0.00    +0.000 A 
ATOM     25  N   UNL     1       3.397   2.654  20.513  0.00  0.00    +0.000 NA
ENDBRANCH  20  21
ENDBRANCH  19  20
ENDBRANCH   2  19
TORSDOF 5
ENDMDL
MODEL 7
REMARK VINA RESULT:      -7.7      4.240      6.006
REMARK  Name = 
REMARK  6 active torsions:
REMARK  status: ('A' for Active; 'I' for Inactive)
REMARK    1  A    between atoms: C_1  and  N_2
REMARK    2  A    between atoms: N_2  and  C_3
REMARK    3  A    between atoms: C_3  and  C_4
REMARK    4  A    between atoms: C_4  and  N_5
REMARK    5  A    between atoms: C_12  and  C_13
REMARK    6  A    between atoms: C_18  and  C_19
REMARK                            x       y       z     vdW  Elec       q    Type
REMARK                         _______ _______ _______ _____ _____    ______ ____
ROOT
ATOM      1  C   UNL     1       1.603   7.637  20.684  0.00  0.00    +0.000 C 
ATOM      2  N   UNL     1       2.055   7.477  19.307  0.00  0.00    +0.000 N 
ATOM      3  C   UNL     1       2.544   6.244  18.889  0.00  0.00    +0.000 A 
ATOM      4  C   UNL     1       2.026   5.070  19.408  0.00  0.00    +0.000 A 
ATOM      5  C   UNL     1       2.517   3.868  18.935  0.00  0.00    +0.000 A 
ATOM      6  N   UNL     1       3.499   3.823  18.007  0.00  0.00    +0.000 NA
ATOM      7  C   UNL     1       3.962   4.997  17.547  0.00  0.00    +0.000 A 
ATOM      8  N   UNL     1       3.496   6.199  17.939  0.00  0.00    +0.000 NA
ENDROOT
BRANCH   7   9
ATOM      9  C   UNL     1       5.057   4.944  16.569  0.00  0.00    +0.000 A 
ATOM     10  C   UNL     1       5.085   3.999  15.527  0.00  0.00    +0.000 A 
ATOM     11  C   UNL     1       6.146   3.958  14.622  0.00  0.00    +0.000 A 
ATOM     12  C   UNL     1       7.172   4.872  14.779  0.00  0.00    +0.000 A 
ATOM     13  N   UNL     1       7.198   5.800  15.756  0.00  0.00    +0.000 NA
ATOM     14  C   UNL     1       6.147   5.810  16.623  0.00  0.00    +0.000 A 
ENDBRANCH   7   9
BRANCH   5  15
ATOM     15  C   UNL     1       1.934   2.562  19.450  0.00  0.00    +0.000 C 
ATOM     16  F   UNL     1       2.597   1.459  18.991  0.00  0.00    +0.000 F 
ATOM     17  F   UNL     1       1.969   2.466  20.809  0.00  0.00    +0.000 F 
ATOM     18  F   UNL     1       0.634   2.381  19.088  0.00  0.00    +0.000 F 
ENDBRANCH   5  15
BRANCH   2  19
ATOM     19  C   UNL     1       2.468   8.686  18.571  0.00  0.00    +0.000 C 
BRANCH  19  20
ATOM     20  C   UNL     1       1.308   9.196  17.713  0.00  0.00    +0.000 C 
BRANCH  20  21
ATOM     21  N   UNL     1       0.448  10.129  18.411  0.00  0.00    +0.000 N 
ATOM     22  C   UNL     1       0.840  11.094  19.294  0.00  0.00    +0.000 A 
ATOM     23  C   UNL     1      -0.291  11.813  19.602  0.00  0.00    +0.000 A 
ATOM     24  C   UNL     1      -1.315  11.201  18.857  0.00  0.00    +0.000 A 
ATOM     25  N   UNL     1      -0.870  10.173  18.128  0.00  0.00    +0.000 NA
ENDBRANCH  20  21
ENDBRANCH  19  20
ENDBRANCH   2  19
TORSDOF 5
ENDMDL
MODEL 8
REMARK VINA RESULT:      -7.6      3.567      7.129
REMARK  Name = 
REMARK  6 active torsions:
REMARK  status: ('A' for Active; 'I' for Inactive)
REMARK    1  A    between atoms: C_1  and  N_2
REMARK    2  A    between atoms: N_2  and  C_3
REMARK    3  A    between atoms: C_3  and  C_4
REMARK    4  A    between atoms: C_4  and  N_5
REMARK    5  A    between atoms: C_12  and  C_13
REMARK    6  A    between atoms: C_18  and  C_19
REMARK                            x       y       z     vdW  Elec       q    Type
REMARK                         _______ _______ _______ _____ _____    ______ ____
ROOT
ATOM      1  C   UNL     1       4.609   2.801  16.374  0.00  0.00    +0.000 C 
ATOM      2  N   UNL     1       4.682   4.183  16.832  0.00  0.00    +0.000 N 
ATOM      3  C   UNL     1       3.877   4.595  17.888  0.00  0.00    +0.000 A 
ATOM      4  C   UNL     1       3.563   3.721  18.915  0.00  0.00    +0.000 A 
ATOM      5  C   UNL     1       2.791   4.186  19.963  0.00  0.00    +0.000 A 
ATOM      6  N   UNL     1       2.322   5.453  19.986  0.00  0.00    +0.000 NA
ATOM      7  C   UNL     1       2.658   6.249  18.957  0.00  0.00    +0.000 A 
ATOM      8  N   UNL     1       3.440   5.867  17.929  0.00  0.00    +0.000 NA
ENDROOT
BRANCH   7   9
ATOM      9  C   UNL     1       2.111   7.613  18.966  0.00  0.00    +0.000 A 
ATOM     10  C   UNL     1       2.159   8.446  17.833  0.00  0.00    +0.000 A 
ATOM     11  C   UNL     1       1.649   9.744  17.873  0.00  0.00    +0.000 A 
ATOM     12  C   UNL     1       1.095  10.190  19.059  0.00  0.00    +0.000 A 
ATOM     13  N   UNL     1       1.020   9.437  20.174  0.00  0.00    +0.000 NA
ATOM     14  C   UNL     1       1.530   8.176  20.100  0.00  0.00    +0.000 A 
ENDBRANCH   7   9
BRANCH   5  15
ATOM     15  C   UNL     1       2.471   3.264  21.128  0.00  0.00    +0.000 C 
ATOM     16  F   UNL     1       2.330   3.927  22.315  0.00  0.00    +0.000 F 
ATOM     17  F   UNL     1       1.307   2.577  20.957  0.00  0.00    +0.000 F 
ATOM     18  F   UNL     1       3.437   2.329  21.348  0.00  0.00    +0.000 F 
ENDBRANCH   5  15
BRANCH   2  19
ATOM     19  C   UNL     1       5.176   5.200  15.884  0.00  0.00    +0.000 C 
BRANCH  19  20
ATOM     20  C   UNL     1       6.704   5.254  15.928  0.00  0.00    +0.000 C 
BRANCH  20  21
ATOM     21  N   UNL     1       7.217   6.055  17.020  0.00  0.00    +0.000 N 
ATOM     22  C   UNL     1       7.626   5.601  18.242  0.00  0.00    +0.000 A 
ATOM     23  C   UNL     1       8.148   6.690  18.898  0.00  0.00    +0.000 A 
ATOM     24  C   UNL     1       8.004   7.755  17.992  0.00  0.00    +0.000 A 
ATOM     25  N   UNL     1       7.437   7.374  16.844  0.00  0.00    +0.000 NA
ENDBRANCH  20  21
ENDBRANCH  19  20
ENDBRANCH   2  19
TORSDOF 5
ENDMDL
MODEL 9
REMARK VINA RESULT:      -7.6      3.549      7.638
REMARK  Name = 
REMARK  6 active torsions:
REMARK  status: ('A' for Active; 'I' for Inactive)
REMARK    1  A    between atoms: C_1  and  N_2
REMARK    2  A    between atoms: N_2  and  C_3
REMARK    3  A    between atoms: C_3  and  C_4
REMARK    4  A    between atoms: C_4  and  N_5
REMARK    5  A    between atoms: C_12  and  C_13
REMARK    6  A    between atoms: C_18  and  C_19
REMARK                            x       y       z     vdW  Elec       q    Type
REMARK                         _______ _______ _______ _____ _____    ______ ____
ROOT
ATOM      1  C   UNL     1       4.550   2.968  16.631  0.00  0.00    +0.000 C 
ATOM      2  N   UNL     1       4.636   4.347  17.096  0.00  0.00    +0.000 N 
ATOM      3  C   UNL     1       3.791   4.777  18.114  0.00  0.00    +0.000 A 
ATOM      4  C   UNL     1       3.405   3.910  19.121  0.00  0.00    +0.000 A 
ATOM      5  C   UNL     1       2.595   4.392  20.132  0.00  0.00    +0.000 A 
ATOM      6  N   UNL     1       2.159   5.671  20.136  0.00  0.00    +0.000 NA
ATOM      7  C   UNL     1       2.565   6.461  19.128  0.00  0.00    +0.000 A 
ATOM      8  N   UNL     1       3.386   6.060  18.138  0.00  0.00    +0.000 NA
ENDROOT
BRANCH   7   9
ATOM      9  C   UNL     1       2.054   7.838  19.115  0.00  0.00    +0.000 A 
ATOM     10  C   UNL     1       2.168   8.668  17.984  0.00  0.00    +0.000 A 
ATOM     11  C   UNL     1       1.691   9.979  18.004  0.00  0.00    +0.000 A 
ATOM     12  C   UNL     1       1.103  10.441  19.167  0.00  0.00    +0.000 A 
ATOM     13  N   UNL     1       0.964   9.691  20.279  0.00  0.00    +0.000 NA
ATOM     14  C   UNL     1       1.443   8.418  20.225  0.00  0.00    +0.000 A 
ENDBRANCH   7   9
BRANCH   5  15
ATOM     15  C   UNL     1       2.195   3.476  21.277  0.00  0.00    +0.000 C 
ATOM     16  F   UNL     1       0.887   3.085  21.221  0.00  0.00    +0.000 F 
ATOM     17  F   UNL     1       2.918   2.321  21.308  0.00  0.00    +0.000 F 
ATOM     18  F   UNL     1       2.349   4.055  22.500  0.00  0.00    +0.000 F 
ENDBRANCH   5  15
BRANCH   2  19
ATOM     19  C   UNL     1       5.202   5.353  16.178  0.00  0.00    +0.000 C 
BRANCH  19  20
ATOM     20  C   UNL     1       6.669   5.028  15.889  0.00  0.00    +0.000 C 
BRANCH  20  21
ATOM     21  N   UNL     1       6.932   4.770  14.488  0.00  0.00    +0.000 N 
ATOM     22  C   UNL     1       6.272   3.885  13.684  0.00  0.00    +0.000 A 
ATOM     23  C   UNL     1       6.772   4.073  12.417  0.00  0.00    +0.000 A 
ATOM     24  C   UNL     1       7.731   5.091  12.561  0.00  0.00    +0.000 A 
ATOM     25  N   UNL     1       7.833   5.520  13.822  0.00  0.00    +0.000 NA
ENDBRANCH  20  21
ENDBRANCH  19  20
ENDBRANCH   2  19
TORSDOF 5
ENDMDL
