MODEL 1
REMARK VINA RESULT:      -7.3      0.000      0.000
REMARK  Name = 
REMARK  8 active torsions:
REMARK  status: ('A' for Active; 'I' for Inactive)
REMARK    1  A    between atoms: C_1  and  O_2
REMARK    2  A    between atoms: O_2  and  C_3
REMARK    3  A    between atoms: C_8  and  O_9
REMARK    4  A    between atoms: O_9  and  C_10
REMARK    5  A    between atoms: C_13  and  C_15
REMARK    6  A    between atoms: C_15  and  S_16
REMARK    7  A    between atoms: S_16  and  C_17
REMARK    8  A    between atoms: C_22  and  C_23
REMARK                            x       y       z     vdW  Elec       q    Type
REMARK                         _______ _______ _______ _____ _____    ______ ____
ROOT
ATOM      1  C   UNL     1       0.308  10.773  20.928  0.00  0.00    +0.000 A 
ATOM      2  C   UNL     1       0.521   9.419  21.234  0.00  0.00    +0.000 A 
ATOM      3  C   UNL     1       1.145   8.570  20.314  0.00  0.00    +0.000 A 
ATOM      4  C   UNL     1       1.536   9.067  19.068  0.00  0.00    +0.000 A 
ATOM      5  C   UNL     1       1.338  10.420  18.766  0.00  0.00    +0.000 A 
ATOM      6  C   UNL     1       0.753  11.290  19.698  0.00  0.00    +0.000 A 
ATOM      7  C   UNL     1       2.119   8.114  18.052  0.00  0.00    +0.000 C 
ATOM      8  N   UNL     1       3.011   7.114  18.645  0.00  0.00    +0.000 N 
ATOM      9  C   UNL     1       4.036   6.608  17.840  0.00  0.00    +0.000 C 
ATOM     10  O   UNL     1       4.121   6.934  16.656  0.00  0.00    +0.000 OA
ATOM     11  C   UNL     1       2.775   6.710  20.036  0.00  0.00    +0.000 C 
ATOM     12  C   UNL     1       1.402   7.115  20.596  0.00  0.00    +0.000 C 
ENDROOT
BRANCH   1  14
ATOM     13  C   UNL     1      -0.884  10.703  22.984  0.00  0.00    +0.000 C 
ATOM     14  O   UNL     1      -0.287  11.475  21.949  0.00  0.00    +0.000 OA
ENDBRANCH   1  14
BRANCH   6  15
ATOM     15  O   UNL     1       0.605  12.635  19.477  0.00  0.00    +0.000 OA
ATOM     16  C   UNL     1      -0.358  13.060  18.522  0.00  0.00    +0.000 C 
ENDBRANCH   6  15
BRANCH   9  17
ATOM     17  C   UNL     1       4.990   5.589  18.481  0.00  0.00    +0.000 C 
BRANCH  17  18
ATOM     18  S   UNL     1       4.526   3.876  18.040  0.00  0.00    +0.000 S 
BRANCH  18  19
ATOM     19  C   UNL     1       3.199   3.540  19.199  0.00  0.00    +0.000 A 
ATOM     20  C   UNL     1       3.575   3.029  20.453  0.00  0.00    +0.000 A 
ATOM     21  C   UNL     1       2.613   2.627  21.386  0.00  0.00    +0.000 A 
ATOM     22  C   UNL     1       1.263   2.724  21.071  0.00  0.00    +0.000 A 
ATOM     23  C   UNL     1       0.876   3.228  19.833  0.00  0.00    +0.000 A 
ATOM     24  C   UNL     1       1.828   3.631  18.876  0.00  0.00    +0.000 A 
ATOM     25  C   UNL     1       1.335   4.101  17.539  0.00  0.00    +0.000 C 
ENDBRANCH  18  19
ENDBRANCH  17  18
ENDBRANCH   9  17
TORSDOF 5
ENDMDL
MODEL 2
REMARK VINA RESULT:      -7.0      1.916      3.994
REMARK  Name = 
REMARK  8 active torsions:
REMARK  status: ('A' for Active; 'I' for Inactive)
REMARK    1  A    between atoms: C_1  and  O_2
REMARK    2  A    between atoms: O_2  and  C_3
REMARK    3  A    between atoms: C_8  and  O_9
REMARK    4  A    between atoms: O_9  and  C_10
REMARK    5  A    between atoms: C_13  and  C_15
REMARK    6  A    between atoms: C_15  and  S_16
REMARK    7  A    between atoms: S_16  and  C_17
REMARK    8  A    between atoms: C_22  and  C_23
REMARK                            x       y       z     vdW  Elec       q    Type
REMARK                         _______ _______ _______ _____ _____    ______ ____
ROOT
ATOM      1  C   UNL     1       0.059  10.950  19.332  0.00  0.00    +0.000 A 
ATOM      2  C   UNL     1       0.973  10.270  18.509  0.00  0.00    +0.000 A 
ATOM      3  C   UNL     1       1.580   9.088  18.945  0.00  0.00    +0.000 A 
ATOM      4  C   UNL     1       1.295   8.592  20.220  0.00  0.00    +0.000 A 
ATOM      5  C   UNL     1       0.373   9.260  21.036  0.00  0.00    +0.000 A 
ATOM      6  C   UNL     1      -0.274  10.423  20.592  0.00  0.00    +0.000 A 
ATOM      7  C   UNL     1       2.033   7.369  20.710  0.00  0.00    +0.000 C 
ATOM      8  N   UNL     1       2.231   6.360  19.667  0.00  0.00    +0.000 N 
ATOM      9  C   UNL     1       2.321   5.024  20.071  0.00  0.00    +0.000 C 
ATOM     10  O   UNL     1       2.318   4.731  21.267  0.00  0.00    +0.000 OA
ATOM     11  C   UNL     1       2.323   6.810  18.272  0.00  0.00    +0.000 C 
ATOM     12  C   UNL     1       2.559   8.318  18.101  0.00  0.00    +0.000 C 
ENDROOT
BRANCH   1  14
ATOM     13  C   UNL     1      -1.562  11.872  17.857  0.00  0.00    +0.000 C 
ATOM     14  O   UNL     1      -0.469  12.075  18.744  0.00  0.00    +0.000 OA
ENDBRANCH   1  14
BRANCH   6  15
ATOM     15  O   UNL     1      -1.235  11.071  21.323  0.00  0.00    +0.000 OA
ATOM     16  C   UNL     1      -0.818  11.973  22.339  0.00  0.00    +0.000 C 
ENDBRANCH   6  15
BRANCH   9  17
ATOM     17  C   UNL     1       2.491   3.969  18.969  0.00  0.00    +0.000 C 
BRANCH  17  18
ATOM     18  S   UNL     1       4.172   3.251  18.990  0.00  0.00    +0.000 S 
BRANCH  18  19
ATOM     19  C   UNL     1       4.996   4.196  17.706  0.00  0.00    +0.000 A 
ATOM     20  C   UNL     1       4.651   3.888  16.379  0.00  0.00    +0.000 A 
ATOM     21  C   UNL     1       5.316   4.484  15.303  0.00  0.00    +0.000 A 
ATOM     22  C   UNL     1       6.342   5.391  15.543  0.00  0.00    +0.000 A 
ATOM     23  C   UNL     1       6.695   5.705  16.852  0.00  0.00    +0.000 A 
ATOM     24  C   UNL     1       6.044   5.109  17.949  0.00  0.00    +0.000 A 
ATOM     25  C   UNL     1       6.526   5.449  19.330  0.00  0.00    +0.000 C 
ENDBRANCH  18  19
ENDBRANCH  17  18
ENDBRANCH   9  17
TORSDOF 5
ENDMDL
MODEL 3
REMARK VINA RESULT:      -6.9      1.818      3.808
REMARK  Name = 
REMARK  8 active torsions:
REMARK  status: ('A' for Active; 'I' for Inactive)
REMARK    1  A    between atoms: C_1  and  O_2
REMARK    2  A    between atoms: O_2  and  C_3
REMARK    3  A    between atoms: C_8  and  O_9
REMARK    4  A    between atoms: O_9  and  C_10
REMARK    5  A    between atoms: C_13  and  C_15
REMARK    6  A    between atoms: C_15  and  S_16
REMARK    7  A    between atoms: S_16  and  C_17
REMARK    8  A    between atoms: C_22  and  C_23
REMARK                            x       y       z     vdW  Elec       q    Type
REMARK                         _______ _______ _______ _____ _____    ______ ____
ROOT
ATOM      1  C   UNL     1      -0.022  10.958  18.921  0.00  0.00    +0.000 A 
ATOM      2  C   UNL     1       0.961  10.308  18.156  0.00  0.00    +0.000 A 
ATOM      3  C   UNL     1       1.608   9.170  18.647  0.00  0.00    +0.000 A 
ATOM      4  C   UNL     1       1.293   8.688  19.920  0.00  0.00    +0.000 A 
ATOM      5  C   UNL     1       0.302   9.325  20.678  0.00  0.00    +0.000 A 
ATOM      6  C   UNL     1      -0.383  10.442  20.179  0.00  0.00    +0.000 A 
ATOM      7  C   UNL     1       2.070   7.517  20.471  0.00  0.00    +0.000 C 
ATOM      8  N   UNL     1       2.367   6.496  19.463  0.00  0.00    +0.000 N 
ATOM      9  C   UNL     1       2.508   5.177  19.905  0.00  0.00    +0.000 C 
ATOM     10  O   UNL     1       2.466   4.911  21.106  0.00  0.00    +0.000 OA
ATOM     11  C   UNL     1       2.497   6.919  18.063  0.00  0.00    +0.000 C 
ATOM     12  C   UNL     1       2.663   8.434  17.865  0.00  0.00    +0.000 C 
ENDROOT
BRANCH   1  14
ATOM     13  C   UNL     1       0.043  13.298  18.507  0.00  0.00    +0.000 C 
ATOM     14  O   UNL     1      -0.581  12.039  18.283  0.00  0.00    +0.000 OA
ENDBRANCH   1  14
BRANCH   6  15
ATOM     15  O   UNL     1      -1.408  11.055  20.851  0.00  0.00    +0.000 OA
ATOM     16  C   UNL     1      -1.087  11.902  21.945  0.00  0.00    +0.000 C 
ENDBRANCH   6  15
BRANCH   9  17
ATOM     17  C   UNL     1       2.781   4.107  18.837  0.00  0.00    +0.000 C 
BRANCH  17  18
ATOM     18  S   UNL     1       4.382   3.273  19.126  0.00  0.00    +0.000 S 
BRANCH  18  19
ATOM     19  C   UNL     1       5.539   4.417  18.369  0.00  0.00    +0.000 A 
ATOM     20  C   UNL     1       6.322   5.189  19.243  0.00  0.00    +0.000 A 
ATOM     21  C   UNL     1       7.172   6.189  18.759  0.00  0.00    +0.000 A 
ATOM     22  C   UNL     1       7.241   6.433  17.392  0.00  0.00    +0.000 A 
ATOM     23  C   UNL     1       6.471   5.677  16.515  0.00  0.00    +0.000 A 
ATOM     24  C   UNL     1       5.603   4.671  16.982  0.00  0.00    +0.000 A 
ATOM     25  C   UNL     1       4.755   3.943  15.980  0.00  0.00    +0.000 C 
ENDBRANCH  18  19
ENDBRANCH  17  18
ENDBRANCH   9  17
TORSDOF 5
ENDMDL
MODEL 4
REMARK VINA RESULT:      -6.7      1.013      1.716
REMARK  Name = 
REMARK  8 active torsions:
REMARK  status: ('A' for Active; 'I' for Inactive)
REMARK    1  A    between atoms: C_1  and  O_2
REMARK    2  A    between atoms: O_2  and  C_3
REMARK    3  A    between atoms: C_8  and  O_9
REMARK    4  A    between atoms: O_9  and  C_10
REMARK    5  A    between atoms: C_13  and  C_15
REMARK    6  A    between atoms: C_15  and  S_16
REMARK    7  A    between atoms: S_16  and  C_17
REMARK    8  A    between atoms: C_22  and  C_23
REMARK                            x       y       z     vdW  Elec       q    Type
REMARK                         _______ _______ _______ _____ _____    ______ ____
ROOT
ATOM      1  C   UNL     1       0.714  10.877  20.284  0.00  0.00    +0.000 A 
ATOM      2  C   UNL     1       0.837   9.517  20.616  0.00  0.00    +0.000 A 
ATOM      3  C   UNL     1       1.452   8.622  19.735  0.00  0.00    +0.000 A 
ATOM      4  C   UNL     1       1.925   9.078  18.502  0.00  0.00    +0.000 A 
ATOM      5  C   UNL     1       1.817  10.436  18.176  0.00  0.00    +0.000 A 
ATOM      6  C   UNL     1       1.240  11.351  19.069  0.00  0.00    +0.000 A 
ATOM      7  C   UNL     1       2.498   8.080  17.525  0.00  0.00    +0.000 C 
ATOM      8  N   UNL     1       3.306   7.041  18.169  0.00  0.00    +0.000 N 
ATOM      9  C   UNL     1       4.335   6.467  17.417  0.00  0.00    +0.000 C 
ATOM     10  O   UNL     1       4.491   6.771  16.234  0.00  0.00    +0.000 OA
ATOM     11  C   UNL     1       2.986   6.671  19.553  0.00  0.00    +0.000 C 
ATOM     12  C   UNL     1       1.615   7.159  20.046  0.00  0.00    +0.000 C 
ENDROOT
BRANCH   1  14
ATOM     13  C   UNL     1      -1.294  11.798  21.165  0.00  0.00    +0.000 C 
ATOM     14  O   UNL     1       0.115  11.625  21.269  0.00  0.00    +0.000 OA
ENDBRANCH   1  14
BRANCH   6  15
ATOM     15  O   UNL     1       1.178  12.698  18.826  0.00  0.00    +0.000 OA
ATOM     16  C   UNL     1       2.362  13.365  18.411  0.00  0.00    +0.000 C 
ENDBRANCH   6  15
BRANCH   9  17
ATOM     17  C   UNL     1       5.202   5.406  18.112  0.00  0.00    +0.000 C 
BRANCH  17  18
ATOM     18  S   UNL     1       4.889   3.740  17.426  0.00  0.00    +0.000 S 
BRANCH  18  19
ATOM     19  C   UNL     1       3.369   3.275  18.259  0.00  0.00    +0.000 A 
ATOM     20  C   UNL     1       2.169   3.657  17.637  0.00  0.00    +0.000 A 
ATOM     21  C   UNL     1       0.934   3.444  18.258  0.00  0.00    +0.000 A 
ATOM     22  C   UNL     1       0.887   2.852  19.515  0.00  0.00    +0.000 A 
ATOM     23  C   UNL     1       2.068   2.469  20.143  0.00  0.00    +0.000 A 
ATOM     24  C   UNL     1       3.322   2.682  19.539  0.00  0.00    +0.000 A 
ATOM     25  C   UNL     1       4.554   2.301  20.308  0.00  0.00    +0.000 C 
ENDBRANCH  18  19
ENDBRANCH  17  18
ENDBRANCH   9  17
TORSDOF 5
ENDMDL
MODEL 5
REMARK VINA RESULT:      -6.5      2.898      7.634
REMARK  Name = 
REMARK  8 active torsions:
REMARK  status: ('A' for Active; 'I' for Inactive)
REMARK    1  A    between atoms: C_1  and  O_2
REMARK    2  A    between atoms: O_2  and  C_3
REMARK    3  A    between atoms: C_8  and  O_9
REMARK    4  A    between atoms: O_9  and  C_10
REMARK    5  A    between atoms: C_13  and  C_15
REMARK    6  A    between atoms: C_15  and  S_16
REMARK    7  A    between atoms: S_16  and  C_17
REMARK    8  A    between atoms: C_22  and  C_23
REMARK                            x       y       z     vdW  Elec       q    Type
REMARK                         _______ _______ _______ _____ _____    ______ ____
ROOT
ATOM      1  C   UNL     1       1.742   3.775  19.825  0.00  0.00    +0.000 A 
ATOM      2  C   UNL     1       1.518   4.861  20.688  0.00  0.00    +0.000 A 
ATOM      3  C   UNL     1       1.754   6.171  20.260  0.00  0.00    +0.000 A 
ATOM      4  C   UNL     1       2.242   6.402  18.971  0.00  0.00    +0.000 A 
ATOM      5  C   UNL     1       2.453   5.322  18.104  0.00  0.00    +0.000 A 
ATOM      6  C   UNL     1       2.179   4.007  18.508  0.00  0.00    +0.000 A 
ATOM      7  C   UNL     1       2.583   7.815  18.561  0.00  0.00    +0.000 C 
ATOM      8  N   UNL     1       1.629   8.806  19.065  0.00  0.00    +0.000 N 
ATOM      9  C   UNL     1       1.457   9.974  18.314  0.00  0.00    +0.000 C 
ATOM     10  O   UNL     1       2.148  10.184  17.317  0.00  0.00    +0.000 OA
ATOM     11  C   UNL     1       0.920   8.515  20.317  0.00  0.00    +0.000 C 
ATOM     12  C   UNL     1       1.522   7.368  21.142  0.00  0.00    +0.000 C 
ENDROOT
BRANCH   1  14
ATOM     13  C   UNL     1       1.644   2.439  21.789  0.00  0.00    +0.000 C 
ATOM     14  O   UNL     1       1.433   2.560  20.388  0.00  0.00    +0.000 OA
ENDBRANCH   1  14
BRANCH   6  15
ATOM     15  O   UNL     1       2.300   2.927  17.674  0.00  0.00    +0.000 OA
ATOM     16  C   UNL     1       3.471   2.127  17.770  0.00  0.00    +0.000 C 
ENDBRANCH   6  15
BRANCH   9  17
ATOM     17  C   UNL     1       0.428  10.991  18.828  0.00  0.00    +0.000 C 
BRANCH  17  18
ATOM     18  S   UNL     1       1.155  12.087  20.098  0.00  0.00    +0.000 S 
BRANCH  18  19
ATOM     19  C   UNL     1      -0.181  12.212  21.290  0.00  0.00    +0.000 A 
ATOM     20  C   UNL     1      -0.307  11.156  22.207  0.00  0.00    +0.000 A 
ATOM     21  C   UNL     1      -1.380  11.100  23.102  0.00  0.00    +0.000 A 
ATOM     22  C   UNL     1      -2.347  12.099  23.083  0.00  0.00    +0.000 A 
ATOM     23  C   UNL     1      -2.236  13.151  22.179  0.00  0.00    +0.000 A 
ATOM     24  C   UNL     1      -1.168  13.221  21.264  0.00  0.00    +0.000 A 
ATOM     25  C   UNL     1      -1.153  14.352  20.277  0.00  0.00    +0.000 C 
ENDBRANCH  18  19
ENDBRANCH  17  18
ENDBRANCH   9  17
TORSDOF 5
ENDMDL
MODEL 6
REMARK VINA RESULT:      -6.4      3.002      7.535
REMARK  Name = 
REMARK  8 active torsions:
REMARK  status: ('A' for Active; 'I' for Inactive)
REMARK    1  A    between atoms: C_1  and  O_2
REMARK    2  A    between atoms: O_2  and  C_3
REMARK    3  A    between atoms: C_8  and  O_9
REMARK    4  A    between atoms: O_9  and  C_10
REMARK    5  A    between atoms: C_13  and  C_15
REMARK    6  A    between atoms: C_15  and  S_16
REMARK    7  A    between atoms: S_16  and  C_17
REMARK    8  A    between atoms: C_22  and  C_23
REMARK                            x       y       z     vdW  Elec       q    Type
REMARK                         _______ _______ _______ _____ _____    ______ ____
ROOT
ATOM      1  C   UNL     1       1.496   3.898  19.812  0.00  0.00    +0.000 A 
ATOM      2  C   UNL     1       1.517   4.976  20.713  0.00  0.00    +0.000 A 
ATOM      3  C   UNL     1       1.831   6.265  20.272  0.00  0.00    +0.000 A 
ATOM      4  C   UNL     1       2.153   6.480  18.929  0.00  0.00    +0.000 A 
ATOM      5  C   UNL     1       2.118   5.409  18.027  0.00  0.00    +0.000 A 
ATOM      6  C   UNL     1       1.762   4.119  18.449  0.00  0.00    +0.000 A 
ATOM      7  C   UNL     1       2.583   7.860  18.492  0.00  0.00    +0.000 C 
ATOM      8  N   UNL     1       1.826   8.932  19.142  0.00  0.00    +0.000 N 
ATOM      9  C   UNL     1       1.677  10.132  18.439  0.00  0.00    +0.000 C 
ATOM     10  O   UNL     1       2.237  10.296  17.356  0.00  0.00    +0.000 OA
ATOM     11  C   UNL     1       1.276   8.682  20.480  0.00  0.00    +0.000 C 
ATOM     12  C   UNL     1       1.861   7.454  21.194  0.00  0.00    +0.000 C 
ENDROOT
BRANCH   1  14
ATOM     13  C   UNL     1       1.572   2.506  21.738  0.00  0.00    +0.000 C 
ATOM     14  O   UNL     1       1.139   2.707  20.398  0.00  0.00    +0.000 OA
ENDBRANCH   1  14
BRANCH   6  15
ATOM     15  O   UNL     1       1.644   3.057  17.593  0.00  0.00    +0.000 OA
ATOM     16  C   UNL     1       2.724   2.138  17.503  0.00  0.00    +0.000 C 
ENDBRANCH   6  15
BRANCH   9  17
ATOM     17  C   UNL     1       0.849  11.238  19.111  0.00  0.00    +0.000 C 
BRANCH  17  18
ATOM     18  S   UNL     1      -0.942  10.893  18.990  0.00  0.00    +0.000 S 
BRANCH  18  19
ATOM     19  C   UNL     1      -1.558  11.580  20.530  0.00  0.00    +0.000 A 
ATOM     20  C   UNL     1      -0.805  11.308  21.684  0.00  0.00    +0.000 A 
ATOM     21  C   UNL     1      -1.256  11.700  22.949  0.00  0.00    +0.000 A 
ATOM     22  C   UNL     1      -2.473  12.360  23.073  0.00  0.00    +0.000 A 
ATOM     23  C   UNL     1      -3.229  12.635  21.939  0.00  0.00    +0.000 A 
ATOM     24  C   UNL     1      -2.797  12.243  20.657  0.00  0.00    +0.000 A 
ATOM     25  C   UNL     1      -3.700  12.517  19.489  0.00  0.00    +0.000 C 
ENDBRANCH  18  19
ENDBRANCH  17  18
ENDBRANCH   9  17
TORSDOF 5
ENDMDL
MODEL 7
REMARK VINA RESULT:      -6.4      1.988      2.855
REMARK  Name = 
REMARK  8 active torsions:
REMARK  status: ('A' for Active; 'I' for Inactive)
REMARK    1  A    between atoms: C_1  and  O_2
REMARK    2  A    between atoms: O_2  and  C_3
REMARK    3  A    between atoms: C_8  and  O_9
REMARK    4  A    between atoms: O_9  and  C_10
REMARK    5  A    between atoms: C_13  and  C_15
REMARK    6  A    between atoms: C_15  and  S_16
REMARK    7  A    between atoms: S_16  and  C_17
REMARK    8  A    between atoms: C_22  and  C_23
REMARK                            x       y       z     vdW  Elec       q    Type
REMARK                         _______ _______ _______ _____ _____    ______ ____
ROOT
ATOM      1  C   UNL     1      -0.707  13.023  22.378  0.00  0.00    +0.000 A 
ATOM      2  C   UNL     1      -0.736  11.639  22.617  0.00  0.00    +0.000 A 
ATOM      3  C   UNL     1      -0.365  10.735  21.616  0.00  0.00    +0.000 A 
ATOM      4  C   UNL     1       0.012  11.212  20.358  0.00  0.00    +0.000 A 
ATOM      5  C   UNL     1       0.056  12.592  20.122  0.00  0.00    +0.000 A 
ATOM      6  C   UNL     1      -0.272  13.508  21.132  0.00  0.00    +0.000 A 
ATOM      7  C   UNL     1       0.315  10.219  19.261  0.00  0.00    +0.000 C 
ATOM      8  N   UNL     1       1.042   9.039  19.737  0.00  0.00    +0.000 N 
ATOM      9  C   UNL     1       1.881   8.389  18.826  0.00  0.00    +0.000 C 
ATOM     10  O   UNL     1       1.931   8.753  17.651  0.00  0.00    +0.000 OA
ATOM     11  C   UNL     1       0.846   8.617  21.129  0.00  0.00    +0.000 C 
ATOM     12  C   UNL     1      -0.372   9.245  21.823  0.00  0.00    +0.000 C 
ENDROOT
BRANCH   1  14
ATOM     13  C   UNL     1      -2.458  13.810  23.781  0.00  0.00    +0.000 C 
ATOM     14  O   UNL     1      -1.069  13.771  23.472  0.00  0.00    +0.000 OA
ENDBRANCH   1  14
BRANCH   6  15
ATOM     15  O   UNL     1      -0.175  14.866  20.972  0.00  0.00    +0.000 OA
ATOM     16  C   UNL     1       1.048  15.500  21.320  0.00  0.00    +0.000 C 
ENDBRANCH   6  15
BRANCH   9  17
ATOM     17  C   UNL     1       2.668   7.176  19.342  0.00  0.00    +0.000 C 
BRANCH  17  18
ATOM     18  S   UNL     1       2.520   5.754  18.203  0.00  0.00    +0.000 S 
BRANCH  18  19
ATOM     19  C   UNL     1       2.484   4.367  19.342  0.00  0.00    +0.000 A 
ATOM     20  C   UNL     1       1.266   4.124  19.998  0.00  0.00    +0.000 A 
ATOM     21  C   UNL     1       1.163   3.142  20.988  0.00  0.00    +0.000 A 
ATOM     22  C   UNL     1       2.282   2.396  21.339  0.00  0.00    +0.000 A 
ATOM     23  C   UNL     1       3.495   2.626  20.698  0.00  0.00    +0.000 A 
ATOM     24  C   UNL     1       3.623   3.616  19.705  0.00  0.00    +0.000 A 
ATOM     25  C   UNL     1       4.979   3.850  19.106  0.00  0.00    +0.000 C 
ENDBRANCH  18  19
ENDBRANCH  17  18
ENDBRANCH   9  17
TORSDOF 5
ENDMDL
MODEL 8
REMARK VINA RESULT:      -6.3      2.249      3.663
REMARK  Name = 
REMARK  8 active torsions:
REMARK  status: ('A' for Active; 'I' for Inactive)
REMARK    1  A    between atoms: C_1  and  O_2
REMARK    2  A    between atoms: O_2  and  C_3
REMARK    3  A    between atoms: C_8  and  O_9
REMARK    4  A    between atoms: O_9  and  C_10
REMARK    5  A    between atoms: C_13  and  C_15
REMARK    6  A    between atoms: C_15  and  S_16
REMARK    7  A    between atoms: S_16  and  C_17
REMARK    8  A    between atoms: C_22  and  C_23
REMARK                            x       y       z     vdW  Elec       q    Type
REMARK                         _______ _______ _______ _____ _____    ______ ____
ROOT
ATOM      1  C   UNL     1      -1.100  12.607  22.420  0.00  0.00    +0.000 A 
ATOM      2  C   UNL     1      -0.938  11.225  22.611  0.00  0.00    +0.000 A 
ATOM      3  C   UNL     1      -0.481  10.410  21.571  0.00  0.00    +0.000 A 
ATOM      4  C   UNL     1      -0.207  10.971  20.321  0.00  0.00    +0.000 A 
ATOM      5  C   UNL     1      -0.353  12.352  20.132  0.00  0.00    +0.000 A 
ATOM      6  C   UNL     1      -0.770  13.185  21.180  0.00  0.00    +0.000 A 
ATOM      7  C   UNL     1       0.193  10.062  19.183  0.00  0.00    +0.000 C 
ATOM      8  N   UNL     1       1.083   8.976  19.600  0.00  0.00    +0.000 N 
ATOM      9  C   UNL     1       1.973   8.472  18.646  0.00  0.00    +0.000 C 
ATOM     10  O   UNL     1       1.940   8.875  17.484  0.00  0.00    +0.000 OA
ATOM     11  C   UNL     1       0.985   8.488  20.981  0.00  0.00    +0.000 C 
ATOM     12  C   UNL     1      -0.284   8.927  21.727  0.00  0.00    +0.000 C 
ENDROOT
BRANCH   1  14
ATOM     13  C   UNL     1      -2.934  13.357  23.734  0.00  0.00    +0.000 C 
ATOM     14  O   UNL     1      -1.526  13.267  23.547  0.00  0.00    +0.000 OA
ENDBRANCH   1  14
BRANCH   6  15
ATOM     15  O   UNL     1      -0.858  14.547  21.065  0.00  0.00    +0.000 OA
ATOM     16  C   UNL     1       0.113  15.222  20.277  0.00  0.00    +0.000 C 
ENDBRANCH   6  15
BRANCH   9  17
ATOM     17  C   UNL     1       2.929   7.359  19.101  0.00  0.00    +0.000 C 
BRANCH  17  18
ATOM     18  S   UNL     1       2.431   5.736  18.422  0.00  0.00    +0.000 S 
BRANCH  18  19
ATOM     19  C   UNL     1       3.844   5.309  17.403  0.00  0.00    +0.000 A 
ATOM     20  C   UNL     1       4.561   6.380  16.843  0.00  0.00    +0.000 A 
ATOM     21  C   UNL     1       5.608   6.155  15.943  0.00  0.00    +0.000 A 
ATOM     22  C   UNL     1       5.945   4.854  15.587  0.00  0.00    +0.000 A 
ATOM     23  C   UNL     1       5.243   3.784  16.134  0.00  0.00    +0.000 A 
ATOM     24  C   UNL     1       4.180   3.989  17.035  0.00  0.00    +0.000 A 
ATOM     25  C   UNL     1       3.429   2.787  17.530  0.00  0.00    +0.000 C 
ENDBRANCH  18  19
ENDBRANCH  17  18
ENDBRANCH   9  17
TORSDOF 5
ENDMDL
MODEL 9
REMARK VINA RESULT:      -6.3      1.601      2.073
REMARK  Name = 
REMARK  8 active torsions:
REMARK  status: ('A' for Active; 'I' for Inactive)
REMARK    1  A    between atoms: C_1  and  O_2
REMARK    2  A    between atoms: O_2  and  C_3
REMARK    3  A    between atoms: C_8  and  O_9
REMARK    4  A    between atoms: O_9  and  C_10
REMARK    5  A    between atoms: C_13  and  C_15
REMARK    6  A    between atoms: C_15  and  S_16
REMARK    7  A    between atoms: S_16  and  C_17
REMARK    8  A    between atoms: C_22  and  C_23
REMARK                            x       y       z     vdW  Elec       q    Type
REMARK                         _______ _______ _______ _____ _____    ______ ____
ROOT
ATOM      1  C   UNL     1      -0.765  12.812  21.101  0.00  0.00    +0.000 A 
ATOM      2  C   UNL     1      -0.662  11.477  21.526  0.00  0.00    +0.000 A 
ATOM      3  C   UNL     1      -0.150  10.496  20.671  0.00  0.00    +0.000 A 
ATOM      4  C   UNL     1       0.239  10.840  19.374  0.00  0.00    +0.000 A 
ATOM      5  C   UNL     1       0.151  12.174  18.954  0.00  0.00    +0.000 A 
ATOM      6  C   UNL     1      -0.321  13.174  19.816  0.00  0.00    +0.000 A 
ATOM      7  C   UNL     1       0.698   9.751  18.435  0.00  0.00    +0.000 C 
ATOM      8  N   UNL     1       1.518   8.731  19.092  0.00  0.00    +0.000 N 
ATOM      9  C   UNL     1       2.464   8.062  18.310  0.00  0.00    +0.000 C 
ATOM     10  O   UNL     1       2.535   8.272  17.099  0.00  0.00    +0.000 OA
ATOM     11  C   UNL     1       1.297   8.477  20.521  0.00  0.00    +0.000 C 
ATOM     12  C   UNL     1      -0.013   9.054  21.079  0.00  0.00    +0.000 C 
ENDROOT
BRANCH   1  14
ATOM     13  C   UNL     1      -1.654  13.049  23.293  0.00  0.00    +0.000 C 
ATOM     14  O   UNL     1      -1.258  13.654  22.069  0.00  0.00    +0.000 OA
ENDBRANCH   1  14
BRANCH   6  15
ATOM     15  O   UNL     1      -0.357  14.501  19.477  0.00  0.00    +0.000 OA
ATOM     16  C   UNL     1       0.834  15.265  19.613  0.00  0.00    +0.000 C 
ENDBRANCH   6  15
BRANCH   9  17
ATOM     17  C   UNL     1       3.346   7.021  19.015  0.00  0.00    +0.000 C 
BRANCH  17  18
ATOM     18  S   UNL     1       3.394   5.449  18.083  0.00  0.00    +0.000 S 
BRANCH  18  19
ATOM     19  C   UNL     1       2.610   4.313  19.229  0.00  0.00    +0.000 A 
ATOM     20  C   UNL     1       2.511   4.737  20.565  0.00  0.00    +0.000 A 
ATOM     21  C   UNL     1       2.022   3.883  21.559  0.00  0.00    +0.000 A 
ATOM     22  C   UNL     1       1.633   2.590  21.227  0.00  0.00    +0.000 A 
ATOM     23  C   UNL     1       1.726   2.156  19.909  0.00  0.00    +0.000 A 
ATOM     24  C   UNL     1       2.224   2.998  18.894  0.00  0.00    +0.000 A 
ATOM     25  C   UNL     1       2.356   2.436  17.508  0.00  0.00    +0.000 C 
ENDBRANCH  18  19
ENDBRANCH  17  18
ENDBRANCH   9  17
TORSDOF 5
ENDMDL
