MODEL 1
REMARK VINA RESULT:      -7.3      0.000      0.000
REMARK  Name = 
REMARK  9 active torsions:
REMARK  status: ('A' for Active; 'I' for Inactive)
REMARK    1  A    between atoms: C_1  and  O_2
REMARK    2  A    between atoms: O_2  and  C_3
REMARK    3  A    between atoms: C_5  and  N_6
REMARK    4  A    between atoms: C_7  and  C_9
REMARK    5  A    between atoms: C_9  and  O_10
REMARK    6  A    between atoms: O_10  and  C_11
REMARK    7  A    between atoms: C_11  and  C_13
REMARK    8  A    between atoms: C_21  and  O_22
REMARK    9  A    between atoms: O_22  and  C_23
REMARK                            x       y       z     vdW  Elec       q    Type
REMARK                         _______ _______ _______ _____ _____    ______ ____
ROOT
ATOM      1  N   UNL     1       5.073   4.616  18.410  0.00  0.00    +0.000 N 
ATOM      2  C   UNL     1       6.402   4.879  18.711  0.00  0.00    +0.000 C 
ATOM      3  O   UNL     1       6.817   5.392  19.749  0.00  0.00    +0.000 OA
ATOM      4  H   UNL     1       4.878   4.100  17.560  0.00  0.00    +0.000 HD
ENDROOT
BRANCH   1   7
ATOM      5  C   UNL     1       2.227   4.639  20.847  0.00  0.00    +0.000 A 
ATOM      6  C   UNL     1       3.319   4.188  20.101  0.00  0.00    +0.000 A 
ATOM      7  C   UNL     1       3.945   5.014  19.166  0.00  0.00    +0.000 A 
ATOM      8  C   UNL     1       3.459   6.315  18.992  0.00  0.00    +0.000 A 
ATOM      9  C   UNL     1       2.357   6.776  19.727  0.00  0.00    +0.000 A 
ATOM     10  C   UNL     1       1.743   5.932  20.653  0.00  0.00    +0.000 A 
BRANCH   5  12
ATOM     11  C   UNL     1       1.948   2.353  21.451  0.00  0.00    +0.000 C 
ATOM     12  O   UNL     1       1.736   3.727  21.743  0.00  0.00    +0.000 OA
ENDBRANCH   5  12
BRANCH   9  13
ATOM     13  O   UNL     1       1.975   8.065  19.456  0.00  0.00    +0.000 OA
ATOM     14  C   UNL     1       1.225   8.736  20.464  0.00  0.00    +0.000 C 
ENDBRANCH   9  13
ENDBRANCH   1   7
BRANCH   2  15
ATOM     15  C   UNL     1       7.391   4.464  17.616  0.00  0.00    +0.000 C 
BRANCH  15  16
ATOM     16  O   UNL     1       7.680   5.555  16.739  0.00  0.00    +0.000 OA
BRANCH  16  17
ATOM     17  C   UNL     1       6.639   5.937  15.965  0.00  0.00    +0.000 C 
ATOM     18  O   UNL     1       5.867   6.851  16.215  0.00  0.00    +0.000 OA
BRANCH  17  19
ATOM     19  C   UNL     1       6.590   5.157  14.709  0.00  0.00    +0.000 A 
ATOM     20  C   UNL     1       7.589   5.385  13.749  0.00  0.00    +0.000 A 
ATOM     21  C   UNL     1       7.586   4.675  12.546  0.00  0.00    +0.000 A 
ATOM     22  C   UNL     1       6.582   3.740  12.290  0.00  0.00    +0.000 A 
ATOM     23  C   UNL     1       5.580   3.521  13.235  0.00  0.00    +0.000 A 
ATOM     24  C   UNL     1       5.586   4.229  14.436  0.00  0.00    +0.000 A 
ATOM     25  F   UNL     1       4.580   4.013  15.297  0.00  0.00    +0.000 F 
ENDBRANCH  17  19
ENDBRANCH  16  17
ENDBRANCH  15  16
ENDBRANCH   2  15
TORSDOF 7
ENDMDL
MODEL 2
REMARK VINA RESULT:      -7.3      0.150      2.552
REMARK  Name = 
REMARK  9 active torsions:
REMARK  status: ('A' for Active; 'I' for Inactive)
REMARK    1  A    between atoms: C_1  and  O_2
REMARK    2  A    between atoms: O_2  and  C_3
REMARK    3  A    between atoms: C_5  and  N_6
REMARK    4  A    between atoms: C_7  and  C_9
REMARK    5  A    between atoms: C_9  and  O_10
REMARK    6  A    between atoms: O_10  and  C_11
REMARK    7  A    between atoms: C_11  and  C_13
REMARK    8  A    between atoms: C_21  and  O_22
REMARK    9  A    between atoms: O_22  and  C_23
REMARK                            x       y       z     vdW  Elec       q    Type
REMARK                         _______ _______ _______ _____ _____    ______ ____
ROOT
ATOM      1  N   UNL     1       5.033   4.662  18.350  0.00  0.00    +0.000 N 
ATOM      2  C   UNL     1       6.369   4.850  18.670  0.00  0.00    +0.000 C 
ATOM      3  O   UNL     1       6.798   5.325  19.720  0.00  0.00    +0.000 OA
ATOM      4  H   UNL     1       4.821   4.170  17.490  0.00  0.00    +0.000 HD
ENDROOT
BRANCH   1   7
ATOM      5  C   UNL     1       2.294   6.795  19.761  0.00  0.00    +0.000 A 
ATOM      6  C   UNL     1       3.418   6.410  19.026  0.00  0.00    +0.000 A 
ATOM      7  C   UNL     1       3.918   5.109  19.099  0.00  0.00    +0.000 A 
ATOM      8  C   UNL     1       3.265   4.188  19.927  0.00  0.00    +0.000 A 
ATOM      9  C   UNL     1       2.144   4.565  20.679  0.00  0.00    +0.000 A 
ATOM     10  C   UNL     1       1.663   5.872  20.594  0.00  0.00    +0.000 A 
BRANCH   5  12
ATOM     11  C   UNL     1       1.170   8.713  20.612  0.00  0.00    +0.000 C 
ATOM     12  O   UNL     1       1.905   8.093  19.566  0.00  0.00    +0.000 OA
ENDBRANCH   5  12
BRANCH   9  13
ATOM     13  O   UNL     1       1.604   3.572  21.455  0.00  0.00    +0.000 OA
ATOM     14  C   UNL     1       2.361   2.371  21.578  0.00  0.00    +0.000 C 
ENDBRANCH   9  13
ENDBRANCH   1   7
BRANCH   2  15
ATOM     15  C   UNL     1       7.348   4.399  17.581  0.00  0.00    +0.000 C 
BRANCH  15  16
ATOM     16  O   UNL     1       7.691   5.481  16.712  0.00  0.00    +0.000 OA
BRANCH  16  17
ATOM     17  C   UNL     1       6.675   5.906  15.927  0.00  0.00    +0.000 C 
ATOM     18  O   UNL     1       5.942   6.854  16.169  0.00  0.00    +0.000 OA
BRANCH  17  19
ATOM     19  C   UNL     1       6.604   5.128  14.672  0.00  0.00    +0.000 A 
ATOM     20  C   UNL     1       7.609   5.325  13.712  0.00  0.00    +0.000 A 
ATOM     21  C   UNL     1       7.586   4.614  12.510  0.00  0.00    +0.000 A 
ATOM     22  C   UNL     1       6.555   3.709  12.254  0.00  0.00    +0.000 A 
ATOM     23  C   UNL     1       5.547   3.520  13.199  0.00  0.00    +0.000 A 
ATOM     24  C   UNL     1       5.573   4.229  14.400  0.00  0.00    +0.000 A 
ATOM     25  F   UNL     1       4.562   4.043  15.260  0.00  0.00    +0.000 F 
ENDBRANCH  17  19
ENDBRANCH  16  17
ENDBRANCH  15  16
ENDBRANCH   2  15
TORSDOF 7
ENDMDL
MODEL 3
REMARK VINA RESULT:      -7.2      1.519      1.952
REMARK  Name = 
REMARK  9 active torsions:
REMARK  status: ('A' for Active; 'I' for Inactive)
REMARK    1  A    between atoms: C_1  and  O_2
REMARK    2  A    between atoms: O_2  and  C_3
REMARK    3  A    between atoms: C_5  and  N_6
REMARK    4  A    between atoms: C_7  and  C_9
REMARK    5  A    between atoms: C_9  and  O_10
REMARK    6  A    between atoms: O_10  and  C_11
REMARK    7  A    between atoms: C_11  and  C_13
REMARK    8  A    between atoms: C_21  and  O_22
REMARK    9  A    between atoms: O_22  and  C_23
REMARK                            x       y       z     vdW  Elec       q    Type
REMARK                         _______ _______ _______ _____ _____    ______ ____
ROOT
ATOM      1  N   UNL     1       5.343   5.722  18.647  0.00  0.00    +0.000 N 
ATOM      2  C   UNL     1       5.551   6.539  17.545  0.00  0.00    +0.000 C 
ATOM      3  O   UNL     1       4.679   6.970  16.793  0.00  0.00    +0.000 OA
ATOM      4  H   UNL     1       6.141   5.519  19.238  0.00  0.00    +0.000 HD
ENDROOT
BRANCH   1   7
ATOM      5  C   UNL     1       2.588   3.235  19.160  0.00  0.00    +0.000 A 
ATOM      6  C   UNL     1       3.795   3.795  18.735  0.00  0.00    +0.000 A 
ATOM      7  C   UNL     1       4.120   5.120  19.027  0.00  0.00    +0.000 A 
ATOM      8  C   UNL     1       3.208   5.884  19.765  0.00  0.00    +0.000 A 
ATOM      9  C   UNL     1       1.988   5.338  20.188  0.00  0.00    +0.000 A 
ATOM     10  C   UNL     1       1.681   4.012  19.880  0.00  0.00    +0.000 A 
BRANCH   5  12
ATOM     11  C   UNL     1       3.590   1.182  18.490  0.00  0.00    +0.000 C 
ATOM     12  O   UNL     1       2.421   1.919  18.822  0.00  0.00    +0.000 OA
ENDBRANCH   5  12
BRANCH   9  13
ATOM     13  O   UNL     1       1.182   6.193  20.894  0.00  0.00    +0.000 OA
ATOM     14  C   UNL     1       1.497   7.580  20.818  0.00  0.00    +0.000 C 
ENDBRANCH   9  13
ENDBRANCH   1   7
BRANCH   2  15
ATOM     15  C   UNL     1       7.019   6.904  17.300  0.00  0.00    +0.000 C 
BRANCH  15  16
ATOM     16  O   UNL     1       7.477   6.398  16.044  0.00  0.00    +0.000 OA
BRANCH  16  17
ATOM     17  C   UNL     1       7.472   5.049  15.953  0.00  0.00    +0.000 C 
ATOM     18  O   UNL     1       7.816   4.279  16.838  0.00  0.00    +0.000 OA
BRANCH  17  19
ATOM     19  C   UNL     1       6.911   4.599  14.661  0.00  0.00    +0.000 A 
ATOM     20  C   UNL     1       7.694   4.761  13.507  0.00  0.00    +0.000 A 
ATOM     21  C   UNL     1       7.209   4.353  12.262  0.00  0.00    +0.000 A 
ATOM     22  C   UNL     1       5.937   3.789  12.160  0.00  0.00    +0.000 A 
ATOM     23  C   UNL     1       5.149   3.639  13.302  0.00  0.00    +0.000 A 
ATOM     24  C   UNL     1       5.637   4.045  14.544  0.00  0.00    +0.000 A 
ATOM     25  F   UNL     1       4.829   3.918  15.607  0.00  0.00    +0.000 F 
ENDBRANCH  17  19
ENDBRANCH  16  17
ENDBRANCH  15  16
ENDBRANCH   2  15
TORSDOF 7
ENDMDL
MODEL 4
REMARK VINA RESULT:      -7.2      1.806      2.349
REMARK  Name = 
REMARK  9 active torsions:
REMARK  status: ('A' for Active; 'I' for Inactive)
REMARK    1  A    between atoms: C_1  and  O_2
REMARK    2  A    between atoms: O_2  and  C_3
REMARK    3  A    between atoms: C_5  and  N_6
REMARK    4  A    between atoms: C_7  and  C_9
REMARK    5  A    between atoms: C_9  and  O_10
REMARK    6  A    between atoms: O_10  and  C_11
REMARK    7  A    between atoms: C_11  and  C_13
REMARK    8  A    between atoms: C_21  and  O_22
REMARK    9  A    between atoms: O_22  and  C_23
REMARK                            x       y       z     vdW  Elec       q    Type
REMARK                         _______ _______ _______ _____ _____    ______ ____
ROOT
ATOM      1  N   UNL     1       5.533   5.638  18.664  0.00  0.00    +0.000 N 
ATOM      2  C   UNL     1       5.705   6.545  17.628  0.00  0.00    +0.000 C 
ATOM      3  O   UNL     1       4.806   7.108  17.007  0.00  0.00    +0.000 OA
ATOM      4  H   UNL     1       6.361   5.323  19.154  0.00  0.00    +0.000 HD
ENDROOT
BRANCH   1   7
ATOM      5  C   UNL     1       2.765   3.232  19.434  0.00  0.00    +0.000 A 
ATOM      6  C   UNL     1       3.977   3.737  18.957  0.00  0.00    +0.000 A 
ATOM      7  C   UNL     1       4.305   5.086  19.101  0.00  0.00    +0.000 A 
ATOM      8  C   UNL     1       3.391   5.930  19.742  0.00  0.00    +0.000 A 
ATOM      9  C   UNL     1       2.166   5.439  20.215  0.00  0.00    +0.000 A 
ATOM     10  C   UNL     1       1.857   4.088  20.056  0.00  0.00    +0.000 A 
BRANCH   5  12
ATOM     11  C   UNL     1       3.552   1.221  18.431  0.00  0.00    +0.000 C 
ATOM     12  O   UNL     1       2.596   1.886  19.245  0.00  0.00    +0.000 OA
ENDBRANCH   5  12
BRANCH   9  13
ATOM     13  O   UNL     1       1.358   6.371  20.815  0.00  0.00    +0.000 OA
ATOM     14  C   UNL     1       1.665   7.739  20.567  0.00  0.00    +0.000 C 
ENDBRANCH   9  13
ENDBRANCH   1   7
BRANCH   2  15
ATOM     15  C   UNL     1       7.169   6.832  17.279  0.00  0.00    +0.000 C 
BRANCH  15  16
ATOM     16  O   UNL     1       7.482   6.397  15.954  0.00  0.00    +0.000 OA
BRANCH  16  17
ATOM     17  C   UNL     1       7.535   5.054  15.808  0.00  0.00    +0.000 C 
ATOM     18  O   UNL     1       7.857   4.259  16.680  0.00  0.00    +0.000 OA
BRANCH  17  19
ATOM     19  C   UNL     1       7.068   4.640  14.468  0.00  0.00    +0.000 A 
ATOM     20  C   UNL     1       5.917   3.840  14.386  0.00  0.00    +0.000 A 
ATOM     21  C   UNL     1       5.436   3.422  13.142  0.00  0.00    +0.000 A 
ATOM     22  C   UNL     1       6.105   3.791  11.975  0.00  0.00    +0.000 A 
ATOM     23  C   UNL     1       7.257   4.575  12.053  0.00  0.00    +0.000 A 
ATOM     24  C   UNL     1       7.734   4.993  13.295  0.00  0.00    +0.000 A 
ATOM     25  F   UNL     1       8.866   5.711  13.322  0.00  0.00    +0.000 F 
ENDBRANCH  17  19
ENDBRANCH  16  17
ENDBRANCH  15  16
ENDBRANCH   2  15
TORSDOF 7
ENDMDL
MODEL 5
REMARK VINA RESULT:      -7.1      1.091      1.467
REMARK  Name = 
REMARK  9 active torsions:
REMARK  status: ('A' for Active; 'I' for Inactive)
REMARK    1  A    between atoms: C_1  and  O_2
REMARK    2  A    between atoms: O_2  and  C_3
REMARK    3  A    between atoms: C_5  and  N_6
REMARK    4  A    between atoms: C_7  and  C_9
REMARK    5  A    between atoms: C_9  and  O_10
REMARK    6  A    between atoms: O_10  and  C_11
REMARK    7  A    between atoms: C_11  and  C_13
REMARK    8  A    between atoms: C_21  and  O_22
REMARK    9  A    between atoms: O_22  and  C_23
REMARK                            x       y       z     vdW  Elec       q    Type
REMARK                         _______ _______ _______ _____ _____    ______ ____
ROOT
ATOM      1  N   UNL     1       4.926   4.476  17.938  0.00  0.00    +0.000 N 
ATOM      2  C   UNL     1       6.262   4.665  18.262  0.00  0.00    +0.000 C 
ATOM      3  O   UNL     1       6.693   5.036  19.352  0.00  0.00    +0.000 OA
ATOM      4  H   UNL     1       4.715   4.074  17.033  0.00  0.00    +0.000 HD
ENDROOT
BRANCH   1   7
ATOM      5  C   UNL     1       2.016   4.249  20.289  0.00  0.00    +0.000 A 
ATOM      6  C   UNL     1       3.090   3.867  19.481  0.00  0.00    +0.000 A 
ATOM      7  C   UNL     1       3.811   4.808  18.744  0.00  0.00    +0.000 A 
ATOM      8  C   UNL     1       3.438   6.154  18.833  0.00  0.00    +0.000 A 
ATOM      9  C   UNL     1       2.354   6.550  19.630  0.00  0.00    +0.000 A 
ATOM     10  C   UNL     1       1.645   5.592  20.356  0.00  0.00    +0.000 A 
BRANCH   5  12
ATOM     11  C   UNL     1       2.267   2.409  21.778  0.00  0.00    +0.000 C 
ATOM     12  O   UNL     1       1.425   3.221  20.972  0.00  0.00    +0.000 OA
ENDBRANCH   5  12
BRANCH   9  13
ATOM     13  O   UNL     1       2.087   7.895  19.623  0.00  0.00    +0.000 OA
ATOM     14  C   UNL     1       1.433   8.424  20.773  0.00  0.00    +0.000 C 
ENDBRANCH   9  13
ENDBRANCH   1   7
BRANCH   2  15
ATOM     15  C   UNL     1       7.236   4.362  17.119  0.00  0.00    +0.000 C 
BRANCH  15  16
ATOM     16  O   UNL     1       7.439   5.510  16.292  0.00  0.00    +0.000 OA
BRANCH  16  17
ATOM     17  C   UNL     1       6.389   5.814  15.495  0.00  0.00    +0.000 C 
ATOM     18  O   UNL     1       5.579   6.706  15.701  0.00  0.00    +0.000 OA
BRANCH  17  19
ATOM     19  C   UNL     1       6.381   4.978  14.276  0.00  0.00    +0.000 A 
ATOM     20  C   UNL     1       5.290   4.119  14.068  0.00  0.00    +0.000 A 
ATOM     21  C   UNL     1       5.237   3.308  12.932  0.00  0.00    +0.000 A 
ATOM     22  C   UNL     1       6.275   3.343  12.000  0.00  0.00    +0.000 A 
ATOM     23  C   UNL     1       7.368   4.185  12.209  0.00  0.00    +0.000 A 
ATOM     24  C   UNL     1       7.418   4.995  13.343  0.00  0.00    +0.000 A 
ATOM     25  F   UNL     1       8.507   5.758  13.521  0.00  0.00    +0.000 F 
ENDBRANCH  17  19
ENDBRANCH  16  17
ENDBRANCH  15  16
ENDBRANCH   2  15
TORSDOF 7
ENDMDL
MODEL 6
REMARK VINA RESULT:      -7.1      2.466      6.710
REMARK  Name = 
REMARK  9 active torsions:
REMARK  status: ('A' for Active; 'I' for Inactive)
REMARK    1  A    between atoms: C_1  and  O_2
REMARK    2  A    between atoms: O_2  and  C_3
REMARK    3  A    between atoms: C_5  and  N_6
REMARK    4  A    between atoms: C_7  and  C_9
REMARK    5  A    between atoms: C_9  and  O_10
REMARK    6  A    between atoms: O_10  and  C_11
REMARK    7  A    between atoms: C_11  and  C_13
REMARK    8  A    between atoms: C_21  and  O_22
REMARK    9  A    between atoms: O_22  and  C_23
REMARK                            x       y       z     vdW  Elec       q    Type
REMARK                         _______ _______ _______ _____ _____    ______ ____
ROOT
ATOM      1  N   UNL     1       4.377   2.936  17.278  0.00  0.00    +0.000 N 
ATOM      2  C   UNL     1       4.281   2.500  18.592  0.00  0.00    +0.000 C 
ATOM      3  O   UNL     1       4.991   2.868  19.527  0.00  0.00    +0.000 OA
ATOM      4  H   UNL     1       3.667   2.624  16.628  0.00  0.00    +0.000 HD
ENDROOT
BRANCH   1   7
ATOM      5  C   UNL     1       6.717   4.643  14.901  0.00  0.00    +0.000 A 
ATOM      6  C   UNL     1       5.733   3.779  15.389  0.00  0.00    +0.000 A 
ATOM      7  C   UNL     1       5.388   3.768  16.741  0.00  0.00    +0.000 A 
ATOM      8  C   UNL     1       6.049   4.648  17.606  0.00  0.00    +0.000 A 
ATOM      9  C   UNL     1       7.047   5.511  17.131  0.00  0.00    +0.000 A 
ATOM     10  C   UNL     1       7.379   5.503  15.776  0.00  0.00    +0.000 A 
BRANCH   5  12
ATOM     11  C   UNL     1       6.143   3.618  12.829  0.00  0.00    +0.000 C 
ATOM     12  O   UNL     1       6.927   4.559  13.550  0.00  0.00    +0.000 OA
ENDBRANCH   5  12
BRANCH   9  13
ATOM     13  O   UNL     1       7.622   6.315  18.082  0.00  0.00    +0.000 OA
ATOM     14  C   UNL     1       7.774   5.758  19.384  0.00  0.00    +0.000 C 
ENDBRANCH   9  13
ENDBRANCH   1   7
BRANCH   2  15
ATOM     15  C   UNL     1       3.170   1.474  18.836  0.00  0.00    +0.000 C 
BRANCH  15  16
ATOM     16  O   UNL     1       2.143   2.010  19.673  0.00  0.00    +0.000 OA
BRANCH  16  17
ATOM     17  C   UNL     1       1.262   2.809  19.030  0.00  0.00    +0.000 C 
ATOM     18  O   UNL     1       0.242   2.434  18.472  0.00  0.00    +0.000 OA
BRANCH  17  19
ATOM     19  C   UNL     1       1.640   4.234  19.153  0.00  0.00    +0.000 A 
ATOM     20  C   UNL     1       1.888   4.957  17.976  0.00  0.00    +0.000 A 
ATOM     21  C   UNL     1       2.250   6.305  18.039  0.00  0.00    +0.000 A 
ATOM     22  C   UNL     1       2.374   6.937  19.277  0.00  0.00    +0.000 A 
ATOM     23  C   UNL     1       2.142   6.218  20.450  0.00  0.00    +0.000 A 
ATOM     24  C   UNL     1       1.779   4.873  20.384  0.00  0.00    +0.000 A 
ATOM     25  F   UNL     1       1.605   4.214  21.539  0.00  0.00    +0.000 F 
ENDBRANCH  17  19
ENDBRANCH  16  17
ENDBRANCH  15  16
ENDBRANCH   2  15
TORSDOF 7
ENDMDL
MODEL 7
REMARK VINA RESULT:      -7.1      2.548      6.703
REMARK  Name = 
REMARK  9 active torsions:
REMARK  status: ('A' for Active; 'I' for Inactive)
REMARK    1  A    between atoms: C_1  and  O_2
REMARK    2  A    between atoms: O_2  and  C_3
REMARK    3  A    between atoms: C_5  and  N_6
REMARK    4  A    between atoms: C_7  and  C_9
REMARK    5  A    between atoms: C_9  and  O_10
REMARK    6  A    between atoms: O_10  and  C_11
REMARK    7  A    between atoms: C_11  and  C_13
REMARK    8  A    between atoms: C_21  and  O_22
REMARK    9  A    between atoms: O_22  and  C_23
REMARK                            x       y       z     vdW  Elec       q    Type
REMARK                         _______ _______ _______ _____ _____    ______ ____
ROOT
ATOM      1  N   UNL     1       4.405   3.279  17.404  0.00  0.00    +0.000 N 
ATOM      2  C   UNL     1       4.312   2.601  18.612  0.00  0.00    +0.000 C 
ATOM      3  O   UNL     1       5.056   2.750  19.579  0.00  0.00    +0.000 OA
ATOM      4  H   UNL     1       3.669   3.131  16.725  0.00  0.00    +0.000 HD
ENDROOT
BRANCH   1   7
ATOM      5  C   UNL     1       7.215   5.758  17.474  0.00  0.00    +0.000 A 
ATOM      6  C   UNL     1       6.173   4.935  17.909  0.00  0.00    +0.000 A 
ATOM      7  C   UNL     1       5.446   4.153  17.009  0.00  0.00    +0.000 A 
ATOM      8  C   UNL     1       5.786   4.206  15.652  0.00  0.00    +0.000 A 
ATOM      9  C   UNL     1       6.821   5.037  15.201  0.00  0.00    +0.000 A 
ATOM     10  C   UNL     1       7.532   5.813  16.117  0.00  0.00    +0.000 A 
BRANCH   5  12
ATOM     11  C   UNL     1       8.048   5.761  19.704  0.00  0.00    +0.000 C 
ATOM     12  O   UNL     1       7.853   6.443  18.473  0.00  0.00    +0.000 OA
ENDBRANCH   5  12
BRANCH   9  13
ATOM     13  O   UNL     1       7.047   5.003  13.849  0.00  0.00    +0.000 OA
ATOM     14  C   UNL     1       6.505   3.895  13.137  0.00  0.00    +0.000 C 
ENDBRANCH   9  13
ENDBRANCH   1   7
BRANCH   2  15
ATOM     15  C   UNL     1       3.156   1.598  18.684  0.00  0.00    +0.000 C 
BRANCH  15  16
ATOM     16  O   UNL     1       2.043   2.033  17.899  0.00  0.00    +0.000 OA
BRANCH  16  17
ATOM     17  C   UNL     1       1.070   2.647  18.609  0.00  0.00    +0.000 C 
ATOM     18  O   UNL     1       0.020   2.132  18.964  0.00  0.00    +0.000 OA
BRANCH  17  19
ATOM     19  C   UNL     1       1.466   4.020  18.987  0.00  0.00    +0.000 A 
ATOM     20  C   UNL     1       1.807   4.917  17.962  0.00  0.00    +0.000 A 
ATOM     21  C   UNL     1       2.191   6.226  18.268  0.00  0.00    +0.000 A 
ATOM     22  C   UNL     1       2.244   6.644  19.598  0.00  0.00    +0.000 A 
ATOM     23  C   UNL     1       1.919   5.753  20.621  0.00  0.00    +0.000 A 
ATOM     24  C   UNL     1       1.535   4.447  20.313  0.00  0.00    +0.000 A 
ATOM     25  F   UNL     1       1.270   3.615  21.330  0.00  0.00    +0.000 F 
ENDBRANCH  17  19
ENDBRANCH  16  17
ENDBRANCH  15  16
ENDBRANCH   2  15
TORSDOF 7
ENDMDL
MODEL 8
REMARK VINA RESULT:      -7.1      5.446      7.170
REMARK  Name = 
REMARK  9 active torsions:
REMARK  status: ('A' for Active; 'I' for Inactive)
REMARK    1  A    between atoms: C_1  and  O_2
REMARK    2  A    between atoms: O_2  and  C_3
REMARK    3  A    between atoms: C_5  and  N_6
REMARK    4  A    between atoms: C_7  and  C_9
REMARK    5  A    between atoms: C_9  and  O_10
REMARK    6  A    between atoms: O_10  and  C_11
REMARK    7  A    between atoms: C_11  and  C_13
REMARK    8  A    between atoms: C_21  and  O_22
REMARK    9  A    between atoms: O_22  and  C_23
REMARK                            x       y       z     vdW  Elec       q    Type
REMARK                         _______ _______ _______ _____ _____    ______ ____
ROOT
ATOM      1  N   UNL     1       6.769   7.741  17.131  0.00  0.00    +0.000 N 
ATOM      2  C   UNL     1       7.820   7.945  18.014  0.00  0.00    +0.000 C 
ATOM      3  O   UNL     1       8.331   7.090  18.736  0.00  0.00    +0.000 OA
ATOM      4  H   UNL     1       6.509   8.509  16.525  0.00  0.00    +0.000 HD
ENDROOT
BRANCH   1   7
ATOM      5  C   UNL     1       4.080   5.162  17.533  0.00  0.00    +0.000 A 
ATOM      6  C   UNL     1       4.824   6.329  17.719  0.00  0.00    +0.000 A 
ATOM      7  C   UNL     1       5.999   6.561  17.002  0.00  0.00    +0.000 A 
ATOM      8  C   UNL     1       6.419   5.594  16.080  0.00  0.00    +0.000 A 
ATOM      9  C   UNL     1       5.688   4.413  15.892  0.00  0.00    +0.000 A 
ATOM     10  C   UNL     1       4.519   4.200  16.623  0.00  0.00    +0.000 A 
BRANCH   5  12
ATOM     11  C   UNL     1       2.643   6.198  19.123  0.00  0.00    +0.000 C 
ATOM     12  O   UNL     1       2.939   5.088  18.286  0.00  0.00    +0.000 OA
ENDBRANCH   5  12
BRANCH   9  13
ATOM     13  O   UNL     1       6.211   3.546  14.967  0.00  0.00    +0.000 OA
ATOM     14  C   UNL     1       6.491   4.079  13.676  0.00  0.00    +0.000 C 
ENDBRANCH   9  13
ENDBRANCH   1   7
BRANCH   2  15
ATOM     15  C   UNL     1       8.352   9.382  18.039  0.00  0.00    +0.000 C 
BRANCH  15  16
ATOM     16  O   UNL     1       9.399   9.531  19.000  0.00  0.00    +0.000 OA
BRANCH  16  17
ATOM     17  C   UNL     1       9.416  10.731  19.622  0.00  0.00    +0.000 C 
ATOM     18  O   UNL     1       9.064  10.938  20.773  0.00  0.00    +0.000 OA
BRANCH  17  19
ATOM     19  C   UNL     1      10.004  11.776  18.755  0.00  0.00    +0.000 A 
ATOM     20  C   UNL     1      11.288  11.557  18.232  0.00  0.00    +0.000 A 
ATOM     21  C   UNL     1      11.887  12.514  17.409  0.00  0.00    +0.000 A 
ATOM     22  C   UNL     1      11.212  13.698  17.110  0.00  0.00    +0.000 A 
ATOM     23  C   UNL     1       9.942  13.926  17.638  0.00  0.00    +0.000 A 
ATOM     24  C   UNL     1       9.345  12.968  18.458  0.00  0.00    +0.000 A 
ATOM     25  F   UNL     1       8.139  13.248  18.974  0.00  0.00    +0.000 F 
ENDBRANCH  17  19
ENDBRANCH  16  17
ENDBRANCH  15  16
ENDBRANCH   2  15
TORSDOF 7
ENDMDL
MODEL 9
REMARK VINA RESULT:      -7.0      1.994      6.580
REMARK  Name = 
REMARK  9 active torsions:
REMARK  status: ('A' for Active; 'I' for Inactive)
REMARK    1  A    between atoms: C_1  and  O_2
REMARK    2  A    between atoms: O_2  and  C_3
REMARK    3  A    between atoms: C_5  and  N_6
REMARK    4  A    between atoms: C_7  and  C_9
REMARK    5  A    between atoms: C_9  and  O_10
REMARK    6  A    between atoms: O_10  and  C_11
REMARK    7  A    between atoms: C_11  and  C_13
REMARK    8  A    between atoms: C_21  and  O_22
REMARK    9  A    between atoms: O_22  and  C_23
REMARK                            x       y       z     vdW  Elec       q    Type
REMARK                         _______ _______ _______ _____ _____    ______ ____
ROOT
ATOM      1  N   UNL     1       5.003   3.852  19.618  0.00  0.00    +0.000 N 
ATOM      2  C   UNL     1       4.176   2.759  19.400  0.00  0.00    +0.000 C 
ATOM      3  O   UNL     1       4.000   2.193  18.323  0.00  0.00    +0.000 OA
ATOM      4  H   UNL     1       5.131   4.160  20.574  0.00  0.00    +0.000 HD
ENDROOT
BRANCH   1   7
ATOM      5  C   UNL     1       7.295   6.277  17.911  0.00  0.00    +0.000 A 
ATOM      6  C   UNL     1       6.628   5.584  18.925  0.00  0.00    +0.000 A 
ATOM      7  C   UNL     1       5.681   4.603  18.628  0.00  0.00    +0.000 A 
ATOM      8  C   UNL     1       5.411   4.321  17.284  0.00  0.00    +0.000 A 
ATOM      9  C   UNL     1       6.064   5.018  16.257  0.00  0.00    +0.000 A 
ATOM     10  C   UNL     1       7.005   5.997  16.576  0.00  0.00    +0.000 A 
BRANCH   5  12
ATOM     11  C   UNL     1       8.075   8.526  17.898  0.00  0.00    +0.000 C 
ATOM     12  O   UNL     1       8.215   7.188  18.356  0.00  0.00    +0.000 OA
ENDBRANCH   5  12
BRANCH   9  13
ATOM     13  O   UNL     1       5.703   4.652  14.985  0.00  0.00    +0.000 OA
ATOM     14  C   UNL     1       6.761   4.419  14.061  0.00  0.00    +0.000 C 
ENDBRANCH   9  13
ENDBRANCH   1   7
BRANCH   2  15
ATOM     15  C   UNL     1       3.451   2.258  20.653  0.00  0.00    +0.000 C 
BRANCH  15  16
ATOM     16  O   UNL     1       2.494   3.214  21.116  0.00  0.00    +0.000 OA
BRANCH  16  17
ATOM     17  C   UNL     1       1.589   3.589  20.185  0.00  0.00    +0.000 C 
ATOM     18  O   UNL     1       0.650   2.910  19.796  0.00  0.00    +0.000 OA
BRANCH  17  19
ATOM     19  C   UNL     1       1.821   4.980  19.740  0.00  0.00    +0.000 A 
ATOM     20  C   UNL     1       1.805   5.996  20.709  0.00  0.00    +0.000 A 
ATOM     21  C   UNL     1       2.017   7.327  20.339  0.00  0.00    +0.000 A 
ATOM     22  C   UNL     1       2.238   7.652  19.001  0.00  0.00    +0.000 A 
ATOM     23  C   UNL     1       2.241   6.648  18.033  0.00  0.00    +0.000 A 
ATOM     24  C   UNL     1       2.031   5.320  18.404  0.00  0.00    +0.000 A 
ATOM     25  F   UNL     1       2.004   4.394  17.434  0.00  0.00    +0.000 F 
ENDBRANCH  17  19
ENDBRANCH  16  17
ENDBRANCH  15  16
ENDBRANCH   2  15
TORSDOF 7
ENDMDL
