MODEL 1
REMARK VINA RESULT:      -7.7      0.000      0.000
REMARK  Name = 
REMARK  4 active torsions:
REMARK  status: ('A' for Active; 'I' for Inactive)
REMARK    1  A    between atoms: C_2  and  C_16
REMARK    2  A    between atoms: N_3  and  C_4
REMARK    3  A    between atoms: C_7  and  C_8
REMARK    4  A    between atoms: C_19  and  C_20
REMARK                            x       y       z     vdW  Elec       q    Type
REMARK                         _______ _______ _______ _____ _____    ______ ____
ROOT
ATOM      1  O   UNL     1       1.080   5.614  20.872  0.00  0.00    +0.000 OA
ATOM      2  C   UNL     1       2.082   6.097  20.337  0.00  0.00    +0.000 C 
ATOM      3  N   UNL     1       2.331   7.459  20.186  0.00  0.00    +0.000 N 
ATOM      4  H   UNL     1       3.111   7.722  19.586  0.00  0.00    +0.000 HD
ENDROOT
BRANCH   3   5
ATOM      5  C   UNL     1       1.456   8.472  20.643  0.00  0.00    +0.000 A 
ATOM      6  C   UNL     1       1.226   8.676  22.007  0.00  0.00    +0.000 A 
ATOM      7  C   UNL     1       0.299   9.622  22.449  0.00  0.00    +0.000 A 
ATOM      8  C   UNL     1      -0.359  10.450  21.540  0.00  0.00    +0.000 A 
ATOM      9  C   UNL     1      -0.126  10.254  20.169  0.00  0.00    +0.000 A 
ATOM     10  C   UNL     1       0.780   9.278  19.726  0.00  0.00    +0.000 A 
BRANCH   8  11
ATOM     11  C   UNL     1      -1.250  11.572  22.028  0.00  0.00    +0.000 C 
ATOM     12  C   UNL     1      -1.927  12.348  20.863  0.00  0.00    +0.000 C 
ATOM     13  N   UNL     1      -2.771  13.464  21.352  0.00  0.00    +0.000 NA
ATOM     14  C   UNL     1      -1.939  14.324  22.217  0.00  0.00    +0.000 C 
ATOM     15  C   UNL     1      -1.276  13.527  23.349  0.00  0.00    +0.000 C 
ATOM     16  O   UNL     1      -0.463  12.465  22.834  0.00  0.00    +0.000 OA
ATOM     17  H   UNL     1      -3.517  13.066  21.925  0.00  0.00    +0.000 HD
ENDBRANCH   8  11
ENDBRANCH   3   5
BRANCH   2  18
ATOM     18  C   UNL     1       3.064   5.197  19.722  0.00  0.00    +0.000 A 
ATOM     19  C   UNL     1       3.271   3.887  20.120  0.00  0.00    +0.000 A 
ATOM     20  S   UNL     1       4.374   3.115  19.063  0.00  0.00    +0.000 S 
ATOM     21  C   UNL     1       4.547   4.583  18.178  0.00  0.00    +0.000 A 
ATOM     22  N   UNL     1       3.823   5.595  18.627  0.00  0.00    +0.000 NA
BRANCH  21  23
ATOM     23  C   UNL     1       5.425   4.679  17.004  0.00  0.00    +0.000 A 
ATOM     24  C   UNL     1       6.512   5.545  17.012  0.00  0.00    +0.000 A 
ATOM     25  N   UNL     1       7.341   5.718  15.954  0.00  0.00    +0.000 NA
ATOM     26  C   UNL     1       7.030   4.981  14.863  0.00  0.00    +0.000 A 
ATOM     27  C   UNL     1       5.951   4.114  14.835  0.00  0.00    +0.000 A 
ATOM     28  N   UNL     1       5.132   3.930  15.903  0.00  0.00    +0.000 NA
ENDBRANCH  21  23
ENDBRANCH   2  18
TORSDOF 4
ENDMDL
MODEL 2
REMARK VINA RESULT:      -7.7      0.953      1.119
REMARK  Name = 
REMARK  4 active torsions:
REMARK  status: ('A' for Active; 'I' for Inactive)
REMARK    1  A    between atoms: C_2  and  C_16
REMARK    2  A    between atoms: N_3  and  C_4
REMARK    3  A    between atoms: C_7  and  C_8
REMARK    4  A    between atoms: C_19  and  C_20
REMARK                            x       y       z     vdW  Elec       q    Type
REMARK                         _______ _______ _______ _____ _____    ______ ____
ROOT
ATOM      1  O   UNL     1       1.077   5.722  20.803  0.00  0.00    +0.000 OA
ATOM      2  C   UNL     1       2.082   6.182  20.253  0.00  0.00    +0.000 C 
ATOM      3  N   UNL     1       2.347   7.537  20.071  0.00  0.00    +0.000 N 
ATOM      4  H   UNL     1       3.126   7.778  19.462  0.00  0.00    +0.000 HD
ENDROOT
BRANCH   3   5
ATOM      5  C   UNL     1       1.485   8.570  20.511  0.00  0.00    +0.000 A 
ATOM      6  C   UNL     1       1.233   8.781  21.869  0.00  0.00    +0.000 A 
ATOM      7  C   UNL     1       0.319   9.748  22.293  0.00  0.00    +0.000 A 
ATOM      8  C   UNL     1      -0.303  10.589  21.370  0.00  0.00    +0.000 A 
ATOM      9  C   UNL     1      -0.048  10.386  20.004  0.00  0.00    +0.000 A 
ATOM     10  C   UNL     1       0.846   9.390  19.580  0.00  0.00    +0.000 A 
BRANCH   8  11
ATOM     11  C   UNL     1      -1.177  11.730  21.841  0.00  0.00    +0.000 C 
ATOM     12  C   UNL     1      -1.939  11.397  23.155  0.00  0.00    +0.000 C 
ATOM     13  N   UNL     1      -2.817  12.509  23.589  0.00  0.00    +0.000 NA
ATOM     14  C   UNL     1      -3.715  12.849  22.467  0.00  0.00    +0.000 C 
ATOM     15  C   UNL     1      -2.934  13.161  21.183  0.00  0.00    +0.000 C 
ATOM     16  O   UNL     1      -2.106  12.058  20.794  0.00  0.00    +0.000 OA
ATOM     17  H   UNL     1      -2.227  13.320  23.778  0.00  0.00    +0.000 HD
ENDBRANCH   8  11
ENDBRANCH   3   5
BRANCH   2  18
ATOM     18  C   UNL     1       3.050   5.257  19.653  0.00  0.00    +0.000 A 
ATOM     19  C   UNL     1       3.234   3.949  20.068  0.00  0.00    +0.000 A 
ATOM     20  S   UNL     1       4.327   3.144  19.025  0.00  0.00    +0.000 S 
ATOM     21  C   UNL     1       4.528   4.598  18.122  0.00  0.00    +0.000 A 
ATOM     22  N   UNL     1       3.820   5.628  18.556  0.00  0.00    +0.000 NA
BRANCH  21  23
ATOM     23  C   UNL     1       5.412   4.664  16.950  0.00  0.00    +0.000 A 
ATOM     24  C   UNL     1       6.577   5.420  16.994  0.00  0.00    +0.000 A 
ATOM     25  N   UNL     1       7.419   5.561  15.942  0.00  0.00    +0.000 NA
ATOM     26  C   UNL     1       7.038   4.910  14.818  0.00  0.00    +0.000 A 
ATOM     27  C   UNL     1       5.881   4.155  14.755  0.00  0.00    +0.000 A 
ATOM     28  N   UNL     1       5.047   4.000  15.817  0.00  0.00    +0.000 NA
ENDBRANCH  21  23
ENDBRANCH   2  18
TORSDOF 4
ENDMDL
MODEL 3
REMARK VINA RESULT:      -7.5      3.491     10.587
REMARK  Name = 
REMARK  4 active torsions:
REMARK  status: ('A' for Active; 'I' for Inactive)
REMARK    1  A    between atoms: C_2  and  C_16
REMARK    2  A    between atoms: N_3  and  C_4
REMARK    3  A    between atoms: C_7  and  C_8
REMARK    4  A    between atoms: C_19  and  C_20
REMARK                            x       y       z     vdW  Elec       q    Type
REMARK                         _______ _______ _______ _____ _____    ______ ____
ROOT
ATOM      1  O   UNL     1       1.402   9.827  22.285  0.00  0.00    +0.000 OA
ATOM      2  C   UNL     1       0.663  10.271  21.402  0.00  0.00    +0.000 C 
ATOM      3  N   UNL     1       0.636   9.826  20.082  0.00  0.00    +0.000 N 
ATOM      4  H   UNL     1       0.100  10.381  19.419  0.00  0.00    +0.000 HD
ENDROOT
BRANCH   3   5
ATOM      5  C   UNL     1       1.462   8.788  19.588  0.00  0.00    +0.000 A 
ATOM      6  C   UNL     1       2.066   8.874  18.330  0.00  0.00    +0.000 A 
ATOM      7  C   UNL     1       2.812   7.813  17.813  0.00  0.00    +0.000 A 
ATOM      8  C   UNL     1       3.046   6.671  18.579  0.00  0.00    +0.000 A 
ATOM      9  C   UNL     1       2.447   6.583  19.847  0.00  0.00    +0.000 A 
ATOM     10  C   UNL     1       1.669   7.637  20.348  0.00  0.00    +0.000 A 
BRANCH   8  11
ATOM     11  C   UNL     1       3.975   5.587  18.077  0.00  0.00    +0.000 C 
ATOM     12  C   UNL     1       5.028   5.163  19.140  0.00  0.00    +0.000 C 
ATOM     13  N   UNL     1       5.953   4.125  18.627  0.00  0.00    +0.000 NA
ATOM     14  C   UNL     1       6.558   4.627  17.377  0.00  0.00    +0.000 C 
ATOM     15  C   UNL     1       5.494   5.048  16.354  0.00  0.00    +0.000 C 
ATOM     16  O   UNL     1       4.628   6.059  16.886  0.00  0.00    +0.000 OA
ATOM     17  H   UNL     1       5.400   3.296  18.399  0.00  0.00    +0.000 HD
ENDBRANCH   8  11
ENDBRANCH   3   5
BRANCH   2  18
ATOM     18  C   UNL     1      -0.205  11.413  21.707  0.00  0.00    +0.000 A 
ATOM     19  C   UNL     1       0.097  12.725  21.384  0.00  0.00    +0.000 A 
ATOM     20  S   UNL     1      -1.227  13.746  21.753  0.00  0.00    +0.000 S 
ATOM     21  C   UNL     1      -2.095  12.390  22.369  0.00  0.00    +0.000 A 
ATOM     22  N   UNL     1      -1.451  11.236  22.299  0.00  0.00    +0.000 NA
BRANCH  21  23
ATOM     23  C   UNL     1      -3.454  12.524  22.909  0.00  0.00    +0.000 A 
ATOM     24  C   UNL     1      -4.455  13.118  22.149  0.00  0.00    +0.000 A 
ATOM     25  N   UNL     1      -5.719  13.312  22.594  0.00  0.00    +0.000 NA
ATOM     26  C   UNL     1      -5.948  12.887  23.858  0.00  0.00    +0.000 A 
ATOM     27  C   UNL     1      -4.964  12.295  24.631  0.00  0.00    +0.000 A 
ATOM     28  N   UNL     1      -3.702  12.086  24.176  0.00  0.00    +0.000 NA
ENDBRANCH  21  23
ENDBRANCH   2  18
TORSDOF 4
ENDMDL
MODEL 4
REMARK VINA RESULT:      -7.5      1.165      1.238
REMARK  Name = 
REMARK  4 active torsions:
REMARK  status: ('A' for Active; 'I' for Inactive)
REMARK    1  A    between atoms: C_2  and  C_16
REMARK    2  A    between atoms: N_3  and  C_4
REMARK    3  A    between atoms: C_7  and  C_8
REMARK    4  A    between atoms: C_19  and  C_20
REMARK                            x       y       z     vdW  Elec       q    Type
REMARK                         _______ _______ _______ _____ _____    ______ ____
ROOT
ATOM      1  O   UNL     1       1.945   8.588  18.579  0.00  0.00    +0.000 OA
ATOM      2  C   UNL     1       2.149   7.720  19.433  0.00  0.00    +0.000 C 
ATOM      3  N   UNL     1       1.696   7.769  20.749  0.00  0.00    +0.000 N 
ATOM      4  H   UNL     1       2.068   7.074  21.392  0.00  0.00    +0.000 HD
ENDROOT
BRANCH   3   5
ATOM      5  C   UNL     1       0.925   8.834  21.274  0.00  0.00    +0.000 A 
ATOM      6  C   UNL     1       0.569   8.880  22.625  0.00  0.00    +0.000 A 
ATOM      7  C   UNL     1      -0.260   9.889  23.120  0.00  0.00    +0.000 A 
ATOM      8  C   UNL     1      -0.684  10.928  22.292  0.00  0.00    +0.000 A 
ATOM      9  C   UNL     1      -0.324  10.891  20.935  0.00  0.00    +0.000 A 
ATOM     10  C   UNL     1       0.481   9.856  20.434  0.00  0.00    +0.000 A 
BRANCH   8  11
ATOM     11  C   UNL     1      -1.458  12.097  22.862  0.00  0.00    +0.000 C 
ATOM     12  C   UNL     1      -2.536  12.636  21.880  0.00  0.00    +0.000 C 
ATOM     13  N   UNL     1      -3.265  13.800  22.436  0.00  0.00    +0.000 NA
ATOM     14  C   UNL     1      -2.272  14.821  22.827  0.00  0.00    +0.000 C 
ATOM     15  C   UNL     1      -1.216  14.254  23.786  0.00  0.00    +0.000 C 
ATOM     16  O   UNL     1      -0.529  13.138  23.207  0.00  0.00    +0.000 OA
ATOM     17  H   UNL     1      -3.751  13.493  23.280  0.00  0.00    +0.000 HD
ENDBRANCH   8  11
ENDBRANCH   3   5
BRANCH   2  18
ATOM     18  C   UNL     1       3.006   6.579  19.096  0.00  0.00    +0.000 A 
ATOM     19  C   UNL     1       2.987   5.368  19.768  0.00  0.00    +0.000 A 
ATOM     20  S   UNL     1       4.005   4.238  18.983  0.00  0.00    +0.000 S 
ATOM     21  C   UNL     1       4.448   5.443  17.833  0.00  0.00    +0.000 A 
ATOM     22  N   UNL     1       3.870   6.621  18.007  0.00  0.00    +0.000 NA
BRANCH  21  23
ATOM     23  C   UNL     1       5.386   5.159  16.738  0.00  0.00    +0.000 A 
ATOM     24  C   UNL     1       6.580   5.863  16.640  0.00  0.00    +0.000 A 
ATOM     25  N   UNL     1       7.474   5.686  15.638  0.00  0.00    +0.000 NA
ATOM     26  C   UNL     1       7.116   4.764  14.714  0.00  0.00    +0.000 A 
ATOM     27  C   UNL     1       5.931   4.055  14.794  0.00  0.00    +0.000 A 
ATOM     28  N   UNL     1       5.044   4.222  15.809  0.00  0.00    +0.000 NA
ENDBRANCH  21  23
ENDBRANCH   2  18
TORSDOF 4
ENDMDL
MODEL 5
REMARK VINA RESULT:      -7.4      1.400      1.811
REMARK  Name = 
REMARK  4 active torsions:
REMARK  status: ('A' for Active; 'I' for Inactive)
REMARK    1  A    between atoms: C_2  and  C_16
REMARK    2  A    between atoms: N_3  and  C_4
REMARK    3  A    between atoms: C_7  and  C_8
REMARK    4  A    between atoms: C_19  and  C_20
REMARK                            x       y       z     vdW  Elec       q    Type
REMARK                         _______ _______ _______ _____ _____    ______ ____
ROOT
ATOM      1  O   UNL     1       1.775   8.707  18.716  0.00  0.00    +0.000 OA
ATOM      2  C   UNL     1       1.965   7.869  19.602  0.00  0.00    +0.000 C 
ATOM      3  N   UNL     1       1.532   7.985  20.920  0.00  0.00    +0.000 N 
ATOM      4  H   UNL     1       1.892   7.305  21.587  0.00  0.00    +0.000 HD
ENDROOT
BRANCH   3   5
ATOM      5  C   UNL     1       0.800   9.093  21.410  0.00  0.00    +0.000 A 
ATOM      6  C   UNL     1       0.873  10.346  20.794  0.00  0.00    +0.000 A 
ATOM      7  C   UNL     1       0.214  11.454  21.330  0.00  0.00    +0.000 A 
ATOM      8  C   UNL     1      -0.607  11.318  22.449  0.00  0.00    +0.000 A 
ATOM      9  C   UNL     1      -0.690  10.060  23.068  0.00  0.00    +0.000 A 
ATOM     10  C   UNL     1       0.002   8.956  22.546  0.00  0.00    +0.000 A 
BRANCH   8  11
ATOM     11  C   UNL     1      -1.435  12.486  22.939  0.00  0.00    +0.000 C 
ATOM     12  C   UNL     1      -2.875  12.067  23.352  0.00  0.00    +0.000 C 
ATOM     13  N   UNL     1      -3.687  13.223  23.799  0.00  0.00    +0.000 NA
ATOM     14  C   UNL     1      -3.662  14.242  22.730  0.00  0.00    +0.000 C 
ATOM     15  C   UNL     1      -2.228  14.625  22.338  0.00  0.00    +0.000 C 
ATOM     16  O   UNL     1      -1.482  13.482  21.903  0.00  0.00    +0.000 OA
ATOM     17  H   UNL     1      -3.238  13.621  24.625  0.00  0.00    +0.000 HD
ENDBRANCH   8  11
ENDBRANCH   3   5
BRANCH   2  18
ATOM     18  C   UNL     1       2.784   6.689  19.302  0.00  0.00    +0.000 A 
ATOM     19  C   UNL     1       2.669   5.477  19.960  0.00  0.00    +0.000 A 
ATOM     20  S   UNL     1       3.673   4.304  19.221  0.00  0.00    +0.000 S 
ATOM     21  C   UNL     1       4.236   5.493  18.109  0.00  0.00    +0.000 A 
ATOM     22  N   UNL     1       3.707   6.697  18.262  0.00  0.00    +0.000 NA
BRANCH  21  23
ATOM     23  C   UNL     1       5.218   5.171  17.064  0.00  0.00    +0.000 A 
ATOM     24  C   UNL     1       6.290   6.022  16.825  0.00  0.00    +0.000 A 
ATOM     25  N   UNL     1       7.211   5.814  15.854  0.00  0.00    +0.000 NA
ATOM     26  C   UNL     1       7.010   4.702  15.110  0.00  0.00    +0.000 A 
ATOM     27  C   UNL     1       5.947   3.843  15.332  0.00  0.00    +0.000 A 
ATOM     28  N   UNL     1       5.035   4.046  16.318  0.00  0.00    +0.000 NA
ENDBRANCH  21  23
ENDBRANCH   2  18
TORSDOF 4
ENDMDL
MODEL 6
REMARK VINA RESULT:      -7.4      1.963      2.865
REMARK  Name = 
REMARK  4 active torsions:
REMARK  status: ('A' for Active; 'I' for Inactive)
REMARK    1  A    between atoms: C_2  and  C_16
REMARK    2  A    between atoms: N_3  and  C_4
REMARK    3  A    between atoms: C_7  and  C_8
REMARK    4  A    between atoms: C_19  and  C_20
REMARK                            x       y       z     vdW  Elec       q    Type
REMARK                         _______ _______ _______ _____ _____    ______ ____
ROOT
ATOM      1  O   UNL     1       2.316   5.582  18.166  0.00  0.00    +0.000 OA
ATOM      2  C   UNL     1       3.296   6.314  17.999  0.00  0.00    +0.000 C 
ATOM      3  N   UNL     1       3.307   7.694  18.188  0.00  0.00    +0.000 N 
ATOM      4  H   UNL     1       4.128   8.199  17.861  0.00  0.00    +0.000 HD
ENDROOT
BRANCH   3   5
ATOM      5  C   UNL     1       2.178   8.436  18.611  0.00  0.00    +0.000 A 
ATOM      6  C   UNL     1       1.447   9.224  17.717  0.00  0.00    +0.000 A 
ATOM      7  C   UNL     1       0.385  10.018  18.156  0.00  0.00    +0.000 A 
ATOM      8  C   UNL     1      -0.029   9.977  19.487  0.00  0.00    +0.000 A 
ATOM      9  C   UNL     1       0.698   9.181  20.388  0.00  0.00    +0.000 A 
ATOM     10  C   UNL     1       1.787   8.412  19.950  0.00  0.00    +0.000 A 
BRANCH   8  11
ATOM     11  C   UNL     1      -1.269  10.723  19.929  0.00  0.00    +0.000 C 
ATOM     12  C   UNL     1      -1.897  11.568  18.784  0.00  0.00    +0.000 C 
ATOM     13  N   UNL     1      -3.092  12.319  19.236  0.00  0.00    +0.000 NA
ATOM     14  C   UNL     1      -2.709  13.126  20.412  0.00  0.00    +0.000 C 
ATOM     15  C   UNL     1      -2.082  12.266  21.518  0.00  0.00    +0.000 C 
ATOM     16  O   UNL     1      -0.926  11.565  21.043  0.00  0.00    +0.000 OA
ATOM     17  H   UNL     1      -3.795  11.642  19.533  0.00  0.00    +0.000 HD
ENDBRANCH   8  11
ENDBRANCH   3   5
BRANCH   2  18
ATOM     18  C   UNL     1       4.537   5.733  17.476  0.00  0.00    +0.000 A 
ATOM     19  C   UNL     1       5.501   5.125  18.262  0.00  0.00    +0.000 A 
ATOM     20  S   UNL     1       6.716   4.429  17.277  0.00  0.00    +0.000 S 
ATOM     21  C   UNL     1       5.914   5.026  15.874  0.00  0.00    +0.000 A 
ATOM     22  N   UNL     1       4.798   5.698  16.111  0.00  0.00    +0.000 NA
BRANCH  21  23
ATOM     23  C   UNL     1       6.436   4.781  14.522  0.00  0.00    +0.000 A 
ATOM     24  C   UNL     1       5.843   3.825  13.706  0.00  0.00    +0.000 A 
ATOM     25  N   UNL     1       6.293   3.515  12.466  0.00  0.00    +0.000 NA
ATOM     26  C   UNL     1       7.385   4.208  12.068  0.00  0.00    +0.000 A 
ATOM     27  C   UNL     1       7.989   5.162  12.867  0.00  0.00    +0.000 A 
ATOM     28  N   UNL     1       7.526   5.483  14.104  0.00  0.00    +0.000 NA
ENDBRANCH  21  23
ENDBRANCH   2  18
TORSDOF 4
ENDMDL
MODEL 7
REMARK VINA RESULT:      -7.4      1.433      1.762
REMARK  Name = 
REMARK  4 active torsions:
REMARK  status: ('A' for Active; 'I' for Inactive)
REMARK    1  A    between atoms: C_2  and  C_16
REMARK    2  A    between atoms: N_3  and  C_4
REMARK    3  A    between atoms: C_7  and  C_8
REMARK    4  A    between atoms: C_19  and  C_20
REMARK                            x       y       z     vdW  Elec       q    Type
REMARK                         _______ _______ _______ _____ _____    ______ ____
ROOT
ATOM      1  O   UNL     1       1.770   8.337  18.187  0.00  0.00    +0.000 OA
ATOM      2  C   UNL     1       2.194   7.674  19.138  0.00  0.00    +0.000 C 
ATOM      3  N   UNL     1       1.878   7.899  20.475  0.00  0.00    +0.000 N 
ATOM      4  H   UNL     1       2.419   7.387  21.169  0.00  0.00    +0.000 HD
ENDROOT
BRANCH   3   5
ATOM      5  C   UNL     1       1.010   8.927  20.914  0.00  0.00    +0.000 A 
ATOM      6  C   UNL     1       0.997  10.182  20.298  0.00  0.00    +0.000 A 
ATOM      7  C   UNL     1       0.199  11.218  20.787  0.00  0.00    +0.000 A 
ATOM      8  C   UNL     1      -0.674  10.999  21.853  0.00  0.00    +0.000 A 
ATOM      9  C   UNL     1      -0.671   9.737  22.470  0.00  0.00    +0.000 A 
ATOM     10  C   UNL     1       0.159   8.708  21.997  0.00  0.00    +0.000 A 
BRANCH   8  11
ATOM     11  C   UNL     1      -1.644  12.077  22.285  0.00  0.00    +0.000 C 
ATOM     12  C   UNL     1      -0.932  13.415  22.636  0.00  0.00    +0.000 C 
ATOM     13  N   UNL     1      -1.887  14.453  23.089  0.00  0.00    +0.000 NA
ATOM     14  C   UNL     1      -2.670  13.899  24.212  0.00  0.00    +0.000 C 
ATOM     15  C   UNL     1      -3.349  12.575  23.837  0.00  0.00    +0.000 C 
ATOM     16  O   UNL     1      -2.391  11.596  23.415  0.00  0.00    +0.000 OA
ATOM     17  H   UNL     1      -2.531  14.645  22.320  0.00  0.00    +0.000 HD
ENDBRANCH   8  11
ENDBRANCH   3   5
BRANCH   2  18
ATOM     18  C   UNL     1       3.178   6.616  18.884  0.00  0.00    +0.000 A 
ATOM     19  C   UNL     1       3.398   5.542  19.729  0.00  0.00    +0.000 A 
ATOM     20  S   UNL     1       4.500   4.442  19.016  0.00  0.00    +0.000 S 
ATOM     21  C   UNL     1       4.655   5.488  17.655  0.00  0.00    +0.000 A 
ATOM     22  N   UNL     1       3.926   6.591  17.712  0.00  0.00    +0.000 NA
BRANCH  21  23
ATOM     23  C   UNL     1       5.523   5.153  16.518  0.00  0.00    +0.000 A 
ATOM     24  C   UNL     1       6.760   5.771  16.377  0.00  0.00    +0.000 A 
ATOM     25  N   UNL     1       7.597   5.544  15.335  0.00  0.00    +0.000 NA
ATOM     26  C   UNL     1       7.135   4.664  14.417  0.00  0.00    +0.000 A 
ATOM     27  C   UNL     1       5.905   4.041  14.540  0.00  0.00    +0.000 A 
ATOM     28  N   UNL     1       5.076   4.257  15.594  0.00  0.00    +0.000 NA
ENDBRANCH  21  23
ENDBRANCH   2  18
TORSDOF 4
ENDMDL
MODEL 8
REMARK VINA RESULT:      -7.3      3.363     10.620
REMARK  Name = 
REMARK  4 active torsions:
REMARK  status: ('A' for Active; 'I' for Inactive)
REMARK    1  A    between atoms: C_2  and  C_16
REMARK    2  A    between atoms: N_3  and  C_4
REMARK    3  A    between atoms: C_7  and  C_8
REMARK    4  A    between atoms: C_19  and  C_20
REMARK                            x       y       z     vdW  Elec       q    Type
REMARK                         _______ _______ _______ _____ _____    ______ ____
ROOT
ATOM      1  O   UNL     1       1.522  10.217  21.820  0.00  0.00    +0.000 OA
ATOM      2  C   UNL     1       0.619  10.386  20.995  0.00  0.00    +0.000 C 
ATOM      3  N   UNL     1       0.502   9.704  19.786  0.00  0.00    +0.000 N 
ATOM      4  H   UNL     1      -0.192  10.050  19.126  0.00  0.00    +0.000 HD
ENDROOT
BRANCH   3   5
ATOM      5  C   UNL     1       1.413   8.711  19.355  0.00  0.00    +0.000 A 
ATOM      6  C   UNL     1       1.694   7.589  20.139  0.00  0.00    +0.000 A 
ATOM      7  C   UNL     1       2.654   6.654  19.746  0.00  0.00    +0.000 A 
ATOM      8  C   UNL     1       3.297   6.773  18.513  0.00  0.00    +0.000 A 
ATOM      9  C   UNL     1       3.012   7.895  17.717  0.00  0.00    +0.000 A 
ATOM     10  C   UNL     1       2.071   8.850  18.133  0.00  0.00    +0.000 A 
BRANCH   8  11
ATOM     11  C   UNL     1       4.226   5.684  18.024  0.00  0.00    +0.000 C 
ATOM     12  C   UNL     1       5.108   5.096  19.162  0.00  0.00    +0.000 C 
ATOM     13  N   UNL     1       6.037   4.053  18.666  0.00  0.00    +0.000 NA
ATOM     14  C   UNL     1       6.825   4.629  17.558  0.00  0.00    +0.000 C 
ATOM     15  C   UNL     1       5.926   5.211  16.458  0.00  0.00    +0.000 C 
ATOM     16  O   UNL     1       5.052   6.221  16.977  0.00  0.00    +0.000 OA
ATOM     17  H   UNL     1       5.477   3.286  18.290  0.00  0.00    +0.000 HD
ENDBRANCH   8  11
ENDBRANCH   3   5
BRANCH   2  18
ATOM     18  C   UNL     1      -0.372  11.441  21.231  0.00  0.00    +0.000 A 
ATOM     19  C   UNL     1      -1.423  11.724  20.374  0.00  0.00    +0.000 A 
ATOM     20  S   UNL     1      -2.452  12.903  21.069  0.00  0.00    +0.000 S 
ATOM     21  C   UNL     1      -1.408  13.001  22.437  0.00  0.00    +0.000 A 
ATOM     22  N   UNL     1      -0.356  12.200  22.396  0.00  0.00    +0.000 NA
BRANCH  21  23
ATOM     23  C   UNL     1      -1.693  13.901  23.563  0.00  0.00    +0.000 A 
ATOM     24  C   UNL     1      -2.963  13.936  24.127  0.00  0.00    +0.000 A 
ATOM     25  N   UNL     1      -3.311  14.767  25.139  0.00  0.00    +0.000 NA
ATOM     26  C   UNL     1      -2.322  15.584  25.569  0.00  0.00    +0.000 A 
ATOM     27  C   UNL     1      -1.052  15.565  25.019  0.00  0.00    +0.000 A 
ATOM     28  N   UNL     1      -0.701  14.718  24.016  0.00  0.00    +0.000 NA
ENDBRANCH  21  23
ENDBRANCH   2  18
TORSDOF 4
ENDMDL
MODEL 9
REMARK VINA RESULT:      -7.3      1.628      1.855
REMARK  Name = 
REMARK  4 active torsions:
REMARK  status: ('A' for Active; 'I' for Inactive)
REMARK    1  A    between atoms: C_2  and  C_16
REMARK    2  A    between atoms: N_3  and  C_4
REMARK    3  A    between atoms: C_7  and  C_8
REMARK    4  A    between atoms: C_19  and  C_20
REMARK                            x       y       z     vdW  Elec       q    Type
REMARK                         _______ _______ _______ _____ _____    ______ ____
ROOT
ATOM      1  O   UNL     1       1.507   7.190  20.707  0.00  0.00    +0.000 OA
ATOM      2  C   UNL     1       2.151   7.330  19.663  0.00  0.00    +0.000 C 
ATOM      3  N   UNL     1       2.003   8.385  18.766  0.00  0.00    +0.000 N 
ATOM      4  H   UNL     1       2.476   8.297  17.869  0.00  0.00    +0.000 HD
ENDROOT
BRANCH   3   5
ATOM      5  C   UNL     1       1.087   9.447  18.950  0.00  0.00    +0.000 A 
ATOM      6  C   UNL     1       1.203  10.333  20.026  0.00  0.00    +0.000 A 
ATOM      7  C   UNL     1       0.250  11.328  20.248  0.00  0.00    +0.000 A 
ATOM      8  C   UNL     1      -0.799  11.520  19.349  0.00  0.00    +0.000 A 
ATOM      9  C   UNL     1      -0.916  10.638  18.262  0.00  0.00    +0.000 A 
ATOM     10  C   UNL     1       0.025   9.616  18.061  0.00  0.00    +0.000 A 
BRANCH   8  11
ATOM     11  C   UNL     1      -1.744  12.690  19.510  0.00  0.00    +0.000 C 
ATOM     12  C   UNL     1      -1.007  14.006  19.888  0.00  0.00    +0.000 C 
ATOM     13  N   UNL     1      -1.945  15.138  20.076  0.00  0.00    +0.000 NA
ATOM     14  C   UNL     1      -2.959  14.733  21.071  0.00  0.00    +0.000 C 
ATOM     15  C   UNL     1      -3.660  13.426  20.675  0.00  0.00    +0.000 C 
ATOM     16  O   UNL     1      -2.719  12.357  20.513  0.00  0.00    +0.000 OA
ATOM     17  H   UNL     1      -2.422  15.302  19.188  0.00  0.00    +0.000 HD
ENDBRANCH   8  11
ENDBRANCH   3   5
BRANCH   2  18
ATOM     18  C   UNL     1       3.090   6.277  19.260  0.00  0.00    +0.000 A 
ATOM     19  C   UNL     1       3.239   5.073  19.927  0.00  0.00    +0.000 A 
ATOM     20  S   UNL     1       4.304   4.046  19.065  0.00  0.00    +0.000 S 
ATOM     21  C   UNL     1       4.542   5.285  17.892  0.00  0.00    +0.000 A 
ATOM     22  N   UNL     1       3.865   6.401  18.112  0.00  0.00    +0.000 NA
BRANCH  21  23
ATOM     23  C   UNL     1       5.421   5.092  16.731  0.00  0.00    +0.000 A 
ATOM     24  C   UNL     1       6.613   5.799  16.630  0.00  0.00    +0.000 A 
ATOM     25  N   UNL     1       7.454   5.705  15.572  0.00  0.00    +0.000 NA
ATOM     26  C   UNL     1       7.044   4.863  14.595  0.00  0.00    +0.000 A 
ATOM     27  C   UNL     1       5.861   4.151  14.676  0.00  0.00    +0.000 A 
ATOM     28  N   UNL     1       5.027   4.235  15.746  0.00  0.00    +0.000 NA
ENDBRANCH  21  23
ENDBRANCH   2  18
TORSDOF 4
ENDMDL
