MODEL 1
REMARK VINA RESULT:      -7.8      0.000      0.000
REMARK  Name = 
REMARK  9 active torsions:
REMARK  status: ('A' for Active; 'I' for Inactive)
REMARK    1  A    between atoms: C_1  and  C_2
REMARK    2  A    between atoms: N_4  and  C_5
REMARK    3  A    between atoms: C_5  and  C_6
REMARK    4  A    between atoms: C_9  and  C_10
REMARK    5  A    between atoms: N_12  and  C_13
REMARK    6  A    between atoms: C_13  and  C_14
REMARK    7  A    between atoms: C_14  and  C_15
REMARK    8  A    between atoms: C_15  and  N_16
REMARK    9  A    between atoms: C_23  and  C_24
REMARK                            x       y       z     vdW  Elec       q    Type
REMARK                         _______ _______ _______ _____ _____    ______ ____
ROOT
ATOM      1  C   UNL     1       1.108   9.605  19.016  0.00  0.00    +0.000 A 
ATOM      2  C   UNL     1       1.766   9.490  17.810  0.00  0.00    +0.000 A 
ATOM      3  C   UNL     1       2.485   8.281  17.862  0.00  0.00    +0.000 A 
ATOM      4  C   UNL     1       2.269   7.724  19.108  0.00  0.00    +0.000 A 
ATOM      5  O   UNL     1       1.427   8.541  19.829  0.00  0.00    +0.000 OA
ENDROOT
BRANCH   4   6
ATOM      6  C   UNL     1       2.777   6.471  19.639  0.00  0.00    +0.000 C 
ATOM      7  O   UNL     1       3.911   6.068  19.385  0.00  0.00    +0.000 OA
ATOM      8  N   UNL     1       1.928   5.757  20.457  0.00  0.00    +0.000 N 
ATOM      9  H   UNL     1       1.018   6.149  20.664  0.00  0.00    +0.000 HD
BRANCH   8  10
ATOM     10  C   UNL     1       2.314   4.463  21.000  0.00  0.00    +0.000 C 
BRANCH  10  11
ATOM     11  C   UNL     1       1.159   3.464  21.082  0.00  0.00    +0.000 C 
BRANCH  11  12
ATOM     12  C   UNL     1       0.980   2.693  19.779  0.00  0.00    +0.000 C 
BRANCH  12  13
ATOM     13  N   UNL     1       2.102   2.879  18.876  0.00  0.00    +0.000 N 
ATOM     14  C   UNL     1       3.357   2.193  19.048  0.00  0.00    +0.000 C 
ATOM     15  C   UNL     1       4.286   2.904  18.084  0.00  0.00    +0.000 C 
ATOM     16  C   UNL     1       3.364   3.423  16.987  0.00  0.00    +0.000 C 
ATOM     17  C   UNL     1       2.052   3.620  17.707  0.00  0.00    +0.000 C 
ATOM     18  O   UNL     1       1.106   4.268  17.293  0.00  0.00    +0.000 OA
ENDBRANCH  12  13
ENDBRANCH  11  12
ENDBRANCH  10  11
ENDBRANCH   8  10
ENDBRANCH   4   6
BRANCH   1  19
ATOM     19  C   UNL     1       0.159  10.630  19.538  0.00  0.00    +0.000 C 
BRANCH  19  23
ATOM     20  C   UNL     1      -2.793   9.647  15.799  0.00  0.00    +0.000 C 
ATOM     21  C   UNL     1      -2.342  10.247  17.081  0.00  0.00    +0.000 A 
ATOM     22  N   UNL     1      -1.129   9.971  17.581  0.00  0.00    +0.000 NA
ATOM     23  N   UNL     1      -1.061  10.693  18.728  0.00  0.00    +0.000 N 
ATOM     24  C   UNL     1      -2.187  11.456  18.949  0.00  0.00    +0.000 A 
ATOM     25  C   UNL     1      -2.365  12.370  20.103  0.00  0.00    +0.000 C 
ATOM     26  C   UNL     1      -3.037  11.141  17.915  0.00  0.00    +0.000 A 
ATOM     27 BR   UNL     1      -4.776  11.772  17.622  0.00  0.00    +0.000 Br
ENDBRANCH  19  23
ENDBRANCH   1  19
TORSDOF 7
ENDMDL
MODEL 2
REMARK VINA RESULT:      -7.7      5.967      9.233
REMARK  Name = 
REMARK  9 active torsions:
REMARK  status: ('A' for Active; 'I' for Inactive)
REMARK    1  A    between atoms: C_1  and  C_2
REMARK    2  A    between atoms: N_4  and  C_5
REMARK    3  A    between atoms: C_5  and  C_6
REMARK    4  A    between atoms: C_9  and  C_10
REMARK    5  A    between atoms: N_12  and  C_13
REMARK    6  A    between atoms: C_13  and  C_14
REMARK    7  A    between atoms: C_14  and  C_15
REMARK    8  A    between atoms: C_15  and  N_16
REMARK    9  A    between atoms: C_23  and  C_24
REMARK                            x       y       z     vdW  Elec       q    Type
REMARK                         _______ _______ _______ _____ _____    ______ ____
ROOT
ATOM      1  C   UNL     1       4.953   4.382  16.521  0.00  0.00    +0.000 A 
ATOM      2  C   UNL     1       5.981   4.032  15.673  0.00  0.00    +0.000 A 
ATOM      3  C   UNL     1       7.134   4.679  16.156  0.00  0.00    +0.000 A 
ATOM      4  C   UNL     1       6.759   5.427  17.256  0.00  0.00    +0.000 A 
ATOM      5  O   UNL     1       5.411   5.255  17.482  0.00  0.00    +0.000 OA
ENDROOT
BRANCH   4   6
ATOM      6  C   UNL     1       7.590   6.256  18.112  0.00  0.00    +0.000 C 
ATOM      7  O   UNL     1       8.128   5.812  19.125  0.00  0.00    +0.000 OA
ATOM      8  N   UNL     1       7.758   7.569  17.726  0.00  0.00    +0.000 N 
ATOM      9  H   UNL     1       7.322   7.875  16.865  0.00  0.00    +0.000 HD
BRANCH   8  10
ATOM     10  C   UNL     1       8.524   8.501  18.538  0.00  0.00    +0.000 C 
BRANCH  10  11
ATOM     11  C   UNL     1       8.362   9.962  18.112  0.00  0.00    +0.000 C 
BRANCH  11  12
ATOM     12  C   UNL     1       9.655  10.750  18.282  0.00  0.00    +0.000 C 
BRANCH  12  13
ATOM     13  N   UNL     1       9.601  11.649  19.421  0.00  0.00    +0.000 N 
ATOM     14  C   UNL     1       9.371  11.185  20.764  0.00  0.00    +0.000 C 
ATOM     15  C   UNL     1       9.107  12.460  21.541  0.00  0.00    +0.000 C 
ATOM     16  C   UNL     1       9.875  13.531  20.777  0.00  0.00    +0.000 C 
ATOM     17  C   UNL     1       9.883  13.004  19.363  0.00  0.00    +0.000 C 
ATOM     18  O   UNL     1      10.152  13.652  18.366  0.00  0.00    +0.000 OA
ENDBRANCH  12  13
ENDBRANCH  11  12
ENDBRANCH  10  11
ENDBRANCH   8  10
ENDBRANCH   4   6
BRANCH   1  19
ATOM     19  C   UNL     1       3.517   3.980  16.563  0.00  0.00    +0.000 C 
BRANCH  19  23
ATOM     20  C   UNL     1       1.547   5.900  20.575  0.00  0.00    +0.000 C 
ATOM     21  C   UNL     1       2.125   4.864  19.680  0.00  0.00    +0.000 A 
ATOM     22  N   UNL     1       2.511   5.169  18.433  0.00  0.00    +0.000 NA
ATOM     23  N   UNL     1       2.993   4.003  17.931  0.00  0.00    +0.000 N 
ATOM     24  C   UNL     1       2.962   2.973  18.846  0.00  0.00    +0.000 A 
ATOM     25  C   UNL     1       3.464   1.603  18.579  0.00  0.00    +0.000 C 
ATOM     26  C   UNL     1       2.363   3.506  19.962  0.00  0.00    +0.000 A 
ATOM     27 BR   UNL     1       1.949   2.642  21.571  0.00  0.00    +0.000 Br
ENDBRANCH  19  23
ENDBRANCH   1  19
TORSDOF 7
ENDMDL
MODEL 3
REMARK VINA RESULT:      -7.7      1.301      2.306
REMARK  Name = 
REMARK  9 active torsions:
REMARK  status: ('A' for Active; 'I' for Inactive)
REMARK    1  A    between atoms: C_1  and  C_2
REMARK    2  A    between atoms: N_4  and  C_5
REMARK    3  A    between atoms: C_5  and  C_6
REMARK    4  A    between atoms: C_9  and  C_10
REMARK    5  A    between atoms: N_12  and  C_13
REMARK    6  A    between atoms: C_13  and  C_14
REMARK    7  A    between atoms: C_14  and  C_15
REMARK    8  A    between atoms: C_15  and  N_16
REMARK    9  A    between atoms: C_23  and  C_24
REMARK                            x       y       z     vdW  Elec       q    Type
REMARK                         _______ _______ _______ _____ _____    ______ ____
ROOT
ATOM      1  C   UNL     1       0.743  10.105  18.970  0.00  0.00    +0.000 A 
ATOM      2  C   UNL     1       1.611  10.361  17.930  0.00  0.00    +0.000 A 
ATOM      3  C   UNL     1       2.439   9.228  17.815  0.00  0.00    +0.000 A 
ATOM      4  C   UNL     1       2.069   8.342  18.809  0.00  0.00    +0.000 A 
ATOM      5  O   UNL     1       1.029   8.882  19.532  0.00  0.00    +0.000 OA
ENDROOT
BRANCH   4   6
ATOM      6  C   UNL     1       2.611   7.024  19.094  0.00  0.00    +0.000 C 
ATOM      7  O   UNL     1       2.437   6.469  20.177  0.00  0.00    +0.000 OA
ATOM      8  N   UNL     1       3.323   6.417  18.082  0.00  0.00    +0.000 N 
ATOM      9  H   UNL     1       3.407   6.901  17.196  0.00  0.00    +0.000 HD
BRANCH   8  10
ATOM     10  C   UNL     1       3.955   5.121  18.276  0.00  0.00    +0.000 C 
BRANCH  10  11
ATOM     11  C   UNL     1       3.550   4.078  17.233  0.00  0.00    +0.000 C 
BRANCH  11  12
ATOM     12  C   UNL     1       3.233   2.730  17.870  0.00  0.00    +0.000 C 
BRANCH  12  13
ATOM     13  N   UNL     1       2.647   2.874  19.191  0.00  0.00    +0.000 N 
ATOM     14  C   UNL     1       1.254   3.179  19.392  0.00  0.00    +0.000 C 
ATOM     15  C   UNL     1       1.173   3.518  20.867  0.00  0.00    +0.000 C 
ATOM     16  C   UNL     1       2.312   2.726  21.498  0.00  0.00    +0.000 C 
ATOM     17  C   UNL     1       3.316   2.617  20.377  0.00  0.00    +0.000 C 
ATOM     18  O   UNL     1       4.487   2.300  20.500  0.00  0.00    +0.000 OA
ENDBRANCH  12  13
ENDBRANCH  11  12
ENDBRANCH  10  11
ENDBRANCH   8  10
ENDBRANCH   4   6
BRANCH   1  19
ATOM     19  C   UNL     1      -0.390  10.892  19.536  0.00  0.00    +0.000 C 
BRANCH  19  23
ATOM     20  C   UNL     1      -2.984   9.782  15.573  0.00  0.00    +0.000 C 
ATOM     21  C   UNL     1      -2.663  10.404  16.884  0.00  0.00    +0.000 A 
ATOM     22  N   UNL     1      -1.486  10.176  17.484  0.00  0.00    +0.000 NA
ATOM     23  N   UNL     1      -1.540  10.906  18.627  0.00  0.00    +0.000 N 
ATOM     24  C   UNL     1      -2.708  11.627  18.748  0.00  0.00    +0.000 A 
ATOM     25  C   UNL     1      -3.014  12.540  19.875  0.00  0.00    +0.000 C 
ATOM     26  C   UNL     1      -3.457  11.277  17.650  0.00  0.00    +0.000 A 
ATOM     27 BR   UNL     1      -5.187  11.842  17.208  0.00  0.00    +0.000 Br
ENDBRANCH  19  23
ENDBRANCH   1  19
TORSDOF 7
ENDMDL
MODEL 4
REMARK VINA RESULT:      -7.7      6.704      9.785
REMARK  Name = 
REMARK  9 active torsions:
REMARK  status: ('A' for Active; 'I' for Inactive)
REMARK    1  A    between atoms: C_1  and  C_2
REMARK    2  A    between atoms: N_4  and  C_5
REMARK    3  A    between atoms: C_5  and  C_6
REMARK    4  A    between atoms: C_9  and  C_10
REMARK    5  A    between atoms: N_12  and  C_13
REMARK    6  A    between atoms: C_13  and  C_14
REMARK    7  A    between atoms: C_14  and  C_15
REMARK    8  A    between atoms: C_15  and  N_16
REMARK    9  A    between atoms: C_23  and  C_24
REMARK                            x       y       z     vdW  Elec       q    Type
REMARK                         _______ _______ _______ _____ _____    ______ ____
ROOT
ATOM      1  C   UNL     1       6.297   6.447  17.113  0.00  0.00    +0.000 A 
ATOM      2  C   UNL     1       7.174   5.784  17.944  0.00  0.00    +0.000 A 
ATOM      3  C   UNL     1       8.044   6.761  18.465  0.00  0.00    +0.000 A 
ATOM      4  C   UNL     1       7.688   7.973  17.905  0.00  0.00    +0.000 A 
ATOM      5  O   UNL     1       6.616   7.784  17.062  0.00  0.00    +0.000 OA
ENDROOT
BRANCH   4   6
ATOM      6  C   UNL     1       8.271   9.283  18.139  0.00  0.00    +0.000 C 
ATOM      7  O   UNL     1       7.979  10.258  17.449  0.00  0.00    +0.000 OA
ATOM      8  N   UNL     1       9.164   9.385  19.184  0.00  0.00    +0.000 N 
ATOM      9  H   UNL     1       9.343   8.561  19.744  0.00  0.00    +0.000 HD
BRANCH   8  10
ATOM     10  C   UNL     1       9.848  10.636  19.473  0.00  0.00    +0.000 C 
BRANCH  10  11
ATOM     11  C   UNL     1       9.416  11.281  20.791  0.00  0.00    +0.000 C 
BRANCH  11  12
ATOM     12  C   UNL     1      10.067  12.644  20.997  0.00  0.00    +0.000 C 
BRANCH  12  13
ATOM     13  N   UNL     1       9.507  13.656  20.119  0.00  0.00    +0.000 N 
ATOM     14  C   UNL     1       8.207  14.235  20.335  0.00  0.00    +0.000 C 
ATOM     15  C   UNL     1       7.934  14.990  19.049  0.00  0.00    +0.000 C 
ATOM     16  C   UNL     1       9.319  15.356  18.528  0.00  0.00    +0.000 C 
ATOM     17  C   UNL     1      10.193  14.254  19.075  0.00  0.00    +0.000 C 
ATOM     18  O   UNL     1      11.321  13.989  18.697  0.00  0.00    +0.000 OA
ENDBRANCH  12  13
ENDBRANCH  11  12
ENDBRANCH  10  11
ENDBRANCH   8  10
ENDBRANCH   4   6
BRANCH   1  19
ATOM     19  C   UNL     1       5.126   5.971  16.321  0.00  0.00    +0.000 C 
BRANCH  19  23
ATOM     20  C   UNL     1       3.362   1.786  18.062  0.00  0.00    +0.000 C 
ATOM     21  C   UNL     1       3.501   3.253  17.871  0.00  0.00    +0.000 A 
ATOM     22  N   UNL     1       4.437   3.755  17.054  0.00  0.00    +0.000 NA
ATOM     23  N   UNL     1       4.258   5.100  17.117  0.00  0.00    +0.000 N 
ATOM     24  C   UNL     1       3.201   5.462  17.923  0.00  0.00    +0.000 A 
ATOM     25  C   UNL     1       2.756   6.860  18.140  0.00  0.00    +0.000 C 
ATOM     26  C   UNL     1       2.734   4.281  18.449  0.00  0.00    +0.000 A 
ATOM     27 BR   UNL     1       1.339   4.038  19.675  0.00  0.00    +0.000 Br
ENDBRANCH  19  23
ENDBRANCH   1  19
TORSDOF 7
ENDMDL
MODEL 5
REMARK VINA RESULT:      -7.6      1.290      2.279
REMARK  Name = 
REMARK  9 active torsions:
REMARK  status: ('A' for Active; 'I' for Inactive)
REMARK    1  A    between atoms: C_1  and  C_2
REMARK    2  A    between atoms: N_4  and  C_5
REMARK    3  A    between atoms: C_5  and  C_6
REMARK    4  A    between atoms: C_9  and  C_10
REMARK    5  A    between atoms: N_12  and  C_13
REMARK    6  A    between atoms: C_13  and  C_14
REMARK    7  A    between atoms: C_14  and  C_15
REMARK    8  A    between atoms: C_15  and  N_16
REMARK    9  A    between atoms: C_23  and  C_24
REMARK                            x       y       z     vdW  Elec       q    Type
REMARK                         _______ _______ _______ _____ _____    ______ ____
ROOT
ATOM      1  C   UNL     1       1.280   9.069  19.800  0.00  0.00    +0.000 A 
ATOM      2  C   UNL     1       0.909   8.228  20.826  0.00  0.00    +0.000 A 
ATOM      3  C   UNL     1       1.599   7.018  20.619  0.00  0.00    +0.000 A 
ATOM      4  C   UNL     1       2.334   7.155  19.457  0.00  0.00    +0.000 A 
ATOM      5  O   UNL     1       2.134   8.416  18.941  0.00  0.00    +0.000 OA
ENDROOT
BRANCH   4   6
ATOM      6  C   UNL     1       3.224   6.192  18.831  0.00  0.00    +0.000 C 
ATOM      7  O   UNL     1       3.068   5.821  17.669  0.00  0.00    +0.000 OA
ATOM      8  N   UNL     1       4.265   5.720  19.602  0.00  0.00    +0.000 N 
ATOM      9  H   UNL     1       4.370   6.084  20.541  0.00  0.00    +0.000 HD
BRANCH   8  10
ATOM     10  C   UNL     1       5.183   4.713  19.094  0.00  0.00    +0.000 C 
BRANCH  10  11
ATOM     11  C   UNL     1       4.498   3.607  18.290  0.00  0.00    +0.000 C 
BRANCH  11  12
ATOM     12  C   UNL     1       4.107   2.424  19.169  0.00  0.00    +0.000 C 
BRANCH  12  13
ATOM     13  N   UNL     1       2.860   2.657  19.875  0.00  0.00    +0.000 N 
ATOM     14  C   UNL     1       2.795   2.803  21.306  0.00  0.00    +0.000 C 
ATOM     15  C   UNL     1       1.310   2.728  21.604  0.00  0.00    +0.000 C 
ATOM     16  C   UNL     1       0.646   3.243  20.333  0.00  0.00    +0.000 C 
ATOM     17  C   UNL     1       1.641   2.885  19.257  0.00  0.00    +0.000 C 
ATOM     18  O   UNL     1       1.415   2.864  18.059  0.00  0.00    +0.000 OA
ENDBRANCH  12  13
ENDBRANCH  11  12
ENDBRANCH  10  11
ENDBRANCH   8  10
ENDBRANCH   4   6
BRANCH   1  19
ATOM     19  C   UNL     1       0.930  10.488  19.501  0.00  0.00    +0.000 C 
BRANCH  19  23
ATOM     20  C   UNL     1      -2.679   9.760  16.322  0.00  0.00    +0.000 C 
ATOM     21  C   UNL     1      -1.991  10.267  17.537  0.00  0.00    +0.000 A 
ATOM     22  N   UNL     1      -0.707   9.964  17.778  0.00  0.00    +0.000 NA
ATOM     23  N   UNL     1      -0.420  10.601  18.942  0.00  0.00    +0.000 N 
ATOM     24  C   UNL     1      -1.480  11.336  19.426  0.00  0.00    +0.000 A 
ATOM     25  C   UNL     1      -1.431  12.162  20.657  0.00  0.00    +0.000 C 
ATOM     26  C   UNL     1      -2.511  11.092  18.551  0.00  0.00    +0.000 A 
ATOM     27 BR   UNL     1      -4.270  11.730  18.637  0.00  0.00    +0.000 Br
ENDBRANCH  19  23
ENDBRANCH   1  19
TORSDOF 7
ENDMDL
MODEL 6
REMARK VINA RESULT:      -7.4      1.888      2.733
REMARK  Name = 
REMARK  9 active torsions:
REMARK  status: ('A' for Active; 'I' for Inactive)
REMARK    1  A    between atoms: C_1  and  C_2
REMARK    2  A    between atoms: N_4  and  C_5
REMARK    3  A    between atoms: C_5  and  C_6
REMARK    4  A    between atoms: C_9  and  C_10
REMARK    5  A    between atoms: N_12  and  C_13
REMARK    6  A    between atoms: C_13  and  C_14
REMARK    7  A    between atoms: C_14  and  C_15
REMARK    8  A    between atoms: C_15  and  N_16
REMARK    9  A    between atoms: C_23  and  C_24
REMARK                            x       y       z     vdW  Elec       q    Type
REMARK                         _______ _______ _______ _____ _____    ______ ____
ROOT
ATOM      1  C   UNL     1       1.117   9.367  19.712  0.00  0.00    +0.000 A 
ATOM      2  C   UNL     1       0.868   9.012  21.020  0.00  0.00    +0.000 A 
ATOM      3  C   UNL     1       1.397   7.718  21.189  0.00  0.00    +0.000 A 
ATOM      4  C   UNL     1       1.914   7.319  19.971  0.00  0.00    +0.000 A 
ATOM      5  O   UNL     1       1.736   8.329  19.052  0.00  0.00    +0.000 OA
ENDROOT
BRANCH   4   6
ATOM      6  C   UNL     1       2.583   6.074  19.636  0.00  0.00    +0.000 C 
ATOM      7  O   UNL     1       3.805   5.954  19.696  0.00  0.00    +0.000 OA
ATOM      8  N   UNL     1       1.776   5.022  19.258  0.00  0.00    +0.000 N 
ATOM      9  H   UNL     1       0.773   5.161  19.259  0.00  0.00    +0.000 HD
BRANCH   8  10
ATOM     10  C   UNL     1       2.343   3.746  18.849  0.00  0.00    +0.000 C 
BRANCH  10  11
ATOM     11  C   UNL     1       2.903   3.751  17.426  0.00  0.00    +0.000 C 
BRANCH  11  12
ATOM     12  C   UNL     1       4.269   3.079  17.350  0.00  0.00    +0.000 C 
BRANCH  12  13
ATOM     13  N   UNL     1       5.288   3.970  16.823  0.00  0.00    +0.000 N 
ATOM     14  C   UNL     1       5.278   4.441  15.463  0.00  0.00    +0.000 C 
ATOM     15  C   UNL     1       6.645   5.074  15.294  0.00  0.00    +0.000 C 
ATOM     16  C   UNL     1       7.023   5.528  16.699  0.00  0.00    +0.000 C 
ATOM     17  C   UNL     1       6.287   4.553  17.585  0.00  0.00    +0.000 C 
ATOM     18  O   UNL     1       6.504   4.368  18.770  0.00  0.00    +0.000 OA
ENDBRANCH  12  13
ENDBRANCH  11  12
ENDBRANCH  10  11
ENDBRANCH   8  10
ENDBRANCH   4   6
BRANCH   1  19
ATOM     19  C   UNL     1       0.847  10.622  18.953  0.00  0.00    +0.000 C 
BRANCH  19  23
ATOM     20  C   UNL     1      -3.007   9.742  16.119  0.00  0.00    +0.000 C 
ATOM     21  C   UNL     1      -2.228  10.292  17.258  0.00  0.00    +0.000 A 
ATOM     22  N   UNL     1      -0.921  10.023  17.392  0.00  0.00    +0.000 NA
ATOM     23  N   UNL     1      -0.549  10.692  18.513  0.00  0.00    +0.000 N 
ATOM     24  C   UNL     1      -1.580  11.415  19.072  0.00  0.00    +0.000 A 
ATOM     25  C   UNL     1      -1.444  12.270  20.276  0.00  0.00    +0.000 C 
ATOM     26  C   UNL     1      -2.677  11.129  18.296  0.00  0.00    +0.000 A 
ATOM     27 BR   UNL     1      -4.436  11.730  18.522  0.00  0.00    +0.000 Br
ENDBRANCH  19  23
ENDBRANCH   1  19
TORSDOF 7
ENDMDL
MODEL 7
REMARK VINA RESULT:      -7.4      2.123      2.997
REMARK  Name = 
REMARK  9 active torsions:
REMARK  status: ('A' for Active; 'I' for Inactive)
REMARK    1  A    between atoms: C_1  and  C_2
REMARK    2  A    between atoms: N_4  and  C_5
REMARK    3  A    between atoms: C_5  and  C_6
REMARK    4  A    between atoms: C_9  and  C_10
REMARK    5  A    between atoms: N_12  and  C_13
REMARK    6  A    between atoms: C_13  and  C_14
REMARK    7  A    between atoms: C_14  and  C_15
REMARK    8  A    between atoms: C_15  and  N_16
REMARK    9  A    between atoms: C_23  and  C_24
REMARK                            x       y       z     vdW  Elec       q    Type
REMARK                         _______ _______ _______ _____ _____    ______ ____
ROOT
ATOM      1  C   UNL     1       0.294  10.480  20.762  0.00  0.00    +0.000 A 
ATOM      2  C   UNL     1       0.432   9.894  22.002  0.00  0.00    +0.000 A 
ATOM      3  C   UNL     1       1.131   8.689  21.799  0.00  0.00    +0.000 A 
ATOM      4  C   UNL     1       1.360   8.568  20.442  0.00  0.00    +0.000 A 
ATOM      5  O   UNL     1       0.838   9.665  19.794  0.00  0.00    +0.000 OA
ENDROOT
BRANCH   4   6
ATOM      6  C   UNL     1       2.059   7.509  19.733  0.00  0.00    +0.000 C 
ATOM      7  O   UNL     1       2.389   7.622  18.553  0.00  0.00    +0.000 OA
ATOM      8  N   UNL     1       2.348   6.370  20.453  0.00  0.00    +0.000 N 
ATOM      9  H   UNL     1       2.087   6.341  21.431  0.00  0.00    +0.000 HD
BRANCH   8  10
ATOM     10  C   UNL     1       2.996   5.227  19.829  0.00  0.00    +0.000 C 
BRANCH  10  11
ATOM     11  C   UNL     1       4.464   5.471  19.476  0.00  0.00    +0.000 C 
BRANCH  11  12
ATOM     12  C   UNL     1       5.159   4.193  19.020  0.00  0.00    +0.000 C 
BRANCH  12  13
ATOM     13  N   UNL     1       5.657   4.298  17.659  0.00  0.00    +0.000 N 
ATOM     14  C   UNL     1       4.783   4.368  16.517  0.00  0.00    +0.000 C 
ATOM     15  C   UNL     1       5.718   4.170  15.341  0.00  0.00    +0.000 C 
ATOM     16  C   UNL     1       7.060   4.697  15.835  0.00  0.00    +0.000 C 
ATOM     17  C   UNL     1       6.991   4.467  17.325  0.00  0.00    +0.000 C 
ATOM     18  O   UNL     1       7.939   4.489  18.092  0.00  0.00    +0.000 OA
ENDBRANCH  12  13
ENDBRANCH  11  12
ENDBRANCH  10  11
ENDBRANCH   8  10
ENDBRANCH   4   6
BRANCH   1  19
ATOM     19  C   UNL     1      -0.304  11.777  20.336  0.00  0.00    +0.000 C 
BRANCH  19  23
ATOM     20  C   UNL     1      -2.712  10.072  16.469  0.00  0.00    +0.000 C 
ATOM     21  C   UNL     1      -2.483  10.813  17.736  0.00  0.00    +0.000 A 
ATOM     22  N   UNL     1      -1.286  10.789  18.340  0.00  0.00    +0.000 NA
ATOM     23  N   UNL     1      -1.444  11.573  19.438  0.00  0.00    +0.000 N 
ATOM     24  C   UNL     1      -2.701  12.129  19.523  0.00  0.00    +0.000 A 
ATOM     25  C   UNL     1      -3.134  13.058  20.595  0.00  0.00    +0.000 C 
ATOM     26  C   UNL     1      -3.393  11.610  18.454  0.00  0.00    +0.000 A 
ATOM     27 BR   UNL     1      -5.185  11.898  17.993  0.00  0.00    +0.000 Br
ENDBRANCH  19  23
ENDBRANCH   1  19
TORSDOF 7
ENDMDL
MODEL 8
REMARK VINA RESULT:      -7.4      3.674      8.763
REMARK  Name = 
REMARK  9 active torsions:
REMARK  status: ('A' for Active; 'I' for Inactive)
REMARK    1  A    between atoms: C_1  and  C_2
REMARK    2  A    between atoms: N_4  and  C_5
REMARK    3  A    between atoms: C_5  and  C_6
REMARK    4  A    between atoms: C_9  and  C_10
REMARK    5  A    between atoms: N_12  and  C_13
REMARK    6  A    between atoms: C_13  and  C_14
REMARK    7  A    between atoms: C_14  and  C_15
REMARK    8  A    between atoms: C_15  and  N_16
REMARK    9  A    between atoms: C_23  and  C_24
REMARK                            x       y       z     vdW  Elec       q    Type
REMARK                         _______ _______ _______ _____ _____    ______ ____
ROOT
ATOM      1  C   UNL     1       2.615   5.802  19.912  0.00  0.00    +0.000 A 
ATOM      2  C   UNL     1       1.841   6.223  20.972  0.00  0.00    +0.000 A 
ATOM      3  C   UNL     1       1.371   7.508  20.636  0.00  0.00    +0.000 A 
ATOM      4  C   UNL     1       1.905   7.835  19.405  0.00  0.00    +0.000 A 
ATOM      5  O   UNL     1       2.682   6.790  18.956  0.00  0.00    +0.000 OA
ENDROOT
BRANCH   4   6
ATOM      6  C   UNL     1       1.705   9.044  18.624  0.00  0.00    +0.000 C 
ATOM      7  O   UNL     1       2.142   9.160  17.480  0.00  0.00    +0.000 OA
ATOM      8  N   UNL     1       0.988  10.056  19.225  0.00  0.00    +0.000 N 
ATOM      9  H   UNL     1       0.620   9.897  20.155  0.00  0.00    +0.000 HD
BRANCH   8  10
ATOM     10  C   UNL     1       0.775  11.330  18.556  0.00  0.00    +0.000 C 
BRANCH  10  11
ATOM     11  C   UNL     1      -0.569  11.980  18.889  0.00  0.00    +0.000 C 
BRANCH  11  12
ATOM     12  C   UNL     1      -0.462  12.930  20.076  0.00  0.00    +0.000 C 
BRANCH  12  13
ATOM     13  N   UNL     1      -1.051  12.369  21.279  0.00  0.00    +0.000 N 
ATOM     14  C   UNL     1      -2.418  12.612  21.659  0.00  0.00    +0.000 C 
ATOM     15  C   UNL     1      -2.491  12.092  23.081  0.00  0.00    +0.000 C 
ATOM     16  C   UNL     1      -1.425  11.005  23.139  0.00  0.00    +0.000 C 
ATOM     17  C   UNL     1      -0.418  11.457  22.109  0.00  0.00    +0.000 C 
ATOM     18  O   UNL     1       0.723  11.041  22.001  0.00  0.00    +0.000 OA
ENDBRANCH  12  13
ENDBRANCH  11  12
ENDBRANCH  10  11
ENDBRANCH   8  10
ENDBRANCH   4   6
BRANCH   1  19
ATOM     19  C   UNL     1       3.335   4.522  19.654  0.00  0.00    +0.000 C 
BRANCH  19  23
ATOM     20  C   UNL     1       7.904   6.021  18.921  0.00  0.00    +0.000 C 
ATOM     21  C   UNL     1       6.586   5.409  18.614  0.00  0.00    +0.000 A 
ATOM     22  N   UNL     1       5.624   5.341  19.545  0.00  0.00    +0.000 NA
ATOM     23  N   UNL     1       4.580   4.747  18.914  0.00  0.00    +0.000 N 
ATOM     24  C   UNL     1       4.841   4.472  17.589  0.00  0.00    +0.000 A 
ATOM     25  C   UNL     1       3.865   3.863  16.654  0.00  0.00    +0.000 C 
ATOM     26  C   UNL     1       6.147   4.855  17.397  0.00  0.00    +0.000 A 
ATOM     27 BR   UNL     1       7.172   4.710  15.837  0.00  0.00    +0.000 Br
ENDBRANCH  19  23
ENDBRANCH   1  19
TORSDOF 7
ENDMDL
MODEL 9
REMARK VINA RESULT:      -7.4      6.373      9.546
REMARK  Name = 
REMARK  9 active torsions:
REMARK  status: ('A' for Active; 'I' for Inactive)
REMARK    1  A    between atoms: C_1  and  C_2
REMARK    2  A    between atoms: N_4  and  C_5
REMARK    3  A    between atoms: C_5  and  C_6
REMARK    4  A    between atoms: C_9  and  C_10
REMARK    5  A    between atoms: N_12  and  C_13
REMARK    6  A    between atoms: C_13  and  C_14
REMARK    7  A    between atoms: C_14  and  C_15
REMARK    8  A    between atoms: C_15  and  N_16
REMARK    9  A    between atoms: C_23  and  C_24
REMARK                            x       y       z     vdW  Elec       q    Type
REMARK                         _______ _______ _______ _____ _____    ______ ____
ROOT
ATOM      1  C   UNL     1       6.449   6.398  17.128  0.00  0.00    +0.000 A 
ATOM      2  C   UNL     1       7.298   5.781  18.022  0.00  0.00    +0.000 A 
ATOM      3  C   UNL     1       8.125   6.792  18.549  0.00  0.00    +0.000 A 
ATOM      4  C   UNL     1       7.776   7.977  17.929  0.00  0.00    +0.000 A 
ATOM      5  O   UNL     1       6.748   7.739  17.044  0.00  0.00    +0.000 OA
ENDROOT
BRANCH   4   6
ATOM      6  C   UNL     1       8.325   9.305  18.142  0.00  0.00    +0.000 C 
ATOM      7  O   UNL     1       8.030  10.256  17.420  0.00  0.00    +0.000 OA
ATOM      8  N   UNL     1       9.188   9.453  19.206  0.00  0.00    +0.000 N 
ATOM      9  H   UNL     1       9.372   8.648  19.792  0.00  0.00    +0.000 HD
BRANCH   8  10
ATOM     10  C   UNL     1       9.838  10.726  19.479  0.00  0.00    +0.000 C 
BRANCH  10  11
ATOM     11  C   UNL     1       9.520  11.293  20.863  0.00  0.00    +0.000 C 
BRANCH  11  12
ATOM     12  C   UNL     1       8.950  12.705  20.782  0.00  0.00    +0.000 C 
BRANCH  12  13
ATOM     13  N   UNL     1       8.141  13.035  21.941  0.00  0.00    +0.000 N 
ATOM     14  C   UNL     1       8.025  12.162  23.080  0.00  0.00    +0.000 C 
ATOM     15  C   UNL     1       6.883  12.762  23.875  0.00  0.00    +0.000 C 
ATOM     16  C   UNL     1       6.918  14.244  23.522  0.00  0.00    +0.000 C 
ATOM     17  C   UNL     1       7.506  14.251  22.132  0.00  0.00    +0.000 C 
ATOM     18  O   UNL     1       7.473  15.188  21.353  0.00  0.00    +0.000 OA
ENDBRANCH  12  13
ENDBRANCH  11  12
ENDBRANCH  10  11
ENDBRANCH   8  10
ENDBRANCH   4   6
BRANCH   1  19
ATOM     19  C   UNL     1       5.326   5.874  16.299  0.00  0.00    +0.000 C 
BRANCH  19  23
ATOM     20  C   UNL     1       3.400   1.756  18.030  0.00  0.00    +0.000 C 
ATOM     21  C   UNL     1       3.593   3.217  17.840  0.00  0.00    +0.000 A 
ATOM     22  N   UNL     1       4.552   3.684  17.028  0.00  0.00    +0.000 NA
ATOM     23  N   UNL     1       4.422   5.034  17.090  0.00  0.00    +0.000 N 
ATOM     24  C   UNL     1       3.375   5.435  17.891  0.00  0.00    +0.000 A 
ATOM     25  C   UNL     1       2.980   6.848  18.105  0.00  0.00    +0.000 C 
ATOM     26  C   UNL     1       2.862   4.272  18.414  0.00  0.00    +0.000 A 
ATOM     27 BR   UNL     1       1.453   4.081  19.633  0.00  0.00    +0.000 Br
ENDBRANCH  19  23
ENDBRANCH   1  19
TORSDOF 7
ENDMDL
