MODEL 1
REMARK VINA RESULT:      -8.6      0.000      0.000
REMARK  Name = 
REMARK  6 active torsions:
REMARK  status: ('A' for Active; 'I' for Inactive)
REMARK    1  A    between atoms: C_1  and  O_2
REMARK    2  A    between atoms: O_2  and  C_3
REMARK    3  A    between atoms: C_6  and  S_7
REMARK    4  A    between atoms: S_7  and  N_10
REMARK    5  A    between atoms: C_17  and  N_18
REMARK    6  A    between atoms: C_19  and  C_21
REMARK                            x       y       z     vdW  Elec       q    Type
REMARK                         _______ _______ _______ _____ _____    ______ ____
ROOT
ATOM      1  N   UNL     1       4.747   5.278  18.973  0.00  0.00    +0.000 N 
ATOM      2  C   UNL     1       5.481   3.961  18.735  0.00  0.00    +0.000 C 
ATOM      3  C   UNL     1       4.884   3.033  19.741  0.00  0.00    +0.000 C 
ATOM      4  C   UNL     1       3.466   3.480  19.579  0.00  0.00    +0.000 A 
ATOM      5  C   UNL     1       2.388   2.619  19.555  0.00  0.00    +0.000 A 
ATOM      6  C   UNL     1       1.137   3.183  19.553  0.00  0.00    +0.000 A 
ATOM      7  C   UNL     1       1.013   4.556  19.798  0.00  0.00    +0.000 A 
ATOM      8  C   UNL     1       2.124   5.446  19.893  0.00  0.00    +0.000 A 
ATOM      9  C   UNL     1       3.369   4.890  19.449  0.00  0.00    +0.000 A 
ENDROOT
BRANCH   8  10
ATOM     10  N   UNL     1       1.872   6.587  20.814  0.00  0.00    +0.000 N 
ATOM     11  C   UNL     1       1.569   7.913  20.361  0.00  0.00    +0.000 C 
ATOM     12  O   UNL     1       1.914   8.332  19.251  0.00  0.00    +0.000 OA
ATOM     13  H   UNL     1       1.751   6.359  21.793  0.00  0.00    +0.000 HD
BRANCH  11  14
ATOM     14  C   UNL     1       0.853   8.967  21.206  0.00  0.00    +0.000 A 
ATOM     15  C   UNL     1       0.180   9.997  20.502  0.00  0.00    +0.000 A 
ATOM     16  C   UNL     1      -0.609  10.970  21.149  0.00  0.00    +0.000 A 
ATOM     17  C   UNL     1      -0.772  10.905  22.531  0.00  0.00    +0.000 A 
ATOM     18  F   UNL     1      -1.519  11.820  23.152  0.00  0.00    +0.000 F 
ATOM     19  C   UNL     1      -0.186   9.865  23.243  0.00  0.00    +0.000 A 
ATOM     20  C   UNL     1       0.618   8.889  22.588  0.00  0.00    +0.000 A 
ENDBRANCH  11  14
ENDBRANCH   8  10
BRANCH   1  21
ATOM     21  S   UNL     1       5.207   6.316  17.647  0.00  0.00    +0.000 S 
ATOM     22  O   UNL     1       6.394   7.013  18.082  0.00  0.00    +0.000 OA
ATOM     23  O   UNL     1       4.044   7.079  17.228  0.00  0.00    +0.000 OA
BRANCH  21  27
ATOM     24  C   UNL     1       6.324   4.041  13.724  0.00  0.00    +0.000 A 
ATOM     25  C   UNL     1       5.035   4.059  14.270  0.00  0.00    +0.000 A 
ATOM     26  C   UNL     1       4.732   4.692  15.477  0.00  0.00    +0.000 A 
ATOM     27  C   UNL     1       5.737   5.317  16.203  0.00  0.00    +0.000 A 
ATOM     28  C   UNL     1       7.054   5.335  15.663  0.00  0.00    +0.000 A 
ATOM     29  C   UNL     1       7.357   4.688  14.424  0.00  0.00    +0.000 A 
BRANCH  24  31
ATOM     30  C   UNL     1       5.243   2.998  11.831  0.00  0.00    +0.000 C 
ATOM     31  O   UNL     1       6.411   3.330  12.567  0.00  0.00    +0.000 OA
ENDBRANCH  24  31
ENDBRANCH  21  27
ENDBRANCH   1  21
TORSDOF 5
ENDMDL
MODEL 2
REMARK VINA RESULT:      -8.2      1.510      2.147
REMARK  Name = 
REMARK  6 active torsions:
REMARK  status: ('A' for Active; 'I' for Inactive)
REMARK    1  A    between atoms: C_1  and  O_2
REMARK    2  A    between atoms: O_2  and  C_3
REMARK    3  A    between atoms: C_6  and  S_7
REMARK    4  A    between atoms: S_7  and  N_10
REMARK    5  A    between atoms: C_17  and  N_18
REMARK    6  A    between atoms: C_19  and  C_21
REMARK                            x       y       z     vdW  Elec       q    Type
REMARK                         _______ _______ _______ _____ _____    ______ ____
ROOT
ATOM      1  N   UNL     1       5.180   4.803  19.099  0.00  0.00    +0.000 N 
ATOM      2  C   UNL     1       5.447   3.320  19.343  0.00  0.00    +0.000 C 
ATOM      3  C   UNL     1       4.174   2.823  19.947  0.00  0.00    +0.000 C 
ATOM      4  C   UNL     1       3.244   3.581  19.054  0.00  0.00    +0.000 A 
ATOM      5  C   UNL     1       2.086   3.051  18.524  0.00  0.00    +0.000 A 
ATOM      6  C   UNL     1       1.256   3.910  17.848  0.00  0.00    +0.000 A 
ATOM      7  C   UNL     1       1.502   5.286  17.920  0.00  0.00    +0.000 A 
ATOM      8  C   UNL     1       2.664   5.850  18.527  0.00  0.00    +0.000 A 
ATOM      9  C   UNL     1       3.702   4.904  18.817  0.00  0.00    +0.000 A 
ENDROOT
BRANCH   8  10
ATOM     10  N   UNL     1       2.410   7.190  19.123  0.00  0.00    +0.000 N 
ATOM     11  C   UNL     1       2.152   8.365  18.342  0.00  0.00    +0.000 C 
ATOM     12  O   UNL     1       2.540   8.486  17.176  0.00  0.00    +0.000 OA
ATOM     13  H   UNL     1       2.255   7.217  20.123  0.00  0.00    +0.000 HD
BRANCH  11  14
ATOM     14  C   UNL     1       1.435   9.606  18.871  0.00  0.00    +0.000 A 
ATOM     15  C   UNL     1       0.702   9.454  20.075  0.00  0.00    +0.000 A 
ATOM     16  C   UNL     1       0.083  10.537  20.731  0.00  0.00    +0.000 A 
ATOM     17  C   UNL     1       0.222  11.820  20.205  0.00  0.00    +0.000 A 
ATOM     18  F   UNL     1      -0.359  12.853  20.821  0.00  0.00    +0.000 F 
ATOM     19  C   UNL     1       0.995  12.016  19.068  0.00  0.00    +0.000 A 
ATOM     20  C   UNL     1       1.611  10.918  18.402  0.00  0.00    +0.000 A 
ENDBRANCH  11  14
ENDBRANCH   8  10
BRANCH   1  21
ATOM     21  S   UNL     1       6.528   5.369  18.145  0.00  0.00    +0.000 S 
ATOM     22  O   UNL     1       7.669   4.593  18.572  0.00  0.00    +0.000 OA
ATOM     23  O   UNL     1       6.580   6.819  18.227  0.00  0.00    +0.000 OA
BRANCH  21  27
ATOM     24  C   UNL     1       6.248   3.999  13.690  0.00  0.00    +0.000 A 
ATOM     25  C   UNL     1       7.323   4.729  14.210  0.00  0.00    +0.000 A 
ATOM     26  C   UNL     1       7.361   5.185  15.530  0.00  0.00    +0.000 A 
ATOM     27  C   UNL     1       6.289   4.941  16.378  0.00  0.00    +0.000 A 
ATOM     28  C   UNL     1       5.192   4.181  15.884  0.00  0.00    +0.000 A 
ATOM     29  C   UNL     1       5.161   3.714  14.533  0.00  0.00    +0.000 A 
BRANCH  24  31
ATOM     30  C   UNL     1       5.511   2.774  11.742  0.00  0.00    +0.000 C 
ATOM     31  O   UNL     1       6.390   3.694  12.371  0.00  0.00    +0.000 OA
ENDBRANCH  24  31
ENDBRANCH  21  27
ENDBRANCH   1  21
TORSDOF 5
ENDMDL
MODEL 3
REMARK VINA RESULT:      -8.2      1.789      2.009
REMARK  Name = 
REMARK  6 active torsions:
REMARK  status: ('A' for Active; 'I' for Inactive)
REMARK    1  A    between atoms: C_1  and  O_2
REMARK    2  A    between atoms: O_2  and  C_3
REMARK    3  A    between atoms: C_6  and  S_7
REMARK    4  A    between atoms: S_7  and  N_10
REMARK    5  A    between atoms: C_17  and  N_18
REMARK    6  A    between atoms: C_19  and  C_21
REMARK                            x       y       z     vdW  Elec       q    Type
REMARK                         _______ _______ _______ _____ _____    ______ ____
ROOT
ATOM      1  N   UNL     1       5.407   5.506  18.398  0.00  0.00    +0.000 N 
ATOM      2  C   UNL     1       5.911   4.077  18.582  0.00  0.00    +0.000 C 
ATOM      3  C   UNL     1       4.854   3.430  19.415  0.00  0.00    +0.000 C 
ATOM      4  C   UNL     1       3.678   4.038  18.718  0.00  0.00    +0.000 A 
ATOM      5  C   UNL     1       2.523   3.347  18.417  0.00  0.00    +0.000 A 
ATOM      6  C   UNL     1       1.473   4.074  17.914  0.00  0.00    +0.000 A 
ATOM      7  C   UNL     1       1.542   5.472  17.942  0.00  0.00    +0.000 A 
ATOM      8  C   UNL     1       2.711   6.198  18.318  0.00  0.00    +0.000 A 
ATOM      9  C   UNL     1       3.902   5.404  18.403  0.00  0.00    +0.000 A 
ENDROOT
BRANCH   8  10
ATOM     10  N   UNL     1       2.397   7.505  18.956  0.00  0.00    +0.000 N 
ATOM     11  C   UNL     1       2.064   8.686  18.213  0.00  0.00    +0.000 C 
ATOM     12  O   UNL     1       2.425   8.860  17.045  0.00  0.00    +0.000 OA
ATOM     13  H   UNL     1       2.257   7.497  19.959  0.00  0.00    +0.000 HD
BRANCH  11  14
ATOM     14  C   UNL     1       1.292   9.873  18.788  0.00  0.00    +0.000 A 
ATOM     15  C   UNL     1       1.763  11.165  18.443  0.00  0.00    +0.000 A 
ATOM     16  C   UNL     1       1.085  12.345  18.814  0.00  0.00    +0.000 A 
ATOM     17  C   UNL     1      -0.116  12.249  19.514  0.00  0.00    +0.000 A 
ATOM     18  F   UNL     1      -0.766  13.360  19.867  0.00  0.00    +0.000 F 
ATOM     19  C   UNL     1      -0.642  10.996  19.804  0.00  0.00    +0.000 A 
ATOM     20  C   UNL     1       0.048   9.806  19.437  0.00  0.00    +0.000 A 
ENDBRANCH  11  14
ENDBRANCH   8  10
BRANCH   1  21
ATOM     21  S   UNL     1       6.462   6.223  17.207  0.00  0.00    +0.000 S 
ATOM     22  O   UNL     1       7.799   6.107  17.740  0.00  0.00    +0.000 OA
ATOM     23  O   UNL     1       5.944   7.535  16.856  0.00  0.00    +0.000 OA
BRANCH  21  27
ATOM     24  C   UNL     1       6.171   3.944  13.141  0.00  0.00    +0.000 A 
ATOM     25  C   UNL     1       5.152   3.951  14.100  0.00  0.00    +0.000 A 
ATOM     26  C   UNL     1       5.281   4.586  15.338  0.00  0.00    +0.000 A 
ATOM     27  C   UNL     1       6.469   5.224  15.669  0.00  0.00    +0.000 A 
ATOM     28  C   UNL     1       7.515   5.253  14.704  0.00  0.00    +0.000 A 
ATOM     29  C   UNL     1       7.376   4.605  13.438  0.00  0.00    +0.000 A 
BRANCH  24  31
ATOM     30  C   UNL     1       4.516   3.150  11.569  0.00  0.00    +0.000 C 
ATOM     31  O   UNL     1       5.858   3.230  12.025  0.00  0.00    +0.000 OA
ENDBRANCH  24  31
ENDBRANCH  21  27
ENDBRANCH   1  21
TORSDOF 5
ENDMDL
MODEL 4
REMARK VINA RESULT:      -8.1      1.426      1.859
REMARK  Name = 
REMARK  6 active torsions:
REMARK  status: ('A' for Active; 'I' for Inactive)
REMARK    1  A    between atoms: C_1  and  O_2
REMARK    2  A    between atoms: O_2  and  C_3
REMARK    3  A    between atoms: C_6  and  S_7
REMARK    4  A    between atoms: S_7  and  N_10
REMARK    5  A    between atoms: C_17  and  N_18
REMARK    6  A    between atoms: C_19  and  C_21
REMARK                            x       y       z     vdW  Elec       q    Type
REMARK                         _______ _______ _______ _____ _____    ______ ____
ROOT
ATOM      1  N   UNL     1       5.261   5.405  18.671  0.00  0.00    +0.000 N 
ATOM      2  C   UNL     1       5.788   3.980  18.823  0.00  0.00    +0.000 C 
ATOM      3  C   UNL     1       4.702   3.275  19.569  0.00  0.00    +0.000 C 
ATOM      4  C   UNL     1       3.552   3.888  18.833  0.00  0.00    +0.000 A 
ATOM      5  C   UNL     1       2.432   3.186  18.440  0.00  0.00    +0.000 A 
ATOM      6  C   UNL     1       1.394   3.911  17.910  0.00  0.00    +0.000 A 
ATOM      7  C   UNL     1       1.428   5.307  18.000  0.00  0.00    +0.000 A 
ATOM      8  C   UNL     1       2.557   6.042  18.471  0.00  0.00    +0.000 A 
ATOM      9  C   UNL     1       3.760   5.270  18.588  0.00  0.00    +0.000 A 
ENDROOT
BRANCH   8  10
ATOM     10  N   UNL     1       2.178   7.313  19.145  0.00  0.00    +0.000 N 
ATOM     11  C   UNL     1       1.813   8.504  18.433  0.00  0.00    +0.000 C 
ATOM     12  O   UNL     1       2.189   8.731  17.279  0.00  0.00    +0.000 OA
ATOM     13  H   UNL     1       2.019   7.266  20.143  0.00  0.00    +0.000 HD
BRANCH  11  14
ATOM     14  C   UNL     1       0.982   9.639  19.030  0.00  0.00    +0.000 A 
ATOM     15  C   UNL     1      -0.027  10.193  18.201  0.00  0.00    +0.000 A 
ATOM     16  C   UNL     1      -0.935  11.170  18.658  0.00  0.00    +0.000 A 
ATOM     17  C   UNL     1      -0.874  11.587  19.987  0.00  0.00    +0.000 A 
ATOM     18  F   UNL     1      -1.732  12.509  20.430  0.00  0.00    +0.000 F 
ATOM     19  C   UNL     1       0.054  11.011  20.845  0.00  0.00    +0.000 A 
ATOM     20  C   UNL     1       0.976  10.032  20.379  0.00  0.00    +0.000 A 
ENDBRANCH  11  14
ENDBRANCH   8  10
BRANCH   1  21
ATOM     21  S   UNL     1       6.362   6.195  17.571  0.00  0.00    +0.000 S 
ATOM     22  O   UNL     1       7.689   5.871  18.038  0.00  0.00    +0.000 OA
ATOM     23  O   UNL     1       5.971   7.589  17.443  0.00  0.00    +0.000 OA
BRANCH  21  27
ATOM     24  C   UNL     1       6.346   3.999  13.450  0.00  0.00    +0.000 A 
ATOM     25  C   UNL     1       7.451   4.697  13.953  0.00  0.00    +0.000 A 
ATOM     26  C   UNL     1       7.417   5.401  15.158  0.00  0.00    +0.000 A 
ATOM     27  C   UNL     1       6.245   5.451  15.899  0.00  0.00    +0.000 A 
ATOM     28  C   UNL     1       5.111   4.732  15.425  0.00  0.00    +0.000 A 
ATOM     29  C   UNL     1       5.153   4.010  14.192  0.00  0.00    +0.000 A 
BRANCH  24  31
ATOM     30  C   UNL     1       5.615   2.556  11.654  0.00  0.00    +0.000 C 
ATOM     31  O   UNL     1       6.577   3.422  12.239  0.00  0.00    +0.000 OA
ENDBRANCH  24  31
ENDBRANCH  21  27
ENDBRANCH   1  21
TORSDOF 5
ENDMDL
MODEL 5
REMARK VINA RESULT:      -8.1      2.343      3.490
REMARK  Name = 
REMARK  6 active torsions:
REMARK  status: ('A' for Active; 'I' for Inactive)
REMARK    1  A    between atoms: C_1  and  O_2
REMARK    2  A    between atoms: O_2  and  C_3
REMARK    3  A    between atoms: C_6  and  S_7
REMARK    4  A    between atoms: S_7  and  N_10
REMARK    5  A    between atoms: C_17  and  N_18
REMARK    6  A    between atoms: C_19  and  C_21
REMARK                            x       y       z     vdW  Elec       q    Type
REMARK                         _______ _______ _______ _____ _____    ______ ____
ROOT
ATOM      1  N   UNL     1       4.513   4.308  19.126  0.00  0.00    +0.000 N 
ATOM      2  C   UNL     1       5.092   2.896  19.149  0.00  0.00    +0.000 C 
ATOM      3  C   UNL     1       4.506   2.290  20.381  0.00  0.00    +0.000 C 
ATOM      4  C   UNL     1       3.128   2.848  20.218  0.00  0.00    +0.000 A 
ATOM      5  C   UNL     1       1.975   2.132  20.467  0.00  0.00    +0.000 A 
ATOM      6  C   UNL     1       0.788   2.820  20.421  0.00  0.00    +0.000 A 
ATOM      7  C   UNL     1       0.819   4.218  20.350  0.00  0.00    +0.000 A 
ATOM      8  C   UNL     1       2.014   4.974  20.160  0.00  0.00    +0.000 A 
ATOM      9  C   UNL     1       3.154   4.195  19.772  0.00  0.00    +0.000 A 
ENDROOT
BRANCH   8  10
ATOM     10  N   UNL     1       1.958   6.313  20.807  0.00  0.00    +0.000 N 
ATOM     11  C   UNL     1       1.775   7.534  20.078  0.00  0.00    +0.000 C 
ATOM     12  O   UNL     1       2.085   7.650  18.887  0.00  0.00    +0.000 OA
ATOM     13  H   UNL     1       1.883   6.324  21.817  0.00  0.00    +0.000 HD
BRANCH  11  14
ATOM     14  C   UNL     1       1.244   8.829  20.691  0.00  0.00    +0.000 A 
ATOM     15  C   UNL     1       0.895   9.864  19.787  0.00  0.00    +0.000 A 
ATOM     16  C   UNL     1       0.294  11.069  20.207  0.00  0.00    +0.000 A 
ATOM     17  C   UNL     1      -0.009  11.244  21.556  0.00  0.00    +0.000 A 
ATOM     18  F   UNL     1      -0.581  12.380  21.962  0.00  0.00    +0.000 F 
ATOM     19  C   UNL     1       0.253  10.220  22.457  0.00  0.00    +0.000 A 
ATOM     20  C   UNL     1       0.869   9.008  22.032  0.00  0.00    +0.000 A 
ENDBRANCH  11  14
ENDBRANCH   8  10
BRANCH   1  21
ATOM     21  S   UNL     1       4.944   4.965  17.567  0.00  0.00    +0.000 S 
ATOM     22  O   UNL     1       3.807   5.744  17.137  0.00  0.00    +0.000 OA
ATOM     23  O   UNL     1       5.430   3.885  16.725  0.00  0.00    +0.000 OA
BRANCH  21  27
ATOM     24  C   UNL     1       8.154   8.300  18.184  0.00  0.00    +0.000 A 
ATOM     25  C   UNL     1       7.072   8.418  17.303  0.00  0.00    +0.000 A 
ATOM     26  C   UNL     1       6.158   7.386  17.084  0.00  0.00    +0.000 A 
ATOM     27  C   UNL     1       6.316   6.170  17.734  0.00  0.00    +0.000 A 
ATOM     28  C   UNL     1       7.393   6.028  18.654  0.00  0.00    +0.000 A 
ATOM     29  C   UNL     1       8.325   7.090  18.877  0.00  0.00    +0.000 A 
BRANCH  24  31
ATOM     30  C   UNL     1       9.179  10.099  19.432  0.00  0.00    +0.000 C 
ATOM     31  O   UNL     1       8.950   9.404  18.214  0.00  0.00    +0.000 OA
ENDBRANCH  24  31
ENDBRANCH  21  27
ENDBRANCH   1  21
TORSDOF 5
ENDMDL
MODEL 6
REMARK VINA RESULT:      -8.0      0.547      1.034
REMARK  Name = 
REMARK  6 active torsions:
REMARK  status: ('A' for Active; 'I' for Inactive)
REMARK    1  A    between atoms: C_1  and  O_2
REMARK    2  A    between atoms: O_2  and  C_3
REMARK    3  A    between atoms: C_6  and  S_7
REMARK    4  A    between atoms: S_7  and  N_10
REMARK    5  A    between atoms: C_17  and  N_18
REMARK    6  A    between atoms: C_19  and  C_21
REMARK                            x       y       z     vdW  Elec       q    Type
REMARK                         _______ _______ _______ _____ _____    ______ ____
ROOT
ATOM      1  N   UNL     1       5.165   5.321  18.961  0.00  0.00    +0.000 N 
ATOM      2  C   UNL     1       5.746   3.927  18.734  0.00  0.00    +0.000 C 
ATOM      3  C   UNL     1       4.885   3.041  19.574  0.00  0.00    +0.000 C 
ATOM      4  C   UNL     1       3.580   3.693  19.244  0.00  0.00    +0.000 A 
ATOM      5  C   UNL     1       2.414   2.996  19.002  0.00  0.00    +0.000 A 
ATOM      6  C   UNL     1       1.263   3.731  18.862  0.00  0.00    +0.000 A 
ATOM      7  C   UNL     1       1.287   5.092  19.187  0.00  0.00    +0.000 A 
ATOM      8  C   UNL     1       2.479   5.809  19.505  0.00  0.00    +0.000 A 
ATOM      9  C   UNL     1       3.692   5.107  19.204  0.00  0.00    +0.000 A 
ENDROOT
BRANCH   8  10
ATOM     10  N   UNL     1       2.242   6.925  20.461  0.00  0.00    +0.000 N 
ATOM     11  C   UNL     1       1.660   8.179  20.081  0.00  0.00    +0.000 C 
ATOM     12  O   UNL     1       1.712   8.614  18.926  0.00  0.00    +0.000 OA
ATOM     13  H   UNL     1       2.352   6.709  21.444  0.00  0.00    +0.000 HD
BRANCH  11  14
ATOM     14  C   UNL     1       0.973   9.136  21.054  0.00  0.00    +0.000 A 
ATOM     15  C   UNL     1       0.562  10.389  20.530  0.00  0.00    +0.000 A 
ATOM     16  C   UNL     1      -0.177  11.323  21.286  0.00  0.00    +0.000 A 
ATOM     17  C   UNL     1      -0.557  10.998  22.586  0.00  0.00    +0.000 A 
ATOM     18  F   UNL     1      -1.259  11.875  23.308  0.00  0.00    +0.000 F 
ATOM     19  C   UNL     1      -0.234   9.750  23.104  0.00  0.00    +0.000 A 
ATOM     20  C   UNL     1       0.520   8.812  22.343  0.00  0.00    +0.000 A 
ENDBRANCH  11  14
ENDBRANCH   8  10
BRANCH   1  21
ATOM     21  S   UNL     1       5.955   6.351  17.793  0.00  0.00    +0.000 S 
ATOM     22  O   UNL     1       7.341   6.410  18.190  0.00  0.00    +0.000 OA
ATOM     23  O   UNL     1       5.194   7.583  17.670  0.00  0.00    +0.000 OA
BRANCH  21  27
ATOM     24  C   UNL     1       6.251   4.045  13.743  0.00  0.00    +0.000 A 
ATOM     25  C   UNL     1       7.306   4.782  14.295  0.00  0.00    +0.000 A 
ATOM     26  C   UNL     1       7.180   5.517  15.475  0.00  0.00    +0.000 A 
ATOM     27  C   UNL     1       5.961   5.559  16.139  0.00  0.00    +0.000 A 
ATOM     28  C   UNL     1       4.876   4.802  15.614  0.00  0.00    +0.000 A 
ATOM     29  C   UNL     1       5.012   4.048  14.407  0.00  0.00    +0.000 A 
BRANCH  24  31
ATOM     30  C   UNL     1       5.608   2.671  11.861  0.00  0.00    +0.000 C 
ATOM     31  O   UNL     1       6.571   3.441  12.566  0.00  0.00    +0.000 OA
ENDBRANCH  24  31
ENDBRANCH  21  27
ENDBRANCH   1  21
TORSDOF 5
ENDMDL
MODEL 7
REMARK VINA RESULT:      -7.9      6.491     10.375
REMARK  Name = 
REMARK  6 active torsions:
REMARK  status: ('A' for Active; 'I' for Inactive)
REMARK    1  A    between atoms: C_1  and  O_2
REMARK    2  A    between atoms: O_2  and  C_3
REMARK    3  A    between atoms: C_6  and  S_7
REMARK    4  A    between atoms: S_7  and  N_10
REMARK    5  A    between atoms: C_17  and  N_18
REMARK    6  A    between atoms: C_19  and  C_21
REMARK                            x       y       z     vdW  Elec       q    Type
REMARK                         _______ _______ _______ _____ _____    ______ ____
ROOT
ATOM      1  N   UNL     1      -3.916  12.576  22.013  0.00  0.00    +0.000 N 
ATOM      2  C   UNL     1      -4.928  12.650  23.154  0.00  0.00    +0.000 C 
ATOM      3  C   UNL     1      -4.081  12.612  24.384  0.00  0.00    +0.000 C 
ATOM      4  C   UNL     1      -3.002  13.521  23.888  0.00  0.00    +0.000 A 
ATOM      5  C   UNL     1      -2.404  14.496  24.660  0.00  0.00    +0.000 A 
ATOM      6  C   UNL     1      -1.326  15.149  24.119  0.00  0.00    +0.000 A 
ATOM      7  C   UNL     1      -0.759  14.656  22.938  0.00  0.00    +0.000 A 
ATOM      8  C   UNL     1      -1.332  13.601  22.166  0.00  0.00    +0.000 A 
ATOM      9  C   UNL     1      -2.676  13.260  22.532  0.00  0.00    +0.000 A 
ENDROOT
BRANCH   8  10
ATOM     10  N   UNL     1      -0.309  12.789  21.452  0.00  0.00    +0.000 N 
ATOM     11  C   UNL     1       0.037  11.449  21.828  0.00  0.00    +0.000 C 
ATOM     12  O   UNL     1      -0.123  11.017  22.975  0.00  0.00    +0.000 OA
ATOM     13  H   UNL     1       0.024  13.156  20.569  0.00  0.00    +0.000 HD
BRANCH  11  14
ATOM     14  C   UNL     1       0.689  10.435  20.889  0.00  0.00    +0.000 A 
ATOM     15  C   UNL     1       0.954   9.149  21.426  0.00  0.00    +0.000 A 
ATOM     16  C   UNL     1       1.453   8.087  20.644  0.00  0.00    +0.000 A 
ATOM     17  C   UNL     1       1.661   8.286  19.280  0.00  0.00    +0.000 A 
ATOM     18  F   UNL     1       2.130   7.285  18.532  0.00  0.00    +0.000 F 
ATOM     19  C   UNL     1       1.342   9.510  18.708  0.00  0.00    +0.000 A 
ATOM     20  C   UNL     1       0.848  10.585  19.502  0.00  0.00    +0.000 A 
ENDBRANCH  11  14
ENDBRANCH   8  10
BRANCH   1  21
ATOM     21  S   UNL     1      -4.829  12.896  20.559  0.00  0.00    +0.000 S 
ATOM     22  O   UNL     1      -4.701  14.313  20.315  0.00  0.00    +0.000 OA
ATOM     23  O   UNL     1      -6.151  12.312  20.702  0.00  0.00    +0.000 OA
BRANCH  21  27
ATOM     24  C   UNL     1      -2.893  11.200  16.662  0.00  0.00    +0.000 A 
ATOM     25  C   UNL     1      -4.260  11.474  16.793  0.00  0.00    +0.000 A 
ATOM     26  C   UNL     1      -4.832  11.921  17.987  0.00  0.00    +0.000 A 
ATOM     27  C   UNL     1      -4.040  12.086  19.115  0.00  0.00    +0.000 A 
ATOM     28  C   UNL     1      -2.642  11.837  19.006  0.00  0.00    +0.000 A 
ATOM     29  C   UNL     1      -2.063  11.384  17.780  0.00  0.00    +0.000 A 
BRANCH  24  31
ATOM     30  C   UNL     1      -3.529  10.144  14.583  0.00  0.00    +0.000 C 
ATOM     31  O   UNL     1      -2.552  10.731  15.431  0.00  0.00    +0.000 OA
ENDBRANCH  24  31
ENDBRANCH  21  27
ENDBRANCH   1  21
TORSDOF 5
ENDMDL
MODEL 8
REMARK VINA RESULT:      -7.8      0.896      1.587
REMARK  Name = 
REMARK  6 active torsions:
REMARK  status: ('A' for Active; 'I' for Inactive)
REMARK    1  A    between atoms: C_1  and  O_2
REMARK    2  A    between atoms: O_2  and  C_3
REMARK    3  A    between atoms: C_6  and  S_7
REMARK    4  A    between atoms: S_7  and  N_10
REMARK    5  A    between atoms: C_17  and  N_18
REMARK    6  A    between atoms: C_19  and  C_21
REMARK                            x       y       z     vdW  Elec       q    Type
REMARK                         _______ _______ _______ _____ _____    ______ ____
ROOT
ATOM      1  N   UNL     1       5.054   4.429  19.476  0.00  0.00    +0.000 N 
ATOM      2  C   UNL     1       5.528   2.983  19.361  0.00  0.00    +0.000 C 
ATOM      3  C   UNL     1       4.404   2.192  19.947  0.00  0.00    +0.000 C 
ATOM      4  C   UNL     1       3.290   2.976  19.329  0.00  0.00    +0.000 A 
ATOM      5  C   UNL     1       2.153   2.404  18.797  0.00  0.00    +0.000 A 
ATOM      6  C   UNL     1       1.151   3.255  18.402  0.00  0.00    +0.000 A 
ATOM      7  C   UNL     1       1.233   4.607  18.757  0.00  0.00    +0.000 A 
ATOM      8  C   UNL     1       2.379   5.196  19.370  0.00  0.00    +0.000 A 
ATOM      9  C   UNL     1       3.551   4.371  19.352  0.00  0.00    +0.000 A 
ENDROOT
BRANCH   8  10
ATOM     10  N   UNL     1       2.032   6.330  20.269  0.00  0.00    +0.000 N 
ATOM     11  C   UNL     1       1.822   7.670  19.802  0.00  0.00    +0.000 C 
ATOM     12  O   UNL     1       2.318   8.095  18.754  0.00  0.00    +0.000 OA
ATOM     13  H   UNL     1       1.779   6.093  21.219  0.00  0.00    +0.000 HD
BRANCH  11  14
ATOM     14  C   UNL     1       1.024   8.728  20.562  0.00  0.00    +0.000 A 
ATOM     15  C   UNL     1       1.077   8.670  21.978  0.00  0.00    +0.000 A 
ATOM     16  C   UNL     1       0.478   9.645  22.802  0.00  0.00    +0.000 A 
ATOM     17  C   UNL     1      -0.161  10.734  22.213  0.00  0.00    +0.000 A 
ATOM     18  F   UNL     1      -0.728  11.664  22.986  0.00  0.00    +0.000 F 
ATOM     19  C   UNL     1      -0.168  10.860  20.830  0.00  0.00    +0.000 A 
ATOM     20  C   UNL     1       0.429   9.870  19.999  0.00  0.00    +0.000 A 
ENDBRANCH  11  14
ENDBRANCH   8  10
BRANCH   1  21
ATOM     21  S   UNL     1       6.202   5.371  18.558  0.00  0.00    +0.000 S 
ATOM     22  O   UNL     1       7.508   4.902  18.957  0.00  0.00    +0.000 OA
ATOM     23  O   UNL     1       5.873   6.779  18.706  0.00  0.00    +0.000 OA
BRANCH  21  27
ATOM     24  C   UNL     1       6.198   4.081  14.070  0.00  0.00    +0.000 A 
ATOM     25  C   UNL     1       7.245   4.788  14.673  0.00  0.00    +0.000 A 
ATOM     26  C   UNL     1       7.202   5.221  16.000  0.00  0.00    +0.000 A 
ATOM     27  C   UNL     1       6.074   4.977  16.772  0.00  0.00    +0.000 A 
ATOM     28  C   UNL     1       5.002   4.240  16.194  0.00  0.00    +0.000 A 
ATOM     29  C   UNL     1       5.054   3.797  14.835  0.00  0.00    +0.000 A 
BRANCH  24  31
ATOM     30  C   UNL     1       5.553   2.929  12.046  0.00  0.00    +0.000 C 
ATOM     31  O   UNL     1       6.423   3.796  12.758  0.00  0.00    +0.000 OA
ENDBRANCH  24  31
ENDBRANCH  21  27
ENDBRANCH   1  21
TORSDOF 5
ENDMDL
MODEL 9
REMARK VINA RESULT:      -7.8      1.557      1.742
REMARK  Name = 
REMARK  6 active torsions:
REMARK  status: ('A' for Active; 'I' for Inactive)
REMARK    1  A    between atoms: C_1  and  O_2
REMARK    2  A    between atoms: O_2  and  C_3
REMARK    3  A    between atoms: C_6  and  S_7
REMARK    4  A    between atoms: S_7  and  N_10
REMARK    5  A    between atoms: C_17  and  N_18
REMARK    6  A    between atoms: C_19  and  C_21
REMARK                            x       y       z     vdW  Elec       q    Type
REMARK                         _______ _______ _______ _____ _____    ______ ____
ROOT
ATOM      1  N   UNL     1       5.335   5.565  17.656  0.00  0.00    +0.000 N 
ATOM      2  C   UNL     1       6.359   4.463  17.917  0.00  0.00    +0.000 C 
ATOM      3  C   UNL     1       5.699   3.597  18.940  0.00  0.00    +0.000 C 
ATOM      4  C   UNL     1       4.328   3.626  18.342  0.00  0.00    +0.000 A 
ATOM      5  C   UNL     1       3.502   2.524  18.263  0.00  0.00    +0.000 A 
ATOM      6  C   UNL     1       2.217   2.734  17.829  0.00  0.00    +0.000 A 
ATOM      7  C   UNL     1       1.751   4.049  17.708  0.00  0.00    +0.000 A 
ATOM      8  C   UNL     1       2.582   5.199  17.855  0.00  0.00    +0.000 A 
ATOM      9  C   UNL     1       3.988   4.919  17.865  0.00  0.00    +0.000 A 
ENDROOT
BRANCH   8  10
ATOM     10  N   UNL     1       1.847   6.376  18.393  0.00  0.00    +0.000 N 
ATOM     11  C   UNL     1       1.851   6.741  19.780  0.00  0.00    +0.000 C 
ATOM     12  O   UNL     1       2.066   5.925  20.682  0.00  0.00    +0.000 OA
ATOM     13  H   UNL     1       1.470   7.024  17.713  0.00  0.00    +0.000 HD
BRANCH  11  14
ATOM     14  C   UNL     1       1.537   8.143  20.300  0.00  0.00    +0.000 A 
ATOM     15  C   UNL     1       1.344   9.155  19.324  0.00  0.00    +0.000 A 
ATOM     16  C   UNL     1       0.944  10.465  19.657  0.00  0.00    +0.000 A 
ATOM     17  C   UNL     1       0.688  10.781  20.990  0.00  0.00    +0.000 A 
ATOM     18  F   UNL     1       0.305  12.018  21.315  0.00  0.00    +0.000 F 
ATOM     19  C   UNL     1       0.795   9.794  21.962  0.00  0.00    +0.000 A 
ATOM     20  C   UNL     1       1.209   8.473  21.625  0.00  0.00    +0.000 A 
ENDBRANCH  11  14
ENDBRANCH   8  10
BRANCH   1  21
ATOM     21  S   UNL     1       5.937   6.444  16.273  0.00  0.00    +0.000 S 
ATOM     22  O   UNL     1       7.200   7.011  16.683  0.00  0.00    +0.000 OA
ATOM     23  O   UNL     1       4.886   7.319  15.784  0.00  0.00    +0.000 OA
BRANCH  21  27
ATOM     24  C   UNL     1       6.664   3.692  12.571  0.00  0.00    +0.000 A 
ATOM     25  C   UNL     1       5.520   3.624  13.374  0.00  0.00    +0.000 A 
ATOM     26  C   UNL     1       5.348   4.411  14.515  0.00  0.00    +0.000 A 
ATOM     27  C   UNL     1       6.348   5.290  14.908  0.00  0.00    +0.000 A 
ATOM     28  C   UNL     1       7.514   5.397  14.098  0.00  0.00    +0.000 A 
ATOM     29  C   UNL     1       7.683   4.591  12.929  0.00  0.00    +0.000 A 
BRANCH  24  31
ATOM     30  C   UNL     1       5.676   1.776  11.477  0.00  0.00    +0.000 C 
ATOM     31  O   UNL     1       6.651   2.807  11.536  0.00  0.00    +0.000 OA
ENDBRANCH  24  31
ENDBRANCH  21  27
ENDBRANCH   1  21
TORSDOF 5
ENDMDL
