MODEL 1
REMARK VINA RESULT:     -10.5      0.000      0.000
REMARK  Name = 
REMARK  7 active torsions:
REMARK  status: ('A' for Active; 'I' for Inactive)
REMARK    1  A    between atoms: C_1  and  N_2
REMARK    2  A    between atoms: N_2  and  C_3
REMARK    3  A    between atoms: C_3  and  C_4
REMARK    4  A    between atoms: C_10  and  C_12
REMARK    5  A    between atoms: C_12  and  N_13
REMARK    6  A    between atoms: C_21  and  S_22
REMARK    7  A    between atoms: S_22  and  N_25
REMARK                            x       y       z     vdW  Elec       q    Type
REMARK                         _______ _______ _______ _____ _____    ______ ____
ROOT
ATOM      1  N   UNL     1      -0.034  10.025  19.770  0.00  0.00    +0.000 N 
ATOM      2  C   UNL     1      -0.079   9.522  21.127  0.00  0.00    +0.000 C 
ATOM      3  O   UNL     1      -0.669   9.815  22.177  0.00  0.00    +0.000 OA
ATOM      4  C   UNL     1       0.995   8.692  21.092  0.00  0.00    +0.000 C 
ATOM      5  O   UNL     1       1.952   7.838  20.883  0.00  0.00    +0.000 OA
ATOM      6  C   UNL     1       1.776   7.928  19.358  0.00  0.00    +0.000 A 
ATOM      7  C   UNL     1       2.544   6.554  19.366  0.00  0.00    +0.000 A 
ATOM      8  C   UNL     1       3.528   6.269  18.521  0.00  0.00    +0.000 A 
ATOM      9  C   UNL     1       3.663   7.350  17.716  0.00  0.00    +0.000 A 
ATOM     10  C   UNL     1       2.580   8.768  17.823  0.00  0.00    +0.000 A 
ATOM     11  C   UNL     1       1.373   9.360  18.714  0.00  0.00    +0.000 A 
ENDROOT
BRANCH   9  12
ATOM     12  S   UNL     1       5.133   6.638  16.507  0.00  0.00    +0.000 S 
ATOM     13  O   UNL     1       4.865   7.042  15.154  0.00  0.00    +0.000 OA
ATOM     14  O   UNL     1       6.382   7.019  17.147  0.00  0.00    +0.000 OA
BRANCH  12  15
ATOM     15  N   UNL     1       5.085   4.813  16.319  0.00  0.00    +0.000 NA
ATOM     16  C   UNL     1       5.886   4.058  17.309  0.00  0.00    +0.000 C 
ATOM     17  C   UNL     1       7.317   4.569  17.246  0.00  0.00    +0.000 C 
ATOM     18  O   UNL     1       7.878   4.420  15.919  0.00  0.00    +0.000 OA
ATOM     19  C   UNL     1       7.060   4.865  14.806  0.00  0.00    +0.000 C 
ATOM     20  C   UNL     1       5.617   4.377  14.918  0.00  0.00    +0.000 C 
ENDBRANCH  12  15
ENDBRANCH   9  12
BRANCH   1  21
ATOM     21  C   UNL     1      -1.081  11.373  20.104  0.00  0.00    +0.000 C 
BRANCH  21  24
ATOM     22  C   UNL     1      -3.853  11.218  18.112  0.00  0.00    +0.000 C 
ATOM     23  N   UNL     1      -3.950  12.142  19.195  0.00  0.00    +0.000 N 
ATOM     24  C   UNL     1      -2.668  12.395  19.950  0.00  0.00    +0.000 C 
ATOM     25  O   UNL     1      -2.772  13.311  20.848  0.00  0.00    +0.000 OA
BRANCH  23  26
ATOM     26  C   UNL     1      -5.525  12.801  19.248  0.00  0.00    +0.000 C 
BRANCH  26  27
ATOM     27  C   UNL     1      -6.411  12.796  20.628  0.00  0.00    +0.000 A 
ATOM     28  C   UNL     1      -6.518  13.876  21.521  0.00  0.00    +0.000 A 
ATOM     29  C   UNL     1      -7.072  13.743  22.831  0.00  0.00    +0.000 A 
ATOM     30  C   UNL     1      -7.765  12.604  23.215  0.00  0.00    +0.000 A 
ATOM     31  C   UNL     1      -7.899  11.592  22.274  0.00  0.00    +0.000 A 
ATOM     32  C   UNL     1      -7.210  11.669  21.020  0.00  0.00    +0.000 A 
ENDBRANCH  26  27
ENDBRANCH  23  26
ENDBRANCH  21  24
ENDBRANCH   1  21
TORSDOF 6
ENDMDL
MODEL 2
REMARK VINA RESULT:      -9.9      2.472      2.909
REMARK  Name = 
REMARK  7 active torsions:
REMARK  status: ('A' for Active; 'I' for Inactive)
REMARK    1  A    between atoms: C_1  and  N_2
REMARK    2  A    between atoms: N_2  and  C_3
REMARK    3  A    between atoms: C_3  and  C_4
REMARK    4  A    between atoms: C_10  and  C_12
REMARK    5  A    between atoms: C_12  and  N_13
REMARK    6  A    between atoms: C_21  and  S_22
REMARK    7  A    between atoms: S_22  and  N_25
REMARK                            x       y       z     vdW  Elec       q    Type
REMARK                         _______ _______ _______ _____ _____    ______ ____
ROOT
ATOM      1  N   UNL     1      -0.237  10.223  19.372  0.00  0.00    +0.000 N 
ATOM      2  C   UNL     1      -0.290   9.908  20.785  0.00  0.00    +0.000 C 
ATOM      3  O   UNL     1      -0.912  10.316  21.776  0.00  0.00    +0.000 OA
ATOM      4  C   UNL     1       0.816   9.126  20.880  0.00  0.00    +0.000 C 
ATOM      5  O   UNL     1       1.809   8.291  20.803  0.00  0.00    +0.000 OA
ATOM      6  C   UNL     1       1.661   8.166  19.278  0.00  0.00    +0.000 A 
ATOM      7  C   UNL     1       2.482   6.839  19.485  0.00  0.00    +0.000 A 
ATOM      8  C   UNL     1       3.493   6.482  18.702  0.00  0.00    +0.000 A 
ATOM      9  C   UNL     1       3.602   7.448  17.758  0.00  0.00    +0.000 A 
ATOM     10  C   UNL     1       2.463   8.822  17.655  0.00  0.00    +0.000 A 
ATOM     11  C   UNL     1       1.216   9.479  18.438  0.00  0.00    +0.000 A 
ENDROOT
BRANCH   9  12
ATOM     12  S   UNL     1       5.123   6.639  16.679  0.00  0.00    +0.000 S 
ATOM     13  O   UNL     1       4.904   6.908  15.285  0.00  0.00    +0.000 OA
ATOM     14  O   UNL     1       6.343   7.095  17.327  0.00  0.00    +0.000 OA
BRANCH  12  15
ATOM     15  N   UNL     1       5.096   4.805  16.668  0.00  0.00    +0.000 NA
ATOM     16  C   UNL     1       5.926   4.158  17.708  0.00  0.00    +0.000 C 
ATOM     17  C   UNL     1       7.348   4.676  17.569  0.00  0.00    +0.000 C 
ATOM     18  O   UNL     1       7.886   4.409  16.251  0.00  0.00    +0.000 OA
ATOM     19  C   UNL     1       7.041   4.735  15.118  0.00  0.00    +0.000 C 
ATOM     20  C   UNL     1       5.608   4.243  15.304  0.00  0.00    +0.000 C 
ENDBRANCH  12  15
ENDBRANCH   9  12
BRANCH   1  21
ATOM     21  C   UNL     1      -1.342  11.560  19.504  0.00  0.00    +0.000 C 
BRANCH  21  24
ATOM     22  C   UNL     1      -4.372  12.754  20.536  0.00  0.00    +0.000 C 
ATOM     23  N   UNL     1      -3.267  13.611  20.822  0.00  0.00    +0.000 N 
ATOM     24  C   UNL     1      -1.959  13.217  20.182  0.00  0.00    +0.000 C 
ATOM     25  O   UNL     1      -1.015  14.070  20.376  0.00  0.00    +0.000 OA
BRANCH  23  26
ATOM     26  C   UNL     1      -3.798  14.944  21.748  0.00  0.00    +0.000 C 
BRANCH  26  27
ATOM     27  C   UNL     1      -3.077  15.346  23.165  0.00  0.00    +0.000 A 
ATOM     28  C   UNL     1      -2.107  16.352  23.318  0.00  0.00    +0.000 A 
ATOM     29  C   UNL     1      -1.315  16.488  24.499  0.00  0.00    +0.000 A 
ATOM     30  C   UNL     1      -1.621  15.797  25.663  0.00  0.00    +0.000 A 
ATOM     31  C   UNL     1      -2.730  14.962  25.636  0.00  0.00    +0.000 A 
ATOM     32  C   UNL     1      -3.424  14.715  24.407  0.00  0.00    +0.000 A 
ENDBRANCH  26  27
ENDBRANCH  23  26
ENDBRANCH  21  24
ENDBRANCH   1  21
TORSDOF 6
ENDMDL
MODEL 3
REMARK VINA RESULT:      -9.9      2.837     12.383
REMARK  Name = 
REMARK  7 active torsions:
REMARK  status: ('A' for Active; 'I' for Inactive)
REMARK    1  A    between atoms: C_1  and  N_2
REMARK    2  A    between atoms: N_2  and  C_3
REMARK    3  A    between atoms: C_3  and  C_4
REMARK    4  A    between atoms: C_10  and  C_12
REMARK    5  A    between atoms: C_12  and  N_13
REMARK    6  A    between atoms: C_21  and  S_22
REMARK    7  A    between atoms: S_22  and  N_25
REMARK                            x       y       z     vdW  Elec       q    Type
REMARK                         _______ _______ _______ _____ _____    ______ ____
ROOT
ATOM      1  N   UNL     1       2.153   8.199  18.978  0.00  0.00    +0.000 N 
ATOM      2  C   UNL     1       2.122   7.182  20.007  0.00  0.00    +0.000 C 
ATOM      3  O   UNL     1       2.594   6.047  20.167  0.00  0.00    +0.000 OA
ATOM      4  C   UNL     1       1.126   7.681  20.783  0.00  0.00    +0.000 C 
ATOM      5  O   UNL     1       0.263   8.335  21.502  0.00  0.00    +0.000 OA
ATOM      6  C   UNL     1       0.561   9.652  20.766  0.00  0.00    +0.000 A 
ATOM      7  C   UNL     1      -0.091  10.306  22.041  0.00  0.00    +0.000 A 
ATOM      8  C   UNL     1      -0.973  11.297  21.976  0.00  0.00    +0.000 A 
ATOM      9  C   UNL     1      -1.125  11.586  20.661  0.00  0.00    +0.000 A 
ATOM     10  C   UNL     1      -0.174  10.773  19.384  0.00  0.00    +0.000 A 
ATOM     11  C   UNL     1       0.900   9.587  19.182  0.00  0.00    +0.000 A 
ENDROOT
BRANCH   9  12
ATOM     12  S   UNL     1      -2.423  13.138  20.845  0.00  0.00    +0.000 S 
ATOM     13  O   UNL     1      -1.837  14.312  20.260  0.00  0.00    +0.000 OA
ATOM     14  O   UNL     1      -3.698  12.639  20.355  0.00  0.00    +0.000 OA
BRANCH  12  15
ATOM     15  N   UNL     1      -2.624  13.701  22.579  0.00  0.00    +0.000 NA
ATOM     16  C   UNL     1      -3.785  13.129  23.296  0.00  0.00    +0.000 C 
ATOM     17  C   UNL     1      -5.036  13.429  22.484  0.00  0.00    +0.000 C 
ATOM     18  O   UNL     1      -5.213  14.852  22.285  0.00  0.00    +0.000 OA
ATOM     19  C   UNL     1      -4.051  15.605  21.851  0.00  0.00    +0.000 C 
ATOM     20  C   UNL     1      -2.800  15.251  22.651  0.00  0.00    +0.000 C 
ENDBRANCH  12  15
ENDBRANCH   9  12
BRANCH   1  21
ATOM     21  C   UNL     1       3.054   7.216  17.861  0.00  0.00    +0.000 C 
BRANCH  21  24
ATOM     22  C   UNL     1       3.484   3.871  17.310  0.00  0.00    +0.000 C 
ATOM     23  N   UNL     1       4.572   4.689  16.881  0.00  0.00    +0.000 N 
ATOM     24  C   UNL     1       4.508   6.133  17.313  0.00  0.00    +0.000 C 
ATOM     25  O   UNL     1       5.556   6.810  16.999  0.00  0.00    +0.000 OA
BRANCH  23  26
ATOM     26  C   UNL     1       5.727   3.728  16.069  0.00  0.00    +0.000 C 
BRANCH  26  27
ATOM     27  C   UNL     1       6.198   4.066  14.535  0.00  0.00    +0.000 A 
ATOM     28  C   UNL     1       5.597   3.546  13.375  0.00  0.00    +0.000 A 
ATOM     29  C   UNL     1       6.197   3.646  12.083  0.00  0.00    +0.000 A 
ATOM     30  C   UNL     1       7.285   4.476  11.848  0.00  0.00    +0.000 A 
ATOM     31  C   UNL     1       7.772   5.206  12.924  0.00  0.00    +0.000 A 
ATOM     32  C   UNL     1       7.264   4.983  14.245  0.00  0.00    +0.000 A 
ENDBRANCH  26  27
ENDBRANCH  23  26
ENDBRANCH  21  24
ENDBRANCH   1  21
TORSDOF 6
ENDMDL
MODEL 4
REMARK VINA RESULT:      -9.9      1.516      1.964
REMARK  Name = 
REMARK  7 active torsions:
REMARK  status: ('A' for Active; 'I' for Inactive)
REMARK    1  A    between atoms: C_1  and  N_2
REMARK    2  A    between atoms: N_2  and  C_3
REMARK    3  A    between atoms: C_3  and  C_4
REMARK    4  A    between atoms: C_10  and  C_12
REMARK    5  A    between atoms: C_12  and  N_13
REMARK    6  A    between atoms: C_21  and  S_22
REMARK    7  A    between atoms: S_22  and  N_25
REMARK                            x       y       z     vdW  Elec       q    Type
REMARK                         _______ _______ _______ _____ _____    ______ ____
ROOT
ATOM      1  N   UNL     1       0.164   9.508  19.614  0.00  0.00    +0.000 N 
ATOM      2  C   UNL     1      -0.055   9.473  21.045  0.00  0.00    +0.000 C 
ATOM      3  O   UNL     1      -0.664  10.157  21.880  0.00  0.00    +0.000 OA
ATOM      4  C   UNL     1       0.874   8.545  21.389  0.00  0.00    +0.000 C 
ATOM      5  O   UNL     1       1.696   7.553  21.562  0.00  0.00    +0.000 OA
ATOM      6  C   UNL     1       1.644   7.176  20.072  0.00  0.00    +0.000 A 
ATOM      7  C   UNL     1       2.183   5.789  20.587  0.00  0.00    +0.000 A 
ATOM      8  C   UNL     1       3.167   5.126  19.989  0.00  0.00    +0.000 A 
ATOM      9  C   UNL     1       3.527   5.868  18.915  0.00  0.00    +0.000 A 
ATOM     10  C   UNL     1       2.677   7.374  18.459  0.00  0.00    +0.000 A 
ATOM     11  C   UNL     1       1.519   8.368  18.981  0.00  0.00    +0.000 A 
ENDROOT
BRANCH   9  12
ATOM     12  S   UNL     1       4.947   4.627  18.159  0.00  0.00    +0.000 S 
ATOM     13  O   UNL     1       5.478   3.819  19.222  0.00  0.00    +0.000 OA
ATOM     14  O   UNL     1       4.335   3.996  17.000  0.00  0.00    +0.000 OA
BRANCH  12  15
ATOM     15  N   UNL     1       6.464   5.512  17.631  0.00  0.00    +0.000 NA
ATOM     16  C   UNL     1       6.233   6.807  16.951  0.00  0.00    +0.000 C 
ATOM     17  C   UNL     1       5.313   6.559  15.765  0.00  0.00    +0.000 C 
ATOM     18  O   UNL     1       5.879   5.596  14.844  0.00  0.00    +0.000 OA
ATOM     19  C   UNL     1       6.419   4.377  15.417  0.00  0.00    +0.000 C 
ATOM     20  C   UNL     1       7.301   4.651  16.633  0.00  0.00    +0.000 C 
ENDBRANCH  12  15
ENDBRANCH   9  12
BRANCH   1  21
ATOM     21  C   UNL     1      -0.677  11.016  19.399  0.00  0.00    +0.000 C 
BRANCH  21  24
ATOM     22  C   UNL     1      -3.846  11.047  18.122  0.00  0.00    +0.000 C 
ATOM     23  N   UNL     1      -3.597  12.037  19.120  0.00  0.00    +0.000 N 
ATOM     24  C   UNL     1      -2.155  12.192  19.534  0.00  0.00    +0.000 C 
ATOM     25  O   UNL     1      -1.958  13.164  20.354  0.00  0.00    +0.000 OA
BRANCH  23  26
ATOM     26  C   UNL     1      -5.047  12.864  19.482  0.00  0.00    +0.000 C 
BRANCH  26  27
ATOM     27  C   UNL     1      -5.829  12.642  20.906  0.00  0.00    +0.000 A 
ATOM     28  C   UNL     1      -7.061  11.981  21.054  0.00  0.00    +0.000 A 
ATOM     29  C   UNL     1      -7.832  12.045  22.255  0.00  0.00    +0.000 A 
ATOM     30  C   UNL     1      -7.302  12.552  23.433  0.00  0.00    +0.000 A 
ATOM     31  C   UNL     1      -5.989  13.001  23.400  0.00  0.00    +0.000 A 
ATOM     32  C   UNL     1      -5.277  13.076  22.158  0.00  0.00    +0.000 A 
ENDBRANCH  26  27
ENDBRANCH  23  26
ENDBRANCH  21  24
ENDBRANCH   1  21
TORSDOF 6
ENDMDL
MODEL 5
REMARK VINA RESULT:      -9.8      2.899      3.821
REMARK  Name = 
REMARK  7 active torsions:
REMARK  status: ('A' for Active; 'I' for Inactive)
REMARK    1  A    between atoms: C_1  and  N_2
REMARK    2  A    between atoms: N_2  and  C_3
REMARK    3  A    between atoms: C_3  and  C_4
REMARK    4  A    between atoms: C_10  and  C_12
REMARK    5  A    between atoms: C_12  and  N_13
REMARK    6  A    between atoms: C_21  and  S_22
REMARK    7  A    between atoms: S_22  and  N_25
REMARK                            x       y       z     vdW  Elec       q    Type
REMARK                         _______ _______ _______ _____ _____    ______ ____
ROOT
ATOM      1  N   UNL     1       0.812   9.762  20.072  0.00  0.00    +0.000 N 
ATOM      2  C   UNL     1       0.701  10.586  18.886  0.00  0.00    +0.000 C 
ATOM      3  O   UNL     1       0.097  11.618  18.559  0.00  0.00    +0.000 OA
ATOM      4  C   UNL     1       1.281   9.755  17.983  0.00  0.00    +0.000 C 
ATOM      5  O   UNL     1       1.975   8.928  17.258  0.00  0.00    +0.000 OA
ATOM      6  C   UNL     1       2.561   8.240  18.502  0.00  0.00    +0.000 A 
ATOM      7  C   UNL     1       3.660   7.742  17.490  0.00  0.00    +0.000 A 
ATOM      8  C   UNL     1       4.107   6.491  17.464  0.00  0.00    +0.000 A 
ATOM      9  C   UNL     1       3.456   5.834  18.453  0.00  0.00    +0.000 A 
ATOM     10  C   UNL     1       2.321   6.653  19.565  0.00  0.00    +0.000 A 
ATOM     11  C   UNL     1       1.618   8.083  19.810  0.00  0.00    +0.000 A 
ENDROOT
BRANCH   9  12
ATOM     12  S   UNL     1       4.357   4.024  18.250  0.00  0.00    +0.000 S 
ATOM     13  O   UNL     1       4.710   3.827  16.871  0.00  0.00    +0.000 OA
ATOM     14  O   UNL     1       5.386   3.984  19.278  0.00  0.00    +0.000 OA
BRANCH  12  15
ATOM     15  N   UNL     1       3.205   2.619  18.497  0.00  0.00    +0.000 NA
ATOM     16  C   UNL     1       2.098   2.872  19.447  0.00  0.00    +0.000 C 
ATOM     17  C   UNL     1       2.704   3.311  20.771  0.00  0.00    +0.000 C 
ATOM     18  O   UNL     1       3.609   2.312  21.300  0.00  0.00    +0.000 OA
ATOM     19  C   UNL     1       4.582   1.753  20.381  0.00  0.00    +0.000 C 
ATOM     20  C   UNL     1       3.956   1.363  19.044  0.00  0.00    +0.000 C 
ENDBRANCH  12  15
ENDBRANCH   9  12
BRANCH   1  21
ATOM     21  C   UNL     1      -0.362  10.681  20.968  0.00  0.00    +0.000 C 
BRANCH  21  24
ATOM     22  C   UNL     1      -1.023  13.938  21.764  0.00  0.00    +0.000 C 
ATOM     23  N   UNL     1      -1.516  12.985  22.704  0.00  0.00    +0.000 N 
ATOM     24  C   UNL     1      -1.046  11.566  22.497  0.00  0.00    +0.000 C 
ATOM     25  O   UNL     1      -1.426  10.758  23.424  0.00  0.00    +0.000 OA
BRANCH  23  26
ATOM     26  C   UNL     1      -2.438  13.782  23.900  0.00  0.00    +0.000 C 
BRANCH  26  27
ATOM     27  C   UNL     1      -4.073  13.875  23.803  0.00  0.00    +0.000 A 
ATOM     28  C   UNL     1      -4.793  15.023  23.431  0.00  0.00    +0.000 A 
ATOM     29  C   UNL     1      -6.204  15.144  23.619  0.00  0.00    +0.000 A 
ATOM     30  C   UNL     1      -6.991  14.049  23.948  0.00  0.00    +0.000 A 
ATOM     31  C   UNL     1      -6.351  12.825  24.091  0.00  0.00    +0.000 A 
ATOM     32  C   UNL     1      -4.920  12.743  24.053  0.00  0.00    +0.000 A 
ENDBRANCH  26  27
ENDBRANCH  23  26
ENDBRANCH  21  24
ENDBRANCH   1  21
TORSDOF 6
ENDMDL
MODEL 6
REMARK VINA RESULT:      -9.8      3.418      4.454
REMARK  Name = 
REMARK  7 active torsions:
REMARK  status: ('A' for Active; 'I' for Inactive)
REMARK    1  A    between atoms: C_1  and  N_2
REMARK    2  A    between atoms: N_2  and  C_3
REMARK    3  A    between atoms: C_3  and  C_4
REMARK    4  A    between atoms: C_10  and  C_12
REMARK    5  A    between atoms: C_12  and  N_13
REMARK    6  A    between atoms: C_21  and  S_22
REMARK    7  A    between atoms: S_22  and  N_25
REMARK                            x       y       z     vdW  Elec       q    Type
REMARK                         _______ _______ _______ _____ _____    ______ ____
ROOT
ATOM      1  N   UNL     1       0.789   9.465  20.032  0.00  0.00    +0.000 N 
ATOM      2  C   UNL     1       0.567  10.237  18.827  0.00  0.00    +0.000 C 
ATOM      3  O   UNL     1      -0.143  11.195  18.489  0.00  0.00    +0.000 OA
ATOM      4  C   UNL     1       1.204   9.440  17.931  0.00  0.00    +0.000 C 
ATOM      5  O   UNL     1       1.959   8.665  17.211  0.00  0.00    +0.000 OA
ATOM      6  C   UNL     1       2.641   8.075  18.456  0.00  0.00    +0.000 A 
ATOM      7  C   UNL     1       3.758   7.657  17.429  0.00  0.00    +0.000 A 
ATOM      8  C   UNL     1       4.325   6.456  17.424  0.00  0.00    +0.000 A 
ATOM      9  C   UNL     1       3.768   5.768  18.449  0.00  0.00    +0.000 A 
ATOM     10  C   UNL     1       2.586   6.505  19.570  0.00  0.00    +0.000 A 
ATOM     11  C   UNL     1       1.750   7.866  19.794  0.00  0.00    +0.000 A 
ENDROOT
BRANCH   9  12
ATOM     12  S   UNL     1       4.839   4.050  18.271  0.00  0.00    +0.000 S 
ATOM     13  O   UNL     1       5.771   4.188  17.186  0.00  0.00    +0.000 OA
ATOM     14  O   UNL     1       5.319   3.751  19.611  0.00  0.00    +0.000 OA
BRANCH  12  15
ATOM     15  N   UNL     1       3.834   2.641  17.663  0.00  0.00    +0.000 NA
ATOM     16  C   UNL     1       2.563   3.013  17.002  0.00  0.00    +0.000 C 
ATOM     17  C   UNL     1       1.761   3.869  17.970  0.00  0.00    +0.000 C 
ATOM     18  O   UNL     1       1.502   3.169  19.211  0.00  0.00    +0.000 OA
ATOM     19  C   UNL     1       2.627   2.497  19.834  0.00  0.00    +0.000 C 
ATOM     20  C   UNL     1       3.442   1.683  18.832  0.00  0.00    +0.000 C 
ENDBRANCH  12  15
ENDBRANCH   9  12
BRANCH   1  21
ATOM     21  C   UNL     1      -0.447  10.291  20.935  0.00  0.00    +0.000 C 
BRANCH  21  24
ATOM     22  C   UNL     1      -2.897  12.658  21.194  0.00  0.00    +0.000 C 
ATOM     23  N   UNL     1      -2.345  12.236  22.440  0.00  0.00    +0.000 N 
ATOM     24  C   UNL     1      -1.116  11.366  22.344  0.00  0.00    +0.000 C 
ATOM     25  O   UNL     1      -0.587  11.095  23.485  0.00  0.00    +0.000 OA
BRANCH  23  26
ATOM     26  C   UNL     1      -3.205  12.961  23.725  0.00  0.00    +0.000 C 
BRANCH  26  27
ATOM     27  C   UNL     1      -2.803  14.444  24.298  0.00  0.00    +0.000 A 
ATOM     28  C   UNL     1      -1.497  14.861  24.607  0.00  0.00    +0.000 A 
ATOM     29  C   UNL     1      -1.221  16.049  25.350  0.00  0.00    +0.000 A 
ATOM     30  C   UNL     1      -2.205  16.997  25.598  0.00  0.00    +0.000 A 
ATOM     31  C   UNL     1      -3.474  16.743  25.097  0.00  0.00    +0.000 A 
ATOM     32  C   UNL     1      -3.778  15.481  24.489  0.00  0.00    +0.000 A 
ENDBRANCH  26  27
ENDBRANCH  23  26
ENDBRANCH  21  24
ENDBRANCH   1  21
TORSDOF 6
ENDMDL
MODEL 7
REMARK VINA RESULT:      -9.8      2.697      3.700
REMARK  Name = 
REMARK  7 active torsions:
REMARK  status: ('A' for Active; 'I' for Inactive)
REMARK    1  A    between atoms: C_1  and  N_2
REMARK    2  A    between atoms: N_2  and  C_3
REMARK    3  A    between atoms: C_3  and  C_4
REMARK    4  A    between atoms: C_10  and  C_12
REMARK    5  A    between atoms: C_12  and  N_13
REMARK    6  A    between atoms: C_21  and  S_22
REMARK    7  A    between atoms: S_22  and  N_25
REMARK                            x       y       z     vdW  Elec       q    Type
REMARK                         _______ _______ _______ _____ _____    ______ ____
ROOT
ATOM      1  N   UNL     1       0.137  10.214  21.190  0.00  0.00    +0.000 N 
ATOM      2  C   UNL     1      -0.445  11.004  20.126  0.00  0.00    +0.000 C 
ATOM      3  O   UNL     1      -1.276  11.920  20.034  0.00  0.00    +0.000 OA
ATOM      4  C   UNL     1      -0.027  10.280  19.056  0.00  0.00    +0.000 C 
ATOM      5  O   UNL     1       0.551   9.580  18.125  0.00  0.00    +0.000 OA
ATOM      6  C   UNL     1       1.576   9.003  19.115  0.00  0.00    +0.000 A 
ATOM      7  C   UNL     1       2.398   8.693  17.809  0.00  0.00    +0.000 A 
ATOM      8  C   UNL     1       3.013   7.535  17.597  0.00  0.00    +0.000 A 
ATOM      9  C   UNL     1       2.793   6.780  18.700  0.00  0.00    +0.000 A 
ATOM     10  C   UNL     1       1.914   7.400  20.128  0.00  0.00    +0.000 A 
ATOM     11  C   UNL     1       1.091   8.693  20.631  0.00  0.00    +0.000 A 
ENDROOT
BRANCH   9  12
ATOM     12  S   UNL     1       3.875   5.146  18.163  0.00  0.00    +0.000 S 
ATOM     13  O   UNL     1       4.607   5.442  16.962  0.00  0.00    +0.000 OA
ATOM     14  O   UNL     1       4.584   4.737  19.366  0.00  0.00    +0.000 OA
BRANCH  12  15
ATOM     15  N   UNL     1       2.831   3.757  17.577  0.00  0.00    +0.000 NA
ATOM     16  C   UNL     1       1.463   3.717  18.141  0.00  0.00    +0.000 C 
ATOM     17  C   UNL     1       1.577   3.703  19.657  0.00  0.00    +0.000 C 
ATOM     18  O   UNL     1       2.351   2.571  20.122  0.00  0.00    +0.000 OA
ATOM     19  C   UNL     1       3.610   2.314  19.449  0.00  0.00    +0.000 C 
ATOM     20  C   UNL     1       3.476   2.379  17.929  0.00  0.00    +0.000 C 
ENDBRANCH  12  15
ENDBRANCH   9  12
BRANCH   1  21
ATOM     21  C   UNL     1      -0.857  10.925  22.428  0.00  0.00    +0.000 C 
BRANCH  21  24
ATOM     22  C   UNL     1      -0.569  14.318  22.714  0.00  0.00    +0.000 C 
ATOM     23  N   UNL     1      -1.835  13.794  23.111  0.00  0.00    +0.000 N 
ATOM     24  C   UNL     1      -1.913  12.290  23.209  0.00  0.00    +0.000 C 
ATOM     25  O   UNL     1      -3.035  11.862  23.672  0.00  0.00    +0.000 OA
BRANCH  23  26
ATOM     26  C   UNL     1      -2.898  15.078  23.483  0.00  0.00    +0.000 C 
BRANCH  26  27
ATOM     27  C   UNL     1      -4.496  15.001  23.121  0.00  0.00    +0.000 A 
ATOM     28  C   UNL     1      -5.524  15.572  23.891  0.00  0.00    +0.000 A 
ATOM     29  C   UNL     1      -6.903  15.256  23.693  0.00  0.00    +0.000 A 
ATOM     30  C   UNL     1      -7.337  14.563  22.571  0.00  0.00    +0.000 A 
ATOM     31  C   UNL     1      -6.374  14.183  21.646  0.00  0.00    +0.000 A 
ATOM     32  C   UNL     1      -4.981  14.367  21.928  0.00  0.00    +0.000 A 
ENDBRANCH  26  27
ENDBRANCH  23  26
ENDBRANCH  21  24
ENDBRANCH   1  21
TORSDOF 6
ENDMDL
MODEL 8
REMARK VINA RESULT:      -9.8      1.606      1.987
REMARK  Name = 
REMARK  7 active torsions:
REMARK  status: ('A' for Active; 'I' for Inactive)
REMARK    1  A    between atoms: C_1  and  N_2
REMARK    2  A    between atoms: N_2  and  C_3
REMARK    3  A    between atoms: C_3  and  C_4
REMARK    4  A    between atoms: C_10  and  C_12
REMARK    5  A    between atoms: C_12  and  N_13
REMARK    6  A    between atoms: C_21  and  S_22
REMARK    7  A    between atoms: S_22  and  N_25
REMARK                            x       y       z     vdW  Elec       q    Type
REMARK                         _______ _______ _______ _____ _____    ______ ____
ROOT
ATOM      1  N   UNL     1       0.175   9.402  19.477  0.00  0.00    +0.000 N 
ATOM      2  C   UNL     1      -0.022   9.435  20.911  0.00  0.00    +0.000 C 
ATOM      3  O   UNL     1      -0.635  10.146  21.720  0.00  0.00    +0.000 OA
ATOM      4  C   UNL     1       0.934   8.548  21.287  0.00  0.00    +0.000 C 
ATOM      5  O   UNL     1       1.783   7.585  21.497  0.00  0.00    +0.000 OA
ATOM      6  C   UNL     1       1.718   7.131  20.029  0.00  0.00    +0.000 A 
ATOM      7  C   UNL     1       2.298   5.786  20.605  0.00  0.00    +0.000 A 
ATOM      8  C   UNL     1       3.289   5.117  20.026  0.00  0.00    +0.000 A 
ATOM      9  C   UNL     1       3.614   5.811  18.909  0.00  0.00    +0.000 A 
ATOM     10  C   UNL     1       2.721   7.271  18.391  0.00  0.00    +0.000 A 
ATOM     11  C   UNL     1       1.548   8.262  18.881  0.00  0.00    +0.000 A 
ENDROOT
BRANCH   9  12
ATOM     12  S   UNL     1       5.053   4.567  18.194  0.00  0.00    +0.000 S 
ATOM     13  O   UNL     1       5.615   3.822  19.287  0.00  0.00    +0.000 OA
ATOM     14  O   UNL     1       4.441   3.868  17.075  0.00  0.00    +0.000 OA
BRANCH  12  15
ATOM     15  N   UNL     1       6.543   5.459  17.604  0.00  0.00    +0.000 NA
ATOM     16  C   UNL     1       6.281   6.770  16.969  0.00  0.00    +0.000 C 
ATOM     17  C   UNL     1       5.296   6.555  15.831  0.00  0.00    +0.000 C 
ATOM     18  O   UNL     1       5.806   5.612  14.857  0.00  0.00    +0.000 OA
ATOM     19  C   UNL     1       6.370   4.377  15.370  0.00  0.00    +0.000 C 
ATOM     20  C   UNL     1       7.319   4.619  16.541  0.00  0.00    +0.000 C 
ENDBRANCH  12  15
ENDBRANCH   9  12
BRANCH   1  21
ATOM     21  C   UNL     1      -0.706  10.876  19.199  0.00  0.00    +0.000 C 
BRANCH  21  24
ATOM     22  C   UNL     1      -3.540  10.449  17.337  0.00  0.00    +0.000 C 
ATOM     23  N   UNL     1      -3.569  11.574  18.214  0.00  0.00    +0.000 N 
ATOM     24  C   UNL     1      -2.256  11.915  18.876  0.00  0.00    +0.000 C 
ATOM     25  O   UNL     1      -2.297  12.996  19.573  0.00  0.00    +0.000 OA
BRANCH  23  26
ATOM     26  C   UNL     1      -5.114  12.301  18.167  0.00  0.00    +0.000 C 
BRANCH  26  27
ATOM     27  C   UNL     1      -6.203  12.080  19.373  0.00  0.00    +0.000 A 
ATOM     28  C   UNL     1      -6.650  13.085  20.248  0.00  0.00    +0.000 A 
ATOM     29  C   UNL     1      -7.382  12.801  21.441  0.00  0.00    +0.000 A 
ATOM     30  C   UNL     1      -7.914  11.542  21.685  0.00  0.00    +0.000 A 
ATOM     31  C   UNL     1      -7.704  10.564  20.723  0.00  0.00    +0.000 A 
ATOM     32  C   UNL     1      -6.840  10.815  19.607  0.00  0.00    +0.000 A 
ENDBRANCH  26  27
ENDBRANCH  23  26
ENDBRANCH  21  24
ENDBRANCH   1  21
TORSDOF 6
ENDMDL
MODEL 9
REMARK VINA RESULT:      -9.7      3.571      5.150
REMARK  Name = 
REMARK  7 active torsions:
REMARK  status: ('A' for Active; 'I' for Inactive)
REMARK    1  A    between atoms: C_1  and  N_2
REMARK    2  A    between atoms: N_2  and  C_3
REMARK    3  A    between atoms: C_3  and  C_4
REMARK    4  A    between atoms: C_10  and  C_12
REMARK    5  A    between atoms: C_12  and  N_13
REMARK    6  A    between atoms: C_21  and  S_22
REMARK    7  A    between atoms: S_22  and  N_25
REMARK                            x       y       z     vdW  Elec       q    Type
REMARK                         _______ _______ _______ _____ _____    ______ ____
ROOT
ATOM      1  N   UNL     1       0.637   9.611  19.760  0.00  0.00    +0.000 N 
ATOM      2  C   UNL     1       0.237   9.437  21.141  0.00  0.00    +0.000 C 
ATOM      3  O   UNL     1      -0.373  10.100  21.993  0.00  0.00    +0.000 OA
ATOM      4  C   UNL     1       0.981   8.345  21.453  0.00  0.00    +0.000 C 
ATOM      5  O   UNL     1       1.633   7.227  21.575  0.00  0.00    +0.000 OA
ATOM      6  C   UNL     1       1.718   7.044  20.050  0.00  0.00    +0.000 A 
ATOM      7  C   UNL     1       1.996   5.540  20.425  0.00  0.00    +0.000 A 
ATOM      8  C   UNL     1       2.948   4.814  19.850  0.00  0.00    +0.000 A 
ATOM      9  C   UNL     1       3.537   5.617  18.932  0.00  0.00    +0.000 A 
ATOM     10  C   UNL     1       2.963   7.277  18.599  0.00  0.00    +0.000 A 
ATOM     11  C   UNL     1       1.894   8.364  19.126  0.00  0.00    +0.000 A 
ENDROOT
BRANCH   9  12
ATOM     12  S   UNL     1       4.859   4.276  18.169  0.00  0.00    +0.000 S 
ATOM     13  O   UNL     1       5.257   3.366  19.208  0.00  0.00    +0.000 OA
ATOM     14  O   UNL     1       4.242   3.770  16.953  0.00  0.00    +0.000 OA
BRANCH  12  15
ATOM     15  N   UNL     1       6.481   5.027  17.754  0.00  0.00    +0.000 NA
ATOM     16  C   UNL     1       6.448   6.481  17.476  0.00  0.00    +0.000 C 
ATOM     17  C   UNL     1       5.440   6.727  16.365  0.00  0.00    +0.000 C 
ATOM     18  O   UNL     1       5.777   5.989  15.166  0.00  0.00    +0.000 OA
ATOM     19  C   UNL     1       6.121   4.589  15.331  0.00  0.00    +0.000 C 
ATOM     20  C   UNL     1       7.099   4.365  16.481  0.00  0.00    +0.000 C 
ENDBRANCH  12  15
ENDBRANCH   9  12
BRANCH   1  21
ATOM     21  C   UNL     1       0.042  11.243  19.665  0.00  0.00    +0.000 C 
BRANCH  21  24
ATOM     22  C   UNL     1      -1.925  13.943  20.386  0.00  0.00    +0.000 C 
ATOM     23  N   UNL     1      -0.618  14.268  19.914  0.00  0.00    +0.000 N 
ATOM     24  C   UNL     1       0.186  13.109  19.378  0.00  0.00    +0.000 C 
ATOM     25  O   UNL     1       1.313  13.459  18.866  0.00  0.00    +0.000 OA
BRANCH  23  26
ATOM     26  C   UNL     1      -0.383  15.958  19.994  0.00  0.00    +0.000 C 
BRANCH  26  27
ATOM     27  C   UNL     1       0.062  16.825  18.675  0.00  0.00    +0.000 A 
ATOM     28  C   UNL     1       1.360  16.869  18.139  0.00  0.00    +0.000 A 
ATOM     29  C   UNL     1       1.763  17.835  17.167  0.00  0.00    +0.000 A 
ATOM     30  C   UNL     1       0.838  18.631  16.506  0.00  0.00    +0.000 A 
ATOM     31  C   UNL     1      -0.500  18.454  16.830  0.00  0.00    +0.000 A 
ATOM     32  C   UNL     1      -0.880  17.595  17.912  0.00  0.00    +0.000 A 
ENDBRANCH  26  27
ENDBRANCH  23  26
ENDBRANCH  21  24
ENDBRANCH   1  21
TORSDOF 6
ENDMDL
