MODEL 1
REMARK VINA RESULT:      -8.6      0.000      0.000
REMARK  Name = 
REMARK  11 active torsions:
REMARK  status: ('A' for Active; 'I' for Inactive)
REMARK    1  A    between atoms: C_1  and  C_2
REMARK    2  A    between atoms: C_2  and  C_3
REMARK    3  A    between atoms: C_2  and  C_4
REMARK    4  A    between atoms: C_2  and  C_28
REMARK    5  A    between atoms: C_4  and  C_5
REMARK    6  A    between atoms: C_5  and  O_6
REMARK    7  A    between atoms: C_5  and  C_7
REMARK    8  A    between atoms: C_5  and  C_15
REMARK    9  A    between atoms: C_7  and  C_8
REMARK   10  A    between atoms: C_8  and  C_9
REMARK   11  A    between atoms: N_17  and  C_18
REMARK                            x       y       z     vdW  Elec       q    Type
REMARK                         _______ _______ _______ _____ _____    ______ ____
ROOT
ATOM      1  C   UNL     1       5.447   4.812  17.712  0.00  0.00    +0.000 C 
ENDROOT
BRANCH   1   2
ATOM      2  C   UNL     1       4.567   5.754  18.594  0.00  0.00    +0.000 C 
ATOM      3  O   UNL     1       4.677   5.804  19.813  0.00  0.00    +0.000 OA
ATOM      4  N   UNL     1       3.597   6.450  17.893  0.00  0.00    +0.000 N 
ATOM      5  H   UNL     1       3.449   6.208  16.923  0.00  0.00    +0.000 HD
BRANCH   4   6
ATOM      6  C   UNL     1       2.794   7.458  18.448  0.00  0.00    +0.000 A 
ATOM      7  C   UNL     1       2.446   8.608  17.712  0.00  0.00    +0.000 A 
ATOM      8  C   UNL     1       1.499   9.508  18.216  0.00  0.00    +0.000 A 
ATOM      9  C   UNL     1       0.990   9.255  19.478  0.00  0.00    +0.000 A 
ATOM     10  C   UNL     1       1.422   8.200  20.253  0.00  0.00    +0.000 A 
ATOM     11  C   UNL     1       2.282   7.250  19.731  0.00  0.00    +0.000 A 
ATOM     12  C   UNL     1       0.850   8.348  21.602  0.00  0.00    +0.000 C 
ATOM     13  O   UNL     1      -0.226   9.283  21.389  0.00  0.00    +0.000 OA
ATOM     14  C   UNL     1      -0.083   9.930  20.193  0.00  0.00    +0.000 C 
ATOM     15  O   UNL     1      -0.772  10.852  19.779  0.00  0.00    +0.000 OA
ENDBRANCH   4   6
ENDBRANCH   1   2
BRANCH   1  16
ATOM     16  O   UNL     1       6.805   5.152  18.048  0.00  0.00    +0.000 OA
ATOM     17  H   UNL     1       7.184   5.688  17.330  0.00  0.00    +0.000 HD
ENDBRANCH   1  16
BRANCH   1  18
ATOM     18  C   UNL     1       5.142   3.354  18.128  0.00  0.00    +0.000 C 
BRANCH  18  20
ATOM     19  C   UNL     1       3.003   3.276  16.772  0.00  0.00    +0.000 C 
ATOM     20  C   UNL     1       3.690   2.776  18.067  0.00  0.00    +0.000 C 
ATOM     21  C   UNL     1       3.861   1.230  17.931  0.00  0.00    +0.000 C 
BRANCH  20  22
ATOM     22  C   UNL     1       2.825   3.016  19.320  0.00  0.00    +0.000 A 
ATOM     23  C   UNL     1       1.550   3.603  19.256  0.00  0.00    +0.000 A 
ATOM     24  C   UNL     1       0.744   3.747  20.388  0.00  0.00    +0.000 A 
ATOM     25  C   UNL     1       1.189   3.287  21.620  0.00  0.00    +0.000 A 
ATOM     26  C   UNL     1       2.442   2.697  21.718  0.00  0.00    +0.000 A 
ATOM     27  C   UNL     1       3.257   2.574  20.586  0.00  0.00    +0.000 A 
ENDBRANCH  20  22
ENDBRANCH  18  20
ENDBRANCH   1  18
BRANCH   1  28
ATOM     28  C   UNL     1       5.230   5.115  16.215  0.00  0.00    +0.000 C 
BRANCH  28  29
ATOM     29  C   UNL     1       6.489   5.488  15.415  0.00  0.00    +0.000 C 
BRANCH  29  30
ATOM     30  C   UNL     1       6.544   4.768  14.082  0.00  0.00    +0.000 A 
ATOM     31  C   UNL     1       7.564   5.045  13.163  0.00  0.00    +0.000 A 
ATOM     32  C   UNL     1       7.581   4.432  11.907  0.00  0.00    +0.000 A 
ATOM     33  C   UNL     1       6.587   3.519  11.565  0.00  0.00    +0.000 A 
ATOM     34  C   UNL     1       5.590   3.203  12.486  0.00  0.00    +0.000 A 
ATOM     35  C   UNL     1       5.572   3.820  13.739  0.00  0.00    +0.000 A 
ENDBRANCH  29  30
ENDBRANCH  28  29
ENDBRANCH   1  28
TORSDOF 9
ENDMDL
MODEL 2
REMARK VINA RESULT:      -8.5      0.545      1.545
REMARK  Name = 
REMARK  11 active torsions:
REMARK  status: ('A' for Active; 'I' for Inactive)
REMARK    1  A    between atoms: C_1  and  C_2
REMARK    2  A    between atoms: C_2  and  C_3
REMARK    3  A    between atoms: C_2  and  C_4
REMARK    4  A    between atoms: C_2  and  C_28
REMARK    5  A    between atoms: C_4  and  C_5
REMARK    6  A    between atoms: C_5  and  O_6
REMARK    7  A    between atoms: C_5  and  C_7
REMARK    8  A    between atoms: C_5  and  C_15
REMARK    9  A    between atoms: C_7  and  C_8
REMARK   10  A    between atoms: C_8  and  C_9
REMARK   11  A    between atoms: N_17  and  C_18
REMARK                            x       y       z     vdW  Elec       q    Type
REMARK                         _______ _______ _______ _____ _____    ______ ____
ROOT
ATOM      1  C   UNL     1       5.386   4.927  17.876  0.00  0.00    +0.000 C 
ENDROOT
BRANCH   1   2
ATOM      2  C   UNL     1       4.426   5.691  18.842  0.00  0.00    +0.000 C 
ATOM      3  O   UNL     1       4.520   5.611  20.061  0.00  0.00    +0.000 OA
ATOM      4  N   UNL     1       3.410   6.384  18.206  0.00  0.00    +0.000 N 
ATOM      5  H   UNL     1       3.290   6.242  17.212  0.00  0.00    +0.000 HD
BRANCH   4   6
ATOM      6  C   UNL     1       2.524   7.257  18.856  0.00  0.00    +0.000 A 
ATOM      7  C   UNL     1       2.054   6.990  20.157  0.00  0.00    +0.000 A 
ATOM      8  C   UNL     1       1.321   7.957  20.855  0.00  0.00    +0.000 A 
ATOM      9  C   UNL     1       1.024   9.134  20.188  0.00  0.00    +0.000 A 
ATOM     10  C   UNL     1       1.374   9.347  18.872  0.00  0.00    +0.000 A 
ATOM     11  C   UNL     1       2.180   8.443  18.203  0.00  0.00    +0.000 A 
ATOM     12  C   UNL     1       0.724  10.586  18.411  0.00  0.00    +0.000 C 
ATOM     13  O   UNL     1       0.362  11.232  19.648  0.00  0.00    +0.000 OA
ATOM     14  C   UNL     1       0.403  10.349  20.692  0.00  0.00    +0.000 C 
ATOM     15  O   UNL     1       0.048  10.568  21.842  0.00  0.00    +0.000 OA
ENDBRANCH   4   6
ENDBRANCH   1   2
BRANCH   1  16
ATOM     16  O   UNL     1       6.710   5.261  18.330  0.00  0.00    +0.000 OA
ATOM     17  H   UNL     1       6.994   4.604  18.989  0.00  0.00    +0.000 HD
ENDBRANCH   1  16
BRANCH   1  18
ATOM     18  C   UNL     1       5.126   3.412  18.052  0.00  0.00    +0.000 C 
BRANCH  18  20
ATOM     19  C   UNL     1       2.968   3.395  16.723  0.00  0.00    +0.000 C 
ATOM     20  C   UNL     1       3.681   2.819  17.972  0.00  0.00    +0.000 C 
ATOM     21  C   UNL     1       3.871   1.288  17.729  0.00  0.00    +0.000 C 
BRANCH  20  22
ATOM     22  C   UNL     1       2.832   2.961  19.250  0.00  0.00    +0.000 A 
ATOM     23  C   UNL     1       1.506   3.428  19.227  0.00  0.00    +0.000 A 
ATOM     24  C   UNL     1       0.720   3.481  20.381  0.00  0.00    +0.000 A 
ATOM     25  C   UNL     1       1.239   3.049  21.594  0.00  0.00    +0.000 A 
ATOM     26  C   UNL     1       2.544   2.577  21.652  0.00  0.00    +0.000 A 
ATOM     27  C   UNL     1       3.336   2.545  20.498  0.00  0.00    +0.000 A 
ENDBRANCH  20  22
ENDBRANCH  18  20
ENDBRANCH   1  18
BRANCH   1  28
ATOM     28  C   UNL     1       5.226   5.446  16.432  0.00  0.00    +0.000 C 
BRANCH  28  29
ATOM     29  C   UNL     1       6.526   5.624  15.633  0.00  0.00    +0.000 C 
BRANCH  29  30
ATOM     30  C   UNL     1       6.475   4.898  14.304  0.00  0.00    +0.000 A 
ATOM     31  C   UNL     1       5.431   4.010  14.014  0.00  0.00    +0.000 A 
ATOM     32  C   UNL     1       5.415   3.289  12.817  0.00  0.00    +0.000 A 
ATOM     33  C   UNL     1       6.435   3.466  11.886  0.00  0.00    +0.000 A 
ATOM     34  C   UNL     1       7.457   4.377  12.142  0.00  0.00    +0.000 A 
ATOM     35  C   UNL     1       7.474   5.093  13.341  0.00  0.00    +0.000 A 
ENDBRANCH  29  30
ENDBRANCH  28  29
ENDBRANCH   1  28
TORSDOF 9
ENDMDL
MODEL 3
REMARK VINA RESULT:      -8.5      1.273      5.612
REMARK  Name = 
REMARK  11 active torsions:
REMARK  status: ('A' for Active; 'I' for Inactive)
REMARK    1  A    between atoms: C_1  and  C_2
REMARK    2  A    between atoms: C_2  and  C_3
REMARK    3  A    between atoms: C_2  and  C_4
REMARK    4  A    between atoms: C_2  and  C_28
REMARK    5  A    between atoms: C_4  and  C_5
REMARK    6  A    between atoms: C_5  and  O_6
REMARK    7  A    between atoms: C_5  and  C_7
REMARK    8  A    between atoms: C_5  and  C_15
REMARK    9  A    between atoms: C_7  and  C_8
REMARK   10  A    between atoms: C_8  and  C_9
REMARK   11  A    between atoms: N_17  and  C_18
REMARK                            x       y       z     vdW  Elec       q    Type
REMARK                         _______ _______ _______ _____ _____    ______ ____
ROOT
ATOM      1  C   UNL     1       4.172   5.514  17.451  0.00  0.00    +0.000 C 
ENDROOT
BRANCH   1   2
ATOM      2  C   UNL     1       3.428   6.365  18.529  0.00  0.00    +0.000 C 
ATOM      3  O   UNL     1       3.516   6.129  19.728  0.00  0.00    +0.000 OA
ATOM      4  N   UNL     1       2.594   7.341  18.009  0.00  0.00    +0.000 N 
ATOM      5  H   UNL     1       2.433   7.343  17.012  0.00  0.00    +0.000 HD
BRANCH   4   6
ATOM      6  C   UNL     1       1.944   8.315  18.782  0.00  0.00    +0.000 A 
ATOM      7  C   UNL     1       1.412   9.481  18.197  0.00  0.00    +0.000 A 
ATOM      8  C   UNL     1       0.611  10.347  18.952  0.00  0.00    +0.000 A 
ATOM      9  C   UNL     1       0.435  10.045  20.292  0.00  0.00    +0.000 A 
ATOM     10  C   UNL     1       1.057   8.974  20.897  0.00  0.00    +0.000 A 
ATOM     11  C   UNL     1       1.770   8.058  20.144  0.00  0.00    +0.000 A 
ATOM     12  C   UNL     1       0.838   9.068  22.350  0.00  0.00    +0.000 C 
ATOM     13  O   UNL     1      -0.267   9.989  22.444  0.00  0.00    +0.000 OA
ATOM     14  C   UNL     1      -0.433  10.677  21.273  0.00  0.00    +0.000 C 
ATOM     15  O   UNL     1      -1.213  11.598  21.077  0.00  0.00    +0.000 OA
ENDBRANCH   4   6
ENDBRANCH   1   2
BRANCH   1  16
ATOM     16  O   UNL     1       4.347   6.405  16.334  0.00  0.00    +0.000 OA
ATOM     17  H   UNL     1       4.112   5.934  15.515  0.00  0.00    +0.000 HD
ENDBRANCH   1  16
BRANCH   1  18
ATOM     18  C   UNL     1       5.547   5.111  18.034  0.00  0.00    +0.000 C 
BRANCH  18  20
ATOM     19  C   UNL     1       7.305   6.797  17.337  0.00  0.00    +0.000 C 
ATOM     20  C   UNL     1       6.868   5.316  17.223  0.00  0.00    +0.000 C 
ATOM     21  C   UNL     1       7.947   4.459  17.957  0.00  0.00    +0.000 C 
BRANCH  20  22
ATOM     22  C   UNL     1       6.834   4.825  15.762  0.00  0.00    +0.000 A 
ATOM     23  C   UNL     1       6.064   3.722  15.354  0.00  0.00    +0.000 A 
ATOM     24  C   UNL     1       5.982   3.331  14.015  0.00  0.00    +0.000 A 
ATOM     25  C   UNL     1       6.658   4.050  13.040  0.00  0.00    +0.000 A 
ATOM     26  C   UNL     1       7.425   5.149  13.407  0.00  0.00    +0.000 A 
ATOM     27  C   UNL     1       7.523   5.525  14.752  0.00  0.00    +0.000 A 
ENDBRANCH  20  22
ENDBRANCH  18  20
ENDBRANCH   1  18
BRANCH   1  28
ATOM     28  C   UNL     1       3.292   4.332  16.994  0.00  0.00    +0.000 C 
BRANCH  28  29
ATOM     29  C   UNL     1       3.526   2.999  17.723  0.00  0.00    +0.000 C 
BRANCH  29  30
ATOM     30  C   UNL     1       2.766   2.931  19.031  0.00  0.00    +0.000 A 
ATOM     31  C   UNL     1       1.391   3.201  19.073  0.00  0.00    +0.000 A 
ATOM     32  C   UNL     1       0.699   3.204  20.287  0.00  0.00    +0.000 A 
ATOM     33  C   UNL     1       1.372   2.916  21.472  0.00  0.00    +0.000 A 
ATOM     34  C   UNL     1       2.729   2.604  21.440  0.00  0.00    +0.000 A 
ATOM     35  C   UNL     1       3.421   2.606  20.226  0.00  0.00    +0.000 A 
ENDBRANCH  29  30
ENDBRANCH  28  29
ENDBRANCH   1  28
TORSDOF 9
ENDMDL
MODEL 4
REMARK VINA RESULT:      -8.3      0.710      1.394
REMARK  Name = 
REMARK  11 active torsions:
REMARK  status: ('A' for Active; 'I' for Inactive)
REMARK    1  A    between atoms: C_1  and  C_2
REMARK    2  A    between atoms: C_2  and  C_3
REMARK    3  A    between atoms: C_2  and  C_4
REMARK    4  A    between atoms: C_2  and  C_28
REMARK    5  A    between atoms: C_4  and  C_5
REMARK    6  A    between atoms: C_5  and  O_6
REMARK    7  A    between atoms: C_5  and  C_7
REMARK    8  A    between atoms: C_5  and  C_15
REMARK    9  A    between atoms: C_7  and  C_8
REMARK   10  A    between atoms: C_8  and  C_9
REMARK   11  A    between atoms: N_17  and  C_18
REMARK                            x       y       z     vdW  Elec       q    Type
REMARK                         _______ _______ _______ _____ _____    ______ ____
ROOT
ATOM      1  C   UNL     1       5.165   4.240  17.891  0.00  0.00    +0.000 C 
ENDROOT
BRANCH   1   2
ATOM      2  C   UNL     1       4.557   5.448  18.672  0.00  0.00    +0.000 C 
ATOM      3  O   UNL     1       5.015   5.838  19.740  0.00  0.00    +0.000 OA
ATOM      4  N   UNL     1       3.408   5.974  18.104  0.00  0.00    +0.000 N 
ATOM      5  H   UNL     1       2.991   5.473  17.332  0.00  0.00    +0.000 HD
BRANCH   4   6
ATOM      6  C   UNL     1       2.777   7.147  18.545  0.00  0.00    +0.000 A 
ATOM      7  C   UNL     1       2.622   8.260  17.696  0.00  0.00    +0.000 A 
ATOM      8  C   UNL     1       1.832   9.346  18.093  0.00  0.00    +0.000 A 
ATOM      9  C   UNL     1       1.285   9.303  19.365  0.00  0.00    +0.000 A 
ATOM     10  C   UNL     1       1.538   8.273  20.245  0.00  0.00    +0.000 A 
ATOM     11  C   UNL     1       2.235   7.151  19.833  0.00  0.00    +0.000 A 
ATOM     12  C   UNL     1       0.994   8.642  21.563  0.00  0.00    +0.000 C 
ATOM     13  O   UNL     1       0.084   9.712  21.241  0.00  0.00    +0.000 OA
ATOM     14  C   UNL     1       0.333  10.208  19.990  0.00  0.00    +0.000 C 
ATOM     15  O   UNL     1      -0.196  11.184  19.478  0.00  0.00    +0.000 OA
ENDBRANCH   4   6
ENDBRANCH   1   2
BRANCH   1  16
ATOM     16  O   UNL     1       5.704   3.376  18.909  0.00  0.00    +0.000 OA
ATOM     17  H   UNL     1       6.664   3.292  18.776  0.00  0.00    +0.000 HD
ENDBRANCH   1  16
BRANCH   1  18
ATOM     18  C   UNL     1       4.011   3.531  17.144  0.00  0.00    +0.000 C 
BRANCH  18  20
ATOM     19  C   UNL     1       2.121   1.874  16.816  0.00  0.00    +0.000 C 
ATOM     20  C   UNL     1       3.180   2.392  17.821  0.00  0.00    +0.000 C 
ATOM     21  C   UNL     1       4.191   1.228  18.067  0.00  0.00    +0.000 C 
BRANCH  20  22
ATOM     22  C   UNL     1       2.567   2.740  19.192  0.00  0.00    +0.000 A 
ATOM     23  C   UNL     1       3.175   2.372  20.405  0.00  0.00    +0.000 A 
ATOM     24  C   UNL     1       2.650   2.758  21.642  0.00  0.00    +0.000 A 
ATOM     25  C   UNL     1       1.507   3.542  21.697  0.00  0.00    +0.000 A 
ATOM     26  C   UNL     1       0.884   3.928  20.516  0.00  0.00    +0.000 A 
ATOM     27  C   UNL     1       1.399   3.522  19.280  0.00  0.00    +0.000 A 
ENDBRANCH  20  22
ENDBRANCH  18  20
ENDBRANCH   1  18
BRANCH   1  28
ATOM     28  C   UNL     1       6.327   4.707  16.990  0.00  0.00    +0.000 C 
BRANCH  28  29
ATOM     29  C   UNL     1       5.942   5.629  15.822  0.00  0.00    +0.000 C 
BRANCH  29  30
ATOM     30  C   UNL     1       6.259   5.001  14.480  0.00  0.00    +0.000 A 
ATOM     31  C   UNL     1       5.396   4.055  13.911  0.00  0.00    +0.000 A 
ATOM     32  C   UNL     1       5.718   3.425  12.707  0.00  0.00    +0.000 A 
ATOM     33  C   UNL     1       6.900   3.751  12.046  0.00  0.00    +0.000 A 
ATOM     34  C   UNL     1       7.747   4.720  12.578  0.00  0.00    +0.000 A 
ATOM     35  C   UNL     1       7.426   5.345  13.785  0.00  0.00    +0.000 A 
ENDBRANCH  29  30
ENDBRANCH  28  29
ENDBRANCH   1  28
TORSDOF 9
ENDMDL
MODEL 5
REMARK VINA RESULT:      -8.2      2.513      5.618
REMARK  Name = 
REMARK  11 active torsions:
REMARK  status: ('A' for Active; 'I' for Inactive)
REMARK    1  A    between atoms: C_1  and  C_2
REMARK    2  A    between atoms: C_2  and  C_3
REMARK    3  A    between atoms: C_2  and  C_4
REMARK    4  A    between atoms: C_2  and  C_28
REMARK    5  A    between atoms: C_4  and  C_5
REMARK    6  A    between atoms: C_5  and  O_6
REMARK    7  A    between atoms: C_5  and  C_7
REMARK    8  A    between atoms: C_5  and  C_15
REMARK    9  A    between atoms: C_7  and  C_8
REMARK   10  A    between atoms: C_8  and  C_9
REMARK   11  A    between atoms: N_17  and  C_18
REMARK                            x       y       z     vdW  Elec       q    Type
REMARK                         _______ _______ _______ _____ _____    ______ ____
ROOT
ATOM      1  C   UNL     1       2.794   7.334  18.185  0.00  0.00    +0.000 C 
ENDROOT
BRANCH   1   2
ATOM      2  C   UNL     1       2.027   8.695  18.199  0.00  0.00    +0.000 C 
ATOM      3  O   UNL     1       2.102   9.501  17.280  0.00  0.00    +0.000 OA
ATOM      4  N   UNL     1       1.338   8.948  19.373  0.00  0.00    +0.000 N 
ATOM      5  H   UNL     1       1.483   8.321  20.152  0.00  0.00    +0.000 HD
BRANCH   4   6
ATOM      6  C   UNL     1       0.463  10.030  19.555  0.00  0.00    +0.000 A 
ATOM      7  C   UNL     1      -0.626  10.249  18.688  0.00  0.00    +0.000 A 
ATOM      8  C   UNL     1      -1.586  11.220  18.993  0.00  0.00    +0.000 A 
ATOM      9  C   UNL     1      -1.377  11.989  20.125  0.00  0.00    +0.000 A 
ATOM     10  C   UNL     1      -0.248  11.863  20.906  0.00  0.00    +0.000 A 
ATOM     11  C   UNL     1       0.659  10.845  20.673  0.00  0.00    +0.000 A 
ATOM     12  C   UNL     1      -0.234  12.964  21.885  0.00  0.00    +0.000 C 
ATOM     13  O   UNL     1      -1.600  13.424  21.863  0.00  0.00    +0.000 OA
ATOM     14  C   UNL     1      -2.253  12.966  20.752  0.00  0.00    +0.000 C 
ATOM     15  O   UNL     1      -3.384  13.271  20.398  0.00  0.00    +0.000 OA
ENDBRANCH   4   6
ENDBRANCH   1   2
BRANCH   1  16
ATOM     16  O   UNL     1       1.912   6.419  17.508  0.00  0.00    +0.000 OA
ATOM     17  H   UNL     1       1.181   6.923  17.109  0.00  0.00    +0.000 HD
ENDBRANCH   1  16
BRANCH   1  18
ATOM     18  C   UNL     1       4.091   7.532  17.366  0.00  0.00    +0.000 C 
BRANCH  18  20
ATOM     19  C   UNL     1       5.163   6.244  15.465  0.00  0.00    +0.000 C 
ATOM     20  C   UNL     1       5.018   6.325  17.004  0.00  0.00    +0.000 C 
ATOM     21  C   UNL     1       6.422   6.690  17.582  0.00  0.00    +0.000 C 
BRANCH  20  22
ATOM     22  C   UNL     1       4.623   4.972  17.629  0.00  0.00    +0.000 A 
ATOM     23  C   UNL     1       3.771   4.062  16.980  0.00  0.00    +0.000 A 
ATOM     24  C   UNL     1       3.479   2.807  17.520  0.00  0.00    +0.000 A 
ATOM     25  C   UNL     1       4.051   2.420  18.725  0.00  0.00    +0.000 A 
ATOM     26  C   UNL     1       4.901   3.294  19.390  0.00  0.00    +0.000 A 
ATOM     27  C   UNL     1       5.175   4.559  18.857  0.00  0.00    +0.000 A 
ENDBRANCH  20  22
ENDBRANCH  18  20
ENDBRANCH   1  18
BRANCH   1  28
ATOM     28  C   UNL     1       3.011   6.820  19.623  0.00  0.00    +0.000 C 
BRANCH  28  29
ATOM     29  C   UNL     1       1.742   6.418  20.392  0.00  0.00    +0.000 C 
BRANCH  29  30
ATOM     30  C   UNL     1       1.658   4.919  20.597  0.00  0.00    +0.000 A 
ATOM     31  C   UNL     1       0.872   4.125  19.751  0.00  0.00    +0.000 A 
ATOM     32  C   UNL     1       0.740   2.753  19.976  0.00  0.00    +0.000 A 
ATOM     33  C   UNL     1       1.411   2.155  21.040  0.00  0.00    +0.000 A 
ATOM     34  C   UNL     1       2.229   2.925  21.863  0.00  0.00    +0.000 A 
ATOM     35  C   UNL     1       2.357   4.297  21.640  0.00  0.00    +0.000 A 
ENDBRANCH  29  30
ENDBRANCH  28  29
ENDBRANCH   1  28
TORSDOF 9
ENDMDL
MODEL 6
REMARK VINA RESULT:      -8.2      1.124      6.116
REMARK  Name = 
REMARK  11 active torsions:
REMARK  status: ('A' for Active; 'I' for Inactive)
REMARK    1  A    between atoms: C_1  and  C_2
REMARK    2  A    between atoms: C_2  and  C_3
REMARK    3  A    between atoms: C_2  and  C_4
REMARK    4  A    between atoms: C_2  and  C_28
REMARK    5  A    between atoms: C_4  and  C_5
REMARK    6  A    between atoms: C_5  and  O_6
REMARK    7  A    between atoms: C_5  and  C_7
REMARK    8  A    between atoms: C_5  and  C_15
REMARK    9  A    between atoms: C_7  and  C_8
REMARK   10  A    between atoms: C_8  and  C_9
REMARK   11  A    between atoms: N_17  and  C_18
REMARK                            x       y       z     vdW  Elec       q    Type
REMARK                         _______ _______ _______ _____ _____    ______ ____
ROOT
ATOM      1  C   UNL     1       4.744   3.986  17.447  0.00  0.00    +0.000 C 
ENDROOT
BRANCH   1   2
ATOM      2  C   UNL     1       4.212   5.039  18.470  0.00  0.00    +0.000 C 
ATOM      3  O   UNL     1       4.847   5.368  19.465  0.00  0.00    +0.000 OA
ATOM      4  N   UNL     1       2.930   5.492  18.207  0.00  0.00    +0.000 N 
ATOM      5  H   UNL     1       2.404   5.029  17.479  0.00  0.00    +0.000 HD
BRANCH   4   6
ATOM      6  C   UNL     1       2.307   6.541  18.900  0.00  0.00    +0.000 A 
ATOM      7  C   UNL     1       1.895   6.393  20.240  0.00  0.00    +0.000 A 
ATOM      8  C   UNL     1       1.446   7.502  20.966  0.00  0.00    +0.000 A 
ATOM      9  C   UNL     1       1.359   8.710  20.295  0.00  0.00    +0.000 A 
ATOM     10  C   UNL     1       1.641   8.831  18.951  0.00  0.00    +0.000 A 
ATOM     11  C   UNL     1       2.177   7.768  18.246  0.00  0.00    +0.000 A 
ATOM     12  C   UNL     1       1.239  10.178  18.510  0.00  0.00    +0.000 C 
ATOM     13  O   UNL     1       1.125  10.897  19.754  0.00  0.00    +0.000 OA
ATOM     14  C   UNL     1       1.056  10.035  20.814  0.00  0.00    +0.000 C 
ATOM     15  O   UNL     1       0.849  10.335  21.981  0.00  0.00    +0.000 OA
ENDBRANCH   4   6
ENDBRANCH   1   2
BRANCH   1  16
ATOM     16  O   UNL     1       3.797   4.013  16.363  0.00  0.00    +0.000 OA
ATOM     17  H   UNL     1       3.065   3.405  16.567  0.00  0.00    +0.000 HD
ENDBRANCH   1  16
BRANCH   1  18
ATOM     18  C   UNL     1       6.132   4.463  16.957  0.00  0.00    +0.000 C 
BRANCH  18  20
ATOM     19  C   UNL     1       5.061   6.505  15.905  0.00  0.00    +0.000 C 
ATOM     20  C   UNL     1       6.272   5.542  15.833  0.00  0.00    +0.000 C 
ATOM     21  C   UNL     1       7.543   6.370  16.205  0.00  0.00    +0.000 C 
BRANCH  20  22
ATOM     22  C   UNL     1       6.503   4.995  14.411  0.00  0.00    +0.000 A 
ATOM     23  C   UNL     1       7.564   5.432  13.598  0.00  0.00    +0.000 A 
ATOM     24  C   UNL     1       7.809   4.875  12.340  0.00  0.00    +0.000 A 
ATOM     25  C   UNL     1       7.005   3.848  11.867  0.00  0.00    +0.000 A 
ATOM     26  C   UNL     1       5.951   3.388  12.647  0.00  0.00    +0.000 A 
ATOM     27  C   UNL     1       5.695   3.962  13.898  0.00  0.00    +0.000 A 
ENDBRANCH  20  22
ENDBRANCH  18  20
ENDBRANCH   1  18
BRANCH   1  28
ATOM     28  C   UNL     1       4.729   2.573  18.067  0.00  0.00    +0.000 C 
BRANCH  28  29
ATOM     29  C   UNL     1       3.357   1.883  18.133  0.00  0.00    +0.000 C 
BRANCH  29  30
ATOM     30  C   UNL     1       2.573   2.303  19.359  0.00  0.00    +0.000 A 
ATOM     31  C   UNL     1       3.193   2.371  20.615  0.00  0.00    +0.000 A 
ATOM     32  C   UNL     1       2.458   2.694  21.759  0.00  0.00    +0.000 A 
ATOM     33  C   UNL     1       1.098   2.974  21.655  0.00  0.00    +0.000 A 
ATOM     34  C   UNL     1       0.479   2.953  20.408  0.00  0.00    +0.000 A 
ATOM     35  C   UNL     1       1.213   2.625  19.266  0.00  0.00    +0.000 A 
ENDBRANCH  29  30
ENDBRANCH  28  29
ENDBRANCH   1  28
TORSDOF 9
ENDMDL
MODEL 7
REMARK VINA RESULT:      -8.2      1.368      5.979
REMARK  Name = 
REMARK  11 active torsions:
REMARK  status: ('A' for Active; 'I' for Inactive)
REMARK    1  A    between atoms: C_1  and  C_2
REMARK    2  A    between atoms: C_2  and  C_3
REMARK    3  A    between atoms: C_2  and  C_4
REMARK    4  A    between atoms: C_2  and  C_28
REMARK    5  A    between atoms: C_4  and  C_5
REMARK    6  A    between atoms: C_5  and  O_6
REMARK    7  A    between atoms: C_5  and  C_7
REMARK    8  A    between atoms: C_5  and  C_15
REMARK    9  A    between atoms: C_7  and  C_8
REMARK   10  A    between atoms: C_8  and  C_9
REMARK   11  A    between atoms: N_17  and  C_18
REMARK                            x       y       z     vdW  Elec       q    Type
REMARK                         _______ _______ _______ _____ _____    ______ ____
ROOT
ATOM      1  C   UNL     1       4.318   4.927  17.486  0.00  0.00    +0.000 C 
ENDROOT
BRANCH   1   2
ATOM      2  C   UNL     1       3.026   5.678  17.939  0.00  0.00    +0.000 C 
ATOM      3  O   UNL     1       1.901   5.260  17.690  0.00  0.00    +0.000 OA
ATOM      4  N   UNL     1       3.261   6.895  18.557  0.00  0.00    +0.000 N 
ATOM      5  H   UNL     1       4.206   7.254  18.551  0.00  0.00    +0.000 HD
BRANCH   4   6
ATOM      6  C   UNL     1       2.268   7.670  19.175  0.00  0.00    +0.000 A 
ATOM      7  C   UNL     1       1.813   7.377  20.476  0.00  0.00    +0.000 A 
ATOM      8  C   UNL     1       0.960   8.265  21.142  0.00  0.00    +0.000 A 
ATOM      9  C   UNL     1       0.537   9.384  20.444  0.00  0.00    +0.000 A 
ATOM     10  C   UNL     1       0.880   9.609  19.129  0.00  0.00    +0.000 A 
ATOM     11  C   UNL     1       1.797   8.793  18.491  0.00  0.00    +0.000 A 
ATOM     12  C   UNL     1       0.095  10.752  18.631  0.00  0.00    +0.000 C 
ATOM     13  O   UNL     1      -0.360  11.377  19.848  0.00  0.00    +0.000 OA
ATOM     14  C   UNL     1      -0.232  10.527  20.912  0.00  0.00    +0.000 C 
ATOM     15  O   UNL     1      -0.628  10.727  22.052  0.00  0.00    +0.000 OA
ENDBRANCH   4   6
ENDBRANCH   1   2
BRANCH   1  16
ATOM     16  O   UNL     1       3.844   3.823  16.692  0.00  0.00    +0.000 OA
ATOM     17  H   UNL     1       3.123   4.134  16.117  0.00  0.00    +0.000 HD
ENDBRANCH   1  16
BRANCH   1  18
ATOM     18  C   UNL     1       5.147   5.897  16.612  0.00  0.00    +0.000 C 
BRANCH  18  20
ATOM     19  C   UNL     1       7.511   6.791  16.430  0.00  0.00    +0.000 C 
ATOM     20  C   UNL     1       6.610   5.556  16.179  0.00  0.00    +0.000 C 
ATOM     21  C   UNL     1       7.083   4.434  17.157  0.00  0.00    +0.000 C 
BRANCH  20  22
ATOM     22  C   UNL     1       6.769   4.994  14.753  0.00  0.00    +0.000 A 
ATOM     23  C   UNL     1       5.946   3.971  14.249  0.00  0.00    +0.000 A 
ATOM     24  C   UNL     1       6.049   3.521  12.931  0.00  0.00    +0.000 A 
ATOM     25  C   UNL     1       6.972   4.098  12.070  0.00  0.00    +0.000 A 
ATOM     26  C   UNL     1       7.798   5.115  12.534  0.00  0.00    +0.000 A 
ATOM     27  C   UNL     1       7.707   5.549  13.862  0.00  0.00    +0.000 A 
ENDBRANCH  20  22
ENDBRANCH  18  20
ENDBRANCH   1  18
BRANCH   1  28
ATOM     28  C   UNL     1       5.068   4.356  18.707  0.00  0.00    +0.000 C 
BRANCH  28  29
ATOM     29  C   UNL     1       4.655   2.944  19.150  0.00  0.00    +0.000 C 
BRANCH  29  30
ATOM     30  C   UNL     1       3.235   2.912  19.678  0.00  0.00    +0.000 A 
ATOM     31  C   UNL     1       2.253   2.144  19.038  0.00  0.00    +0.000 A 
ATOM     32  C   UNL     1       0.928   2.164  19.482  0.00  0.00    +0.000 A 
ATOM     33  C   UNL     1       0.575   2.937  20.585  0.00  0.00    +0.000 A 
ATOM     34  C   UNL     1       1.549   3.672  21.256  0.00  0.00    +0.000 A 
ATOM     35  C   UNL     1       2.872   3.655  20.809  0.00  0.00    +0.000 A 
ENDBRANCH  29  30
ENDBRANCH  28  29
ENDBRANCH   1  28
TORSDOF 9
ENDMDL
MODEL 8
REMARK VINA RESULT:      -8.1      1.179      1.907
REMARK  Name = 
REMARK  11 active torsions:
REMARK  status: ('A' for Active; 'I' for Inactive)
REMARK    1  A    between atoms: C_1  and  C_2
REMARK    2  A    between atoms: C_2  and  C_3
REMARK    3  A    between atoms: C_2  and  C_4
REMARK    4  A    between atoms: C_2  and  C_28
REMARK    5  A    between atoms: C_4  and  C_5
REMARK    6  A    between atoms: C_5  and  O_6
REMARK    7  A    between atoms: C_5  and  C_7
REMARK    8  A    between atoms: C_5  and  C_15
REMARK    9  A    between atoms: C_7  and  C_8
REMARK   10  A    between atoms: C_8  and  C_9
REMARK   11  A    between atoms: N_17  and  C_18
REMARK                            x       y       z     vdW  Elec       q    Type
REMARK                         _______ _______ _______ _____ _____    ______ ____
ROOT
ATOM      1  C   UNL     1       4.343   6.045  17.430  0.00  0.00    +0.000 C 
ENDROOT
BRANCH   1   2
ATOM      2  C   UNL     1       3.354   7.189  17.823  0.00  0.00    +0.000 C 
ATOM      3  O   UNL     1       3.086   8.114  17.067  0.00  0.00    +0.000 OA
ATOM      4  N   UNL     1       2.887   7.115  19.124  0.00  0.00    +0.000 N 
ATOM      5  H   UNL     1       3.305   6.431  19.740  0.00  0.00    +0.000 HD
BRANCH   4   6
ATOM      6  C   UNL     1       1.882   7.943  19.649  0.00  0.00    +0.000 A 
ATOM      7  C   UNL     1       1.346   7.723  20.933  0.00  0.00    +0.000 A 
ATOM      8  C   UNL     1       0.482   8.663  21.507  0.00  0.00    +0.000 A 
ATOM      9  C   UNL     1       0.130   9.758  20.736  0.00  0.00    +0.000 A 
ATOM     10  C   UNL     1       0.553   9.912  19.433  0.00  0.00    +0.000 A 
ATOM     11  C   UNL     1       1.482   9.044  18.888  0.00  0.00    +0.000 A 
ATOM     12  C   UNL     1      -0.171  11.049  18.840  0.00  0.00    +0.000 C 
ATOM     13  O   UNL     1      -0.676  11.742  19.999  0.00  0.00    +0.000 OA
ATOM     14  C   UNL     1      -0.632  10.941  21.106  0.00  0.00    +0.000 C 
ATOM     15  O   UNL     1      -1.086  11.204  22.211  0.00  0.00    +0.000 OA
ENDBRANCH   4   6
ENDBRANCH   1   2
BRANCH   1  16
ATOM     16  O   UNL     1       5.211   5.899  18.568  0.00  0.00    +0.000 OA
ATOM     17  H   UNL     1       5.411   6.780  18.928  0.00  0.00    +0.000 HD
ENDBRANCH   1  16
BRANCH   1  18
ATOM     18  C   UNL     1       3.513   4.756  17.220  0.00  0.00    +0.000 C 
BRANCH  18  20
ATOM     19  C   UNL     1       3.652   2.226  17.191  0.00  0.00    +0.000 C 
ATOM     20  C   UNL     1       3.756   3.481  18.093  0.00  0.00    +0.000 C 
ATOM     21  C   UNL     1       5.238   3.581  18.575  0.00  0.00    +0.000 C 
BRANCH  20  22
ATOM     22  C   UNL     1       2.886   3.366  19.360  0.00  0.00    +0.000 A 
ATOM     23  C   UNL     1       1.557   3.823  19.407  0.00  0.00    +0.000 A 
ATOM     24  C   UNL     1       0.754   3.647  20.536  0.00  0.00    +0.000 A 
ATOM     25  C   UNL     1       1.257   2.989  21.650  0.00  0.00    +0.000 A 
ATOM     26  C   UNL     1       2.565   2.521  21.636  0.00  0.00    +0.000 A 
ATOM     27  C   UNL     1       3.374   2.718  20.511  0.00  0.00    +0.000 A 
ENDBRANCH  20  22
ENDBRANCH  18  20
ENDBRANCH   1  18
BRANCH   1  28
ATOM     28  C   UNL     1       5.200   6.465  16.218  0.00  0.00    +0.000 C 
BRANCH  28  29
ATOM     29  C   UNL     1       6.508   5.682  16.017  0.00  0.00    +0.000 C 
BRANCH  29  30
ATOM     30  C   UNL     1       6.552   4.996  14.666  0.00  0.00    +0.000 A 
ATOM     31  C   UNL     1       7.579   5.278  13.755  0.00  0.00    +0.000 A 
ATOM     32  C   UNL     1       7.587   4.698  12.484  0.00  0.00    +0.000 A 
ATOM     33  C   UNL     1       6.577   3.811  12.118  0.00  0.00    +0.000 A 
ATOM     34  C   UNL     1       5.574   3.489  13.029  0.00  0.00    +0.000 A 
ATOM     35  C   UNL     1       5.565   4.074  14.297  0.00  0.00    +0.000 A 
ENDBRANCH  29  30
ENDBRANCH  28  29
ENDBRANCH   1  28
TORSDOF 9
ENDMDL
MODEL 9
REMARK VINA RESULT:      -8.1      3.294     10.195
REMARK  Name = 
REMARK  11 active torsions:
REMARK  status: ('A' for Active; 'I' for Inactive)
REMARK    1  A    between atoms: C_1  and  C_2
REMARK    2  A    between atoms: C_2  and  C_3
REMARK    3  A    between atoms: C_2  and  C_4
REMARK    4  A    between atoms: C_2  and  C_28
REMARK    5  A    between atoms: C_4  and  C_5
REMARK    6  A    between atoms: C_5  and  O_6
REMARK    7  A    between atoms: C_5  and  C_7
REMARK    8  A    between atoms: C_5  and  C_15
REMARK    9  A    between atoms: C_7  and  C_8
REMARK   10  A    between atoms: C_8  and  C_9
REMARK   11  A    between atoms: N_17  and  C_18
REMARK                            x       y       z     vdW  Elec       q    Type
REMARK                         _______ _______ _______ _____ _____    ______ ____
ROOT
ATOM      1  C   UNL     1       0.432   9.962  21.754  0.00  0.00    +0.000 C 
ENDROOT
BRANCH   1   2
ATOM      2  C   UNL     1       0.446   8.482  21.253  0.00  0.00    +0.000 C 
ATOM      3  O   UNL     1      -0.571   7.802  21.182  0.00  0.00    +0.000 OA
ATOM      4  N   UNL     1       1.710   7.983  20.988  0.00  0.00    +0.000 N 
ATOM      5  H   UNL     1       2.506   8.545  21.254  0.00  0.00    +0.000 HD
BRANCH   4   6
ATOM      6  C   UNL     1       1.955   6.737  20.390  0.00  0.00    +0.000 A 
ATOM      7  C   UNL     1       1.431   5.547  20.933  0.00  0.00    +0.000 A 
ATOM      8  C   UNL     1       1.533   4.344  20.224  0.00  0.00    +0.000 A 
ATOM      9  C   UNL     1       2.225   4.368  19.025  0.00  0.00    +0.000 A 
ATOM     10  C   UNL     1       2.846   5.504  18.553  0.00  0.00    +0.000 A 
ATOM     11  C   UNL     1       2.672   6.719  19.192  0.00  0.00    +0.000 A 
ATOM     12  C   UNL     1       3.665   5.136  17.385  0.00  0.00    +0.000 C 
ATOM     13  O   UNL     1       3.124   3.853  17.011  0.00  0.00    +0.000 OA
ATOM     14  C   UNL     1       2.378   3.321  18.027  0.00  0.00    +0.000 C 
ATOM     15  O   UNL     1       1.880   2.204  18.053  0.00  0.00    +0.000 OA
ENDBRANCH   4   6
ENDBRANCH   1   2
BRANCH   1  16
ATOM     16  O   UNL     1       1.004   9.910  23.074  0.00  0.00    +0.000 OA
ATOM     17  H   UNL     1       1.272  10.808  23.337  0.00  0.00    +0.000 HD
ENDBRANCH   1  16
BRANCH   1  18
ATOM     18  C   UNL     1       1.336  10.789  20.810  0.00  0.00    +0.000 C 
BRANCH  18  20
ATOM     19  C   UNL     1       0.500  13.174  20.629  0.00  0.00    +0.000 C 
ATOM     20  C   UNL     1       0.737  11.861  19.842  0.00  0.00    +0.000 C 
ATOM     21  C   UNL     1       1.858  12.148  18.793  0.00  0.00    +0.000 C 
BRANCH  20  22
ATOM     22  C   UNL     1      -0.507  11.419  19.047  0.00  0.00    +0.000 A 
ATOM     23  C   UNL     1      -0.517  10.269  18.239  0.00  0.00    +0.000 A 
ATOM     24  C   UNL     1      -1.672   9.836  17.583  0.00  0.00    +0.000 A 
ATOM     25  C   UNL     1      -2.860  10.538  17.733  0.00  0.00    +0.000 A 
ATOM     26  C   UNL     1      -2.887  11.676  18.529  0.00  0.00    +0.000 A 
ATOM     27  C   UNL     1      -1.723  12.120  19.168  0.00  0.00    +0.000 A 
ENDBRANCH  20  22
ENDBRANCH  18  20
ENDBRANCH   1  18
BRANCH   1  28
ATOM     28  C   UNL     1      -1.017  10.477  21.876  0.00  0.00    +0.000 C 
BRANCH  28  29
ATOM     29  C   UNL     1      -1.390  11.123  23.220  0.00  0.00    +0.000 C 
BRANCH  29  30
ATOM     30  C   UNL     1      -2.088  12.455  23.031  0.00  0.00    +0.000 A 
ATOM     31  C   UNL     1      -1.512  13.638  23.513  0.00  0.00    +0.000 A 
ATOM     32  C   UNL     1      -2.182  14.858  23.400  0.00  0.00    +0.000 A 
ATOM     33  C   UNL     1      -3.429  14.912  22.782  0.00  0.00    +0.000 A 
ATOM     34  C   UNL     1      -3.995  13.751  22.261  0.00  0.00    +0.000 A 
ATOM     35  C   UNL     1      -3.325  12.530  22.379  0.00  0.00    +0.000 A 
ENDBRANCH  29  30
ENDBRANCH  28  29
ENDBRANCH   1  28
TORSDOF 9
ENDMDL
