MODEL 1
REMARK VINA RESULT:      -7.3      0.000      0.000
REMARK  Name = 
REMARK  5 active torsions:
REMARK  status: ('A' for Active; 'I' for Inactive)
REMARK    1  A    between atoms: C_1  and  C_2
REMARK    2  A    between atoms: N_4  and  C_5
REMARK    3  A    between atoms: C_13  and  C_14
REMARK    4  A    between atoms: N_15  and  N_16
REMARK    5  A    between atoms: C_17  and  C_19
REMARK                            x       y       z     vdW  Elec       q    Type
REMARK                         _______ _______ _______ _____ _____    ______ ____
ROOT
ATOM      1  C   UNL     1       2.377   3.578  17.160  0.00  0.00    +0.000 C 
ATOM      2  C   UNL     1       3.787   3.959  16.865  0.00  0.00    +0.000 A 
ATOM      3  N   UNL     1       4.101   4.232  15.591  0.00  0.00    +0.000 NA
ATOM      4  N   UNL     1       5.460   4.260  15.553  0.00  0.00    +0.000 N 
ATOM      5  C   UNL     1       5.961   4.252  16.838  0.00  0.00    +0.000 A 
ATOM      6 CL   UNL     1       7.603   4.589  17.188  0.00  0.00    +0.000 Cl
ATOM      7  C   UNL     1       4.920   4.053  17.724  0.00  0.00    +0.000 A 
ENDROOT
BRANCH   4   8
ATOM      8  C   UNL     1       6.122   4.262  14.292  0.00  0.00    +0.000 A 
ATOM      9  C   UNL     1       7.183   5.155  14.081  0.00  0.00    +0.000 A 
ATOM     10  C   UNL     1       7.876   5.149  12.868  0.00  0.00    +0.000 A 
ATOM     11  C   UNL     1       7.493   4.283  11.846  0.00  0.00    +0.000 A 
ATOM     12  C   UNL     1       6.405   3.431  12.030  0.00  0.00    +0.000 A 
ATOM     13  C   UNL     1       5.719   3.418  13.247  0.00  0.00    +0.000 A 
ENDBRANCH   4   8
BRANCH   7  14
ATOM     14  C   UNL     1       5.130   3.896  19.148  0.00  0.00    +0.000 C 
ATOM     15  N   UNL     1       4.680   4.616  20.131  0.00  0.00    +0.000 NA
BRANCH  15  16
ATOM     16  N   UNL     1       4.051   5.798  19.906  0.00  0.00    +0.000 N 
ATOM     17  C   UNL     1       2.688   5.885  20.126  0.00  0.00    +0.000 C 
ATOM     18  O   UNL     1       1.958   4.958  20.468  0.00  0.00    +0.000 OA
ATOM     19  H   UNL     1       4.615   6.588  19.615  0.00  0.00    +0.000 HD
BRANCH  17  20
ATOM     20  C   UNL     1       2.080   7.203  19.832  0.00  0.00    +0.000 A 
ATOM     21  C   UNL     1       2.276   7.756  18.571  0.00  0.00    +0.000 A 
ATOM     22  N   UNL     1       1.833   8.986  18.213  0.00  0.00    +0.000 NA
ATOM     23  C   UNL     1       1.149   9.685  19.151  0.00  0.00    +0.000 A 
ATOM     24  C   UNL     1       0.885   9.199  20.422  0.00  0.00    +0.000 A 
ATOM     25 BR   UNL     1      -0.074  10.235  21.672  0.00  0.00    +0.000 Br
ATOM     26  C   UNL     1       1.350   7.936  20.771  0.00  0.00    +0.000 A 
ENDBRANCH  17  20
ENDBRANCH  15  16
ENDBRANCH   7  14
TORSDOF 4
ENDMDL
MODEL 2
REMARK VINA RESULT:      -7.3      3.617      7.938
REMARK  Name = 
REMARK  5 active torsions:
REMARK  status: ('A' for Active; 'I' for Inactive)
REMARK    1  A    between atoms: C_1  and  C_2
REMARK    2  A    between atoms: N_4  and  C_5
REMARK    3  A    between atoms: C_13  and  C_14
REMARK    4  A    between atoms: N_15  and  N_16
REMARK    5  A    between atoms: C_17  and  C_19
REMARK                            x       y       z     vdW  Elec       q    Type
REMARK                         _______ _______ _______ _____ _____    ______ ____
ROOT
ATOM      1  C   UNL     1       5.480   7.177  16.987  0.00  0.00    +0.000 C 
ATOM      2  C   UNL     1       4.266   6.980  17.828  0.00  0.00    +0.000 A 
ATOM      3  N   UNL     1       3.286   7.888  17.721  0.00  0.00    +0.000 NA
ATOM      4  N   UNL     1       2.455   7.647  18.771  0.00  0.00    +0.000 N 
ATOM      5  C   UNL     1       2.793   6.448  19.364  0.00  0.00    +0.000 A 
ATOM      6 CL   UNL     1       1.785   5.673  20.511  0.00  0.00    +0.000 Cl
ATOM      7  C   UNL     1       3.961   5.979  18.795  0.00  0.00    +0.000 A 
ENDROOT
BRANCH   4   8
ATOM      8  C   UNL     1       1.454   8.605  19.103  0.00  0.00    +0.000 A 
ATOM      9  C   UNL     1       1.113   8.794  20.450  0.00  0.00    +0.000 A 
ATOM     10  C   UNL     1       0.165   9.757  20.806  0.00  0.00    +0.000 A 
ATOM     11  C   UNL     1      -0.476  10.506  19.821  0.00  0.00    +0.000 A 
ATOM     12  C   UNL     1      -0.182  10.284  18.478  0.00  0.00    +0.000 A 
ATOM     13  C   UNL     1       0.780   9.336  18.116  0.00  0.00    +0.000 A 
ENDBRANCH   4   8
BRANCH   7  14
ATOM     14  C   UNL     1       4.633   4.787  19.268  0.00  0.00    +0.000 C 
ATOM     15  N   UNL     1       5.428   3.983  18.630  0.00  0.00    +0.000 NA
BRANCH  15  16
ATOM     16  N   UNL     1       5.596   4.079  17.286  0.00  0.00    +0.000 N 
ATOM     17  C   UNL     1       6.871   4.263  16.781  0.00  0.00    +0.000 C 
ATOM     18  O   UNL     1       7.892   4.402  17.450  0.00  0.00    +0.000 OA
ATOM     19  H   UNL     1       4.778   3.978  16.697  0.00  0.00    +0.000 HD
BRANCH  17  20
ATOM     20  C   UNL     1       6.960   4.382  15.307  0.00  0.00    +0.000 A 
ATOM     21  C   UNL     1       7.862   5.295  14.770  0.00  0.00    +0.000 A 
ATOM     22  N   UNL     1       7.977   5.544  13.443  0.00  0.00    +0.000 NA
ATOM     23  C   UNL     1       7.168   4.838  12.617  0.00  0.00    +0.000 A 
ATOM     24  C   UNL     1       6.260   3.892  13.065  0.00  0.00    +0.000 A 
ATOM     25 BR   UNL     1       5.167   2.951  11.850  0.00  0.00    +0.000 Br
ATOM     26  C   UNL     1       6.155   3.651  14.431  0.00  0.00    +0.000 A 
ENDBRANCH  17  20
ENDBRANCH  15  16
ENDBRANCH   7  14
TORSDOF 4
ENDMDL
MODEL 3
REMARK VINA RESULT:      -7.3      3.899      6.112
REMARK  Name = 
REMARK  5 active torsions:
REMARK  status: ('A' for Active; 'I' for Inactive)
REMARK    1  A    between atoms: C_1  and  C_2
REMARK    2  A    between atoms: N_4  and  C_5
REMARK    3  A    between atoms: C_13  and  C_14
REMARK    4  A    between atoms: N_15  and  N_16
REMARK    5  A    between atoms: C_17  and  C_19
REMARK                            x       y       z     vdW  Elec       q    Type
REMARK                         _______ _______ _______ _____ _____    ______ ____
ROOT
ATOM      1  C   UNL     1       1.932  10.120  17.811  0.00  0.00    +0.000 C 
ATOM      2  C   UNL     1       2.127   8.825  18.522  0.00  0.00    +0.000 A 
ATOM      3  N   UNL     1       2.719   7.832  17.845  0.00  0.00    +0.000 NA
ATOM      4  N   UNL     1       2.515   6.714  18.593  0.00  0.00    +0.000 N 
ATOM      5  C   UNL     1       2.021   7.068  19.831  0.00  0.00    +0.000 A 
ATOM      6 CL   UNL     1       1.935   5.964  21.138  0.00  0.00    +0.000 Cl
ATOM      7  C   UNL     1       1.747   8.422  19.834  0.00  0.00    +0.000 A 
ENDROOT
BRANCH   4   8
ATOM      8  C   UNL     1       2.788   5.436  18.026  0.00  0.00    +0.000 A 
ATOM      9  C   UNL     1       4.036   5.209  17.428  0.00  0.00    +0.000 A 
ATOM     10  C   UNL     1       4.345   3.953  16.901  0.00  0.00    +0.000 A 
ATOM     11  C   UNL     1       3.401   2.928  16.933  0.00  0.00    +0.000 A 
ATOM     12  C   UNL     1       2.140   3.163  17.476  0.00  0.00    +0.000 A 
ATOM     13  C   UNL     1       1.830   4.412  18.022  0.00  0.00    +0.000 A 
ENDBRANCH   4   8
BRANCH   7  14
ATOM     14  C   UNL     1       1.123   9.087  20.959  0.00  0.00    +0.000 C 
ATOM     15  N   UNL     1      -0.081   9.560  21.071  0.00  0.00    +0.000 NA
BRANCH  15  16
ATOM     16  N   UNL     1      -0.905   9.647  19.995  0.00  0.00    +0.000 N 
ATOM     17  C   UNL     1      -1.274  10.899  19.533  0.00  0.00    +0.000 C 
ATOM     18  O   UNL     1      -0.961  11.971  20.045  0.00  0.00    +0.000 OA
ATOM     19  H   UNL     1      -1.193   8.787  19.547  0.00  0.00    +0.000 HD
BRANCH  17  20
ATOM     20  C   UNL     1      -2.193  10.902  18.372  0.00  0.00    +0.000 A 
ATOM     21  C   UNL     1      -1.776  10.288  17.196  0.00  0.00    +0.000 A 
ATOM     22  N   UNL     1      -2.498  10.293  16.049  0.00  0.00    +0.000 NA
ATOM     23  C   UNL     1      -3.697  10.924  16.085  0.00  0.00    +0.000 A 
ATOM     24  C   UNL     1      -4.200  11.537  17.222  0.00  0.00    +0.000 A 
ATOM     25 BR   UNL     1      -5.879  12.396  17.191  0.00  0.00    +0.000 Br
ATOM     26  C   UNL     1      -3.444  11.523  18.388  0.00  0.00    +0.000 A 
ENDBRANCH  17  20
ENDBRANCH  15  16
ENDBRANCH   7  14
TORSDOF 4
ENDMDL
MODEL 4
REMARK VINA RESULT:      -7.2      4.045      6.123
REMARK  Name = 
REMARK  5 active torsions:
REMARK  status: ('A' for Active; 'I' for Inactive)
REMARK    1  A    between atoms: C_1  and  C_2
REMARK    2  A    between atoms: N_4  and  C_5
REMARK    3  A    between atoms: C_13  and  C_14
REMARK    4  A    between atoms: N_15  and  N_16
REMARK    5  A    between atoms: C_17  and  C_19
REMARK                            x       y       z     vdW  Elec       q    Type
REMARK                         _______ _______ _______ _____ _____    ______ ____
ROOT
ATOM      1  C   UNL     1       1.980   9.593  17.719  0.00  0.00    +0.000 C 
ATOM      2  C   UNL     1       2.151   8.357  18.534  0.00  0.00    +0.000 A 
ATOM      3  N   UNL     1       2.649   7.275  17.920  0.00  0.00    +0.000 NA
ATOM      4  N   UNL     1       2.432   6.242  18.779  0.00  0.00    +0.000 N 
ATOM      5  C   UNL     1       2.033   6.733  20.004  0.00  0.00    +0.000 A 
ATOM      6 CL   UNL     1       1.969   5.757  21.410  0.00  0.00    +0.000 Cl
ATOM      7  C   UNL     1       1.831   8.095  19.897  0.00  0.00    +0.000 A 
ENDROOT
BRANCH   4   8
ATOM      8  C   UNL     1       2.604   4.905  18.318  0.00  0.00    +0.000 A 
ATOM      9  C   UNL     1       1.581   3.972  18.540  0.00  0.00    +0.000 A 
ATOM     10  C   UNL     1       1.706   2.665  18.063  0.00  0.00    +0.000 A 
ATOM     11  C   UNL     1       2.865   2.270  17.397  0.00  0.00    +0.000 A 
ATOM     12  C   UNL     1       3.907   3.178  17.221  0.00  0.00    +0.000 A 
ATOM     13  C   UNL     1       3.781   4.492  17.680  0.00  0.00    +0.000 A 
ENDBRANCH   4   8
BRANCH   7  14
ATOM     14  C   UNL     1       1.311   8.892  20.989  0.00  0.00    +0.000 C 
ATOM     15  N   UNL     1       0.149   9.457  21.115  0.00  0.00    +0.000 NA
BRANCH  15  16
ATOM     16  N   UNL     1      -0.722   9.515  20.074  0.00  0.00    +0.000 N 
ATOM     17  C   UNL     1      -0.994  10.742  19.494  0.00  0.00    +0.000 C 
ATOM     18  O   UNL     1      -0.551  11.824  19.871  0.00  0.00    +0.000 OA
ATOM     19  H   UNL     1      -1.117   8.646  19.737  0.00  0.00    +0.000 HD
BRANCH  17  20
ATOM     20  C   UNL     1      -1.971  10.716  18.382  0.00  0.00    +0.000 A 
ATOM     21  C   UNL     1      -1.623  10.055  17.210  0.00  0.00    +0.000 A 
ATOM     22  N   UNL     1      -2.404  10.029  16.102  0.00  0.00    +0.000 NA
ATOM     23  C   UNL     1      -3.591  10.678  16.176  0.00  0.00    +0.000 A 
ATOM     24  C   UNL     1      -4.027  11.340  17.313  0.00  0.00    +0.000 A 
ATOM     25 BR   UNL     1      -5.694  12.222  17.337  0.00  0.00    +0.000 Br
ATOM     26  C   UNL     1      -3.211  11.357  18.439  0.00  0.00    +0.000 A 
ENDBRANCH  17  20
ENDBRANCH  15  16
ENDBRANCH   7  14
TORSDOF 4
ENDMDL
MODEL 5
REMARK VINA RESULT:      -7.1      0.566      1.133
REMARK  Name = 
REMARK  5 active torsions:
REMARK  status: ('A' for Active; 'I' for Inactive)
REMARK    1  A    between atoms: C_1  and  C_2
REMARK    2  A    between atoms: N_4  and  C_5
REMARK    3  A    between atoms: C_13  and  C_14
REMARK    4  A    between atoms: N_15  and  N_16
REMARK    5  A    between atoms: C_17  and  C_19
REMARK                            x       y       z     vdW  Elec       q    Type
REMARK                         _______ _______ _______ _____ _____    ______ ____
ROOT
ATOM      1  C   UNL     1       2.598   2.822  17.277  0.00  0.00    +0.000 C 
ATOM      2  C   UNL     1       3.843   3.571  16.945  0.00  0.00    +0.000 A 
ATOM      3  N   UNL     1       4.120   3.766  15.648  0.00  0.00    +0.000 NA
ATOM      4  N   UNL     1       5.411   4.197  15.617  0.00  0.00    +0.000 N 
ATOM      5  C   UNL     1       5.831   4.499  16.895  0.00  0.00    +0.000 A 
ATOM      6 CL   UNL     1       7.280   5.356  17.209  0.00  0.00    +0.000 Cl
ATOM      7  C   UNL     1       4.856   4.106  17.792  0.00  0.00    +0.000 A 
ENDROOT
BRANCH   4   8
ATOM      8  C   UNL     1       6.100   4.242  14.371  0.00  0.00    +0.000 A 
ATOM      9  C   UNL     1       5.701   3.378  13.340  0.00  0.00    +0.000 A 
ATOM     10  C   UNL     1       6.333   3.431  12.095  0.00  0.00    +0.000 A 
ATOM     11  C   UNL     1       7.389   4.315  11.882  0.00  0.00    +0.000 A 
ATOM     12  C   UNL     1       7.826   5.137  12.919  0.00  0.00    +0.000 A 
ATOM     13  C   UNL     1       7.186   5.103  14.161  0.00  0.00    +0.000 A 
ENDBRANCH   4   8
BRANCH   7  14
ATOM     14  C   UNL     1       5.036   4.197  19.226  0.00  0.00    +0.000 C 
ATOM     15  N   UNL     1       4.577   5.081  20.059  0.00  0.00    +0.000 NA
BRANCH  15  16
ATOM     16  N   UNL     1       3.969   6.212  19.619  0.00  0.00    +0.000 N 
ATOM     17  C   UNL     1       2.654   6.451  19.981  0.00  0.00    +0.000 C 
ATOM     18  O   UNL     1       1.945   5.694  20.639  0.00  0.00    +0.000 OA
ATOM     19  H   UNL     1       4.515   6.861  19.066  0.00  0.00    +0.000 HD
BRANCH  17  20
ATOM     20  C   UNL     1       2.062   7.695  19.437  0.00  0.00    +0.000 A 
ATOM     21  C   UNL     1       2.365   8.056  18.129  0.00  0.00    +0.000 A 
ATOM     22  N   UNL     1       1.943   9.207  17.550  0.00  0.00    +0.000 NA
ATOM     23  C   UNL     1       1.171  10.023  18.307  0.00  0.00    +0.000 A 
ATOM     24  C   UNL     1       0.800   9.728  19.610  0.00  0.00    +0.000 A 
ATOM     25 BR   UNL     1      -0.278  10.919  20.599  0.00  0.00    +0.000 Br
ATOM     26  C   UNL     1       1.244   8.544  20.187  0.00  0.00    +0.000 A 
ENDBRANCH  17  20
ENDBRANCH  15  16
ENDBRANCH   7  14
TORSDOF 4
ENDMDL
MODEL 6
REMARK VINA RESULT:      -7.1      3.584      7.989
REMARK  Name = 
REMARK  5 active torsions:
REMARK  status: ('A' for Active; 'I' for Inactive)
REMARK    1  A    between atoms: C_1  and  C_2
REMARK    2  A    between atoms: N_4  and  C_5
REMARK    3  A    between atoms: C_13  and  C_14
REMARK    4  A    between atoms: N_15  and  N_16
REMARK    5  A    between atoms: C_17  and  C_19
REMARK                            x       y       z     vdW  Elec       q    Type
REMARK                         _______ _______ _______ _____ _____    ______ ____
ROOT
ATOM      1  C   UNL     1       5.113   7.177  17.006  0.00  0.00    +0.000 C 
ATOM      2  C   UNL     1       3.927   7.079  17.902  0.00  0.00    +0.000 A 
ATOM      3  N   UNL     1       2.985   8.025  17.787  0.00  0.00    +0.000 NA
ATOM      4  N   UNL     1       2.189   7.875  18.880  0.00  0.00    +0.000 N 
ATOM      5  C   UNL     1       2.496   6.692  19.520  0.00  0.00    +0.000 A 
ATOM      6 CL   UNL     1       1.503   6.022  20.743  0.00  0.00    +0.000 Cl
ATOM      7  C   UNL     1       3.618   6.142  18.930  0.00  0.00    +0.000 A 
ENDROOT
BRANCH   4   8
ATOM      8  C   UNL     1       1.246   8.893  19.201  0.00  0.00    +0.000 A 
ATOM      9  C   UNL     1       0.525   9.505  18.164  0.00  0.00    +0.000 A 
ATOM     10  C   UNL     1      -0.435  10.477  18.455  0.00  0.00    +0.000 A 
ATOM     11  C   UNL     1      -0.655  10.873  19.773  0.00  0.00    +0.000 A 
ATOM     12  C   UNL     1       0.096  10.309  20.802  0.00  0.00    +0.000 A 
ATOM     13  C   UNL     1       1.045   9.322  20.520  0.00  0.00    +0.000 A 
ENDBRANCH   4   8
BRANCH   7  14
ATOM     14  C   UNL     1       4.255   4.945  19.437  0.00  0.00    +0.000 C 
ATOM     15  N   UNL     1       5.079   4.136  18.842  0.00  0.00    +0.000 NA
BRANCH  15  16
ATOM     16  N   UNL     1       5.322   4.234  17.510  0.00  0.00    +0.000 N 
ATOM     17  C   UNL     1       6.633   4.252  17.066  0.00  0.00    +0.000 C 
ATOM     18  O   UNL     1       7.630   4.238  17.784  0.00  0.00    +0.000 OA
ATOM     19  H   UNL     1       4.527   4.256  16.883  0.00  0.00    +0.000 HD
BRANCH  17  20
ATOM     20  C   UNL     1       6.806   4.386  15.602  0.00  0.00    +0.000 A 
ATOM     21  C   UNL     1       7.762   5.278  15.128  0.00  0.00    +0.000 A 
ATOM     22  N   UNL     1       7.957   5.540  13.812  0.00  0.00    +0.000 NA
ATOM     23  C   UNL     1       7.176   4.867  12.933  0.00  0.00    +0.000 A 
ATOM     24  C   UNL     1       6.219   3.941  13.318  0.00  0.00    +0.000 A 
ATOM     25 BR   UNL     1       5.169   3.046  12.033  0.00  0.00    +0.000 Br
ATOM     26  C   UNL     1       6.031   3.688  14.673  0.00  0.00    +0.000 A 
ENDBRANCH  17  20
ENDBRANCH  15  16
ENDBRANCH   7  14
TORSDOF 4
ENDMDL
MODEL 7
REMARK VINA RESULT:      -7.0      3.964      6.379
REMARK  Name = 
REMARK  5 active torsions:
REMARK  status: ('A' for Active; 'I' for Inactive)
REMARK    1  A    between atoms: C_1  and  C_2
REMARK    2  A    between atoms: N_4  and  C_5
REMARK    3  A    between atoms: C_13  and  C_14
REMARK    4  A    between atoms: N_15  and  N_16
REMARK    5  A    between atoms: C_17  and  C_19
REMARK                            x       y       z     vdW  Elec       q    Type
REMARK                         _______ _______ _______ _____ _____    ______ ____
ROOT
ATOM      1  C   UNL     1       1.687  10.272  17.790  0.00  0.00    +0.000 C 
ATOM      2  C   UNL     1       1.967   8.997  18.507  0.00  0.00    +0.000 A 
ATOM      3  N   UNL     1       2.546   8.009  17.810  0.00  0.00    +0.000 NA
ATOM      4  N   UNL     1       2.424   6.900  18.588  0.00  0.00    +0.000 N 
ATOM      5  C   UNL     1       2.000   7.261  19.849  0.00  0.00    +0.000 A 
ATOM      6 CL   UNL     1       2.032   6.179  21.176  0.00  0.00    +0.000 Cl
ATOM      7  C   UNL     1       1.685   8.606  19.848  0.00  0.00    +0.000 A 
ENDROOT
BRANCH   4   8
ATOM      8  C   UNL     1       2.700   5.620  18.025  0.00  0.00    +0.000 A 
ATOM      9  C   UNL     1       1.709   4.629  18.070  0.00  0.00    +0.000 A 
ATOM     10  C   UNL     1       1.938   3.379  17.488  0.00  0.00    +0.000 A 
ATOM     11  C   UNL     1       3.167   3.097  16.896  0.00  0.00    +0.000 A 
ATOM     12  C   UNL     1       4.175   4.059  16.896  0.00  0.00    +0.000 A 
ATOM     13  C   UNL     1       3.946   5.318  17.459  0.00  0.00    +0.000 A 
ENDBRANCH   4   8
BRANCH   7  14
ATOM     14  C   UNL     1       1.114   9.272  21.000  0.00  0.00    +0.000 C 
ATOM     15  N   UNL     1      -0.071   9.782  21.153  0.00  0.00    +0.000 NA
BRANCH  15  16
ATOM     16  N   UNL     1      -0.920   9.913  20.102  0.00  0.00    +0.000 N 
ATOM     17  C   UNL     1      -1.397  11.171  19.777  0.00  0.00    +0.000 C 
ATOM     18  O   UNL     1      -1.160  12.206  20.395  0.00  0.00    +0.000 OA
ATOM     19  H   UNL     1      -1.149   9.083  19.569  0.00  0.00    +0.000 HD
BRANCH  17  20
ATOM     20  C   UNL     1      -2.337  11.220  18.634  0.00  0.00    +0.000 A 
ATOM     21  C   UNL     1      -3.567  11.843  18.815  0.00  0.00    +0.000 A 
ATOM     22  N   UNL     1      -4.535  11.883  17.866  0.00  0.00    +0.000 NA
ATOM     23  C   UNL     1      -4.254  11.289  16.682  0.00  0.00    +0.000 A 
ATOM     24  C   UNL     1      -3.044  10.669  16.409  0.00  0.00    +0.000 A 
ATOM     25 BR   UNL     1      -2.730   9.863  14.733  0.00  0.00    +0.000 Br
ATOM     26  C   UNL     1      -2.064  10.636  17.395  0.00  0.00    +0.000 A 
ENDBRANCH  17  20
ENDBRANCH  15  16
ENDBRANCH   7  14
TORSDOF 4
ENDMDL
MODEL 8
REMARK VINA RESULT:      -6.9      4.048      6.163
REMARK  Name = 
REMARK  5 active torsions:
REMARK  status: ('A' for Active; 'I' for Inactive)
REMARK    1  A    between atoms: C_1  and  C_2
REMARK    2  A    between atoms: N_4  and  C_5
REMARK    3  A    between atoms: C_13  and  C_14
REMARK    4  A    between atoms: N_15  and  N_16
REMARK    5  A    between atoms: C_17  and  C_19
REMARK                            x       y       z     vdW  Elec       q    Type
REMARK                         _______ _______ _______ _____ _____    ______ ____
ROOT
ATOM      1  C   UNL     1       1.746   9.519  17.792  0.00  0.00    +0.000 C 
ATOM      2  C   UNL     1       2.018   8.285  18.583  0.00  0.00    +0.000 A 
ATOM      3  N   UNL     1       2.444   7.204  17.915  0.00  0.00    +0.000 NA
ATOM      4  N   UNL     1       2.335   6.172  18.795  0.00  0.00    +0.000 N 
ATOM      5  C   UNL     1       2.083   6.663  20.059  0.00  0.00    +0.000 A 
ATOM      6 CL   UNL     1       2.192   5.689  21.463  0.00  0.00    +0.000 Cl
ATOM      7  C   UNL     1       1.864   8.024  19.975  0.00  0.00    +0.000 A 
ENDROOT
BRANCH   4   8
ATOM      8  C   UNL     1       2.457   4.834  18.319  0.00  0.00    +0.000 A 
ATOM      9  C   UNL     1       3.601   4.471  17.593  0.00  0.00    +0.000 A 
ATOM     10  C   UNL     1       3.765   3.156  17.151  0.00  0.00    +0.000 A 
ATOM     11  C   UNL     1       2.774   2.207  17.394  0.00  0.00    +0.000 A 
ATOM     12  C   UNL     1       1.610   2.575  18.066  0.00  0.00    +0.000 A 
ATOM     13  C   UNL     1       1.448   3.884  18.528  0.00  0.00    +0.000 A 
ENDBRANCH   4   8
BRANCH   7  14
ATOM     14  C   UNL     1       1.475   8.821  21.120  0.00  0.00    +0.000 C 
ATOM     15  N   UNL     1       0.393   9.514  21.311  0.00  0.00    +0.000 NA
BRANCH  15  16
ATOM     16  N   UNL     1      -0.492   9.728  20.304  0.00  0.00    +0.000 N 
ATOM     17  C   UNL     1      -0.992  11.004  20.110  0.00  0.00    +0.000 C 
ATOM     18  O   UNL     1      -0.746  11.982  20.811  0.00  0.00    +0.000 OA
ATOM     19  H   UNL     1      -0.730   8.946  19.706  0.00  0.00    +0.000 HD
BRANCH  17  20
ATOM     20  C   UNL     1      -1.970  11.142  19.006  0.00  0.00    +0.000 A 
ATOM     21  C   UNL     1      -3.109  11.910  19.224  0.00  0.00    +0.000 A 
ATOM     22  N   UNL     1      -4.107  12.047  18.316  0.00  0.00    +0.000 NA
ATOM     23  C   UNL     1      -3.950  11.402  17.135  0.00  0.00    +0.000 A 
ATOM     24  C   UNL     1      -2.835  10.639  16.826  0.00  0.00    +0.000 A 
ATOM     25 BR   UNL     1      -2.692   9.771  15.157  0.00  0.00    +0.000 Br
ATOM     26  C   UNL     1      -1.823  10.509  17.770  0.00  0.00    +0.000 A 
ENDBRANCH  17  20
ENDBRANCH  15  16
ENDBRANCH   7  14
TORSDOF 4
ENDMDL
MODEL 9
REMARK VINA RESULT:      -6.8      3.868      8.175
REMARK  Name = 
REMARK  5 active torsions:
REMARK  status: ('A' for Active; 'I' for Inactive)
REMARK    1  A    between atoms: C_1  and  C_2
REMARK    2  A    between atoms: N_4  and  C_5
REMARK    3  A    between atoms: C_13  and  C_14
REMARK    4  A    between atoms: N_15  and  N_16
REMARK    5  A    between atoms: C_17  and  C_19
REMARK                            x       y       z     vdW  Elec       q    Type
REMARK                         _______ _______ _______ _____ _____    ______ ____
ROOT
ATOM      1  C   UNL     1       3.055   7.633  17.477  0.00  0.00    +0.000 C 
ATOM      2  C   UNL     1       2.165   8.509  18.289  0.00  0.00    +0.000 A 
ATOM      3  N   UNL     1       1.920   9.742  17.826  0.00  0.00    +0.000 NA
ATOM      4  N   UNL     1       1.344  10.408  18.864  0.00  0.00    +0.000 N 
ATOM      5  C   UNL     1       1.014   9.516  19.863  0.00  0.00    +0.000 A 
ATOM      6 CL   UNL     1       0.002   9.940  21.177  0.00  0.00    +0.000 Cl
ATOM      7  C   UNL     1       1.529   8.275  19.543  0.00  0.00    +0.000 A 
ENDROOT
BRANCH   4   8
ATOM      8  C   UNL     1       1.202  11.824  18.790  0.00  0.00    +0.000 A 
ATOM      9  C   UNL     1      -0.082  12.373  18.650  0.00  0.00    +0.000 A 
ATOM     10  C   UNL     1      -0.253  13.759  18.617  0.00  0.00    +0.000 A 
ATOM     11  C   UNL     1       0.853  14.604  18.684  0.00  0.00    +0.000 A 
ATOM     12  C   UNL     1       2.135  14.063  18.768  0.00  0.00    +0.000 A 
ATOM     13  C   UNL     1       2.313  12.678  18.820  0.00  0.00    +0.000 A 
ENDBRANCH   4   8
BRANCH   7  14
ATOM     14  C   UNL     1       1.439   7.141  20.439  0.00  0.00    +0.000 C 
ATOM     15  N   UNL     1       2.295   6.187  20.648  0.00  0.00    +0.000 NA
BRANCH  15  16
ATOM     16  N   UNL     1       3.387   6.037  19.855  0.00  0.00    +0.000 N 
ATOM     17  C   UNL     1       3.784   4.761  19.494  0.00  0.00    +0.000 C 
ATOM     18  O   UNL     1       3.260   3.716  19.872  0.00  0.00    +0.000 OA
ATOM     19  H   UNL     1       3.855   6.873  19.528  0.00  0.00    +0.000 HD
BRANCH  17  20
ATOM     20  C   UNL     1       4.998   4.688  18.650  0.00  0.00    +0.000 A 
ATOM     21  C   UNL     1       6.229   4.967  19.235  0.00  0.00    +0.000 A 
ATOM     22  N   UNL     1       7.396   5.004  18.547  0.00  0.00    +0.000 NA
ATOM     23  C   UNL     1       7.332   4.735  17.220  0.00  0.00    +0.000 A 
ATOM     24  C   UNL     1       6.152   4.421  16.563  0.00  0.00    +0.000 A 
ATOM     25 BR   UNL     1       6.145   4.059  14.713  0.00  0.00    +0.000 Br
ATOM     26  C   UNL     1       4.965   4.389  17.286  0.00  0.00    +0.000 A 
ENDBRANCH  17  20
ENDBRANCH  15  16
ENDBRANCH   7  14
TORSDOF 4
ENDMDL
