MODEL 1
REMARK VINA RESULT:      -9.3      0.000      0.000
REMARK  Name = 
REMARK  6 active torsions:
REMARK  status: ('A' for Active; 'I' for Inactive)
REMARK    1  A    between atoms: N_1  and  C_2
REMARK    2  A    between atoms: C_5  and  C_6
REMARK    3  A    between atoms: C_14  and  C_15
REMARK    4  A    between atoms: C_18  and  C_19
REMARK    5  A    between atoms: N_21  and  C_22
REMARK    6  A    between atoms: C_22  and  C_23
REMARK                            x       y       z     vdW  Elec       q    Type
REMARK                         _______ _______ _______ _____ _____    ______ ____
ROOT
ATOM      1  C   UNL     1       0.661   9.400  20.596  0.00  0.00    +0.000 A 
ATOM      2  C   UNL     1       0.016  10.517  20.023  0.00  0.00    +0.000 A 
ATOM      3  C   UNL     1      -0.740  11.408  20.793  0.00  0.00    +0.000 A 
ATOM      4  C   UNL     1      -0.887  11.202  22.165  0.00  0.00    +0.000 A 
ATOM      5  C   UNL     1      -0.284  10.094  22.745  0.00  0.00    +0.000 A 
ATOM      6  F   UNL     1      -0.434   9.831  24.052  0.00  0.00    +0.000 F 
ATOM      7  C   UNL     1       0.494   9.221  21.981  0.00  0.00    +0.000 A 
ENDROOT
BRANCH   1  13
ATOM      8  C   UNL     1       1.920   8.751  18.458  0.00  0.00    +0.000 A 
ATOM      9  N   UNL     1       2.657   7.894  17.720  0.00  0.00    +0.000 NA
ATOM     10  C   UNL     1       3.022   6.720  18.278  0.00  0.00    +0.000 A 
ATOM     11  C   UNL     1       2.681   6.332  19.564  0.00  0.00    +0.000 A 
ATOM     12  C   UNL     1       1.881   7.224  20.289  0.00  0.00    +0.000 A 
ATOM     13  C   UNL     1       1.479   8.472  19.765  0.00  0.00    +0.000 A 
BRANCH  11  14
ATOM     14  C   UNL     1       3.180   5.033  20.151  0.00  0.00    +0.000 C 
ATOM     15  C   UNL     1       2.028   4.161  20.688  0.00  0.00    +0.000 C 
ATOM     16  C   UNL     1       2.638   2.805  21.008  0.00  0.00    +0.000 C 
ATOM     17  S   UNL     1       3.724   2.479  19.636  0.00  0.00    +0.000 S 
ATOM     18  O   UNL     1       2.964   1.823  18.597  0.00  0.00    +0.000 OA
ATOM     19  O   UNL     1       4.968   1.938  20.149  0.00  0.00    +0.000 OA
ATOM     20  C   UNL     1       3.982   4.180  19.156  0.00  0.00    +0.000 C 
ENDBRANCH  11  14
BRANCH   8  21
ATOM     21  N   UNL     1       1.612   9.937  17.792  0.00  0.00    +0.000 N 
ATOM     22  H   UNL     1       1.534  10.668  18.495  0.00  0.00    +0.000 HD
ATOM     23  H   UNL     1       0.772   9.849  17.233  0.00  0.00    +0.000 HD
ENDBRANCH   8  21
ENDBRANCH   1  13
BRANCH   4  24
ATOM     24  C   UNL     1      -1.674  12.184  22.947  0.00  0.00    +0.000 C 
ATOM     25  O   UNL     1      -1.166  13.259  23.252  0.00  0.00    +0.000 OA
ATOM     26  N   UNL     1      -2.939  11.804  23.333  0.00  0.00    +0.000 N 
ATOM     27  H   UNL     1      -3.351  10.958  22.952  0.00  0.00    +0.000 HD
BRANCH  26  28
ATOM     28  C   UNL     1      -3.795  12.710  24.056  0.00  0.00    +0.000 C 
BRANCH  28  29
ATOM     29  C   UNL     1      -5.153  12.827  23.415  0.00  0.00    +0.000 A 
ATOM     30  C   UNL     1      -6.318  12.740  24.194  0.00  0.00    +0.000 A 
ATOM     31  C   UNL     1      -7.578  12.870  23.602  0.00  0.00    +0.000 A 
ATOM     32  C   UNL     1      -7.684  13.078  22.228  0.00  0.00    +0.000 A 
ATOM     33  C   UNL     1      -6.534  13.151  21.444  0.00  0.00    +0.000 A 
ATOM     34  C   UNL     1      -5.276  13.019  22.033  0.00  0.00    +0.000 A 
ENDBRANCH  28  29
ENDBRANCH  26  28
ENDBRANCH   4  24
TORSDOF 6
ENDMDL
MODEL 2
REMARK VINA RESULT:      -8.9      3.598     10.579
REMARK  Name = 
REMARK  6 active torsions:
REMARK  status: ('A' for Active; 'I' for Inactive)
REMARK    1  A    between atoms: N_1  and  C_2
REMARK    2  A    between atoms: C_5  and  C_6
REMARK    3  A    between atoms: C_14  and  C_15
REMARK    4  A    between atoms: C_18  and  C_19
REMARK    5  A    between atoms: N_21  and  C_22
REMARK    6  A    between atoms: C_22  and  C_23
REMARK                            x       y       z     vdW  Elec       q    Type
REMARK                         _______ _______ _______ _____ _____    ______ ____
ROOT
ATOM      1  C   UNL     1       1.152  10.310  19.128  0.00  0.00    +0.000 A 
ATOM      2  C   UNL     1       1.752   9.796  17.959  0.00  0.00    +0.000 A 
ATOM      3  C   UNL     1       2.218   8.478  17.887  0.00  0.00    +0.000 A 
ATOM      4  C   UNL     1       2.110   7.633  18.992  0.00  0.00    +0.000 A 
ATOM      5  C   UNL     1       1.549   8.127  20.162  0.00  0.00    +0.000 A 
ATOM      6  F   UNL     1       1.464   7.365  21.263  0.00  0.00    +0.000 F 
ATOM      7  C   UNL     1       1.058   9.433  20.224  0.00  0.00    +0.000 A 
ENDROOT
BRANCH   1  13
ATOM      8  C   UNL     1       1.236  12.800  18.517  0.00  0.00    +0.000 A 
ATOM      9  N   UNL     1       0.761  14.062  18.581  0.00  0.00    +0.000 NA
ATOM     10  C   UNL     1      -0.364  14.286  19.294  0.00  0.00    +0.000 A 
ATOM     11  C   UNL     1      -1.062  13.301  19.973  0.00  0.00    +0.000 A 
ATOM     12  C   UNL     1      -0.522  12.009  19.921  0.00  0.00    +0.000 A 
ATOM     13  C   UNL     1       0.644  11.710  19.182  0.00  0.00    +0.000 A 
BRANCH  11  14
ATOM     14  C   UNL     1      -2.353  13.608  20.695  0.00  0.00    +0.000 C 
ATOM     15  C   UNL     1      -3.445  12.563  20.397  0.00  0.00    +0.000 C 
ATOM     16  C   UNL     1      -4.580  12.848  21.369  0.00  0.00    +0.000 C 
ATOM     17  S   UNL     1      -3.760  13.180  22.913  0.00  0.00    +0.000 S 
ATOM     18  O   UNL     1      -3.564  11.927  23.606  0.00  0.00    +0.000 OA
ATOM     19  O   UNL     1      -4.397  14.323  23.539  0.00  0.00    +0.000 OA
ATOM     20  C   UNL     1      -2.194  13.691  22.222  0.00  0.00    +0.000 C 
ENDBRANCH  11  14
BRANCH   8  21
ATOM     21  N   UNL     1       2.390  12.678  17.744  0.00  0.00    +0.000 N 
ATOM     22  H   UNL     1       3.175  12.580  18.383  0.00  0.00    +0.000 HD
ATOM     23  H   UNL     1       2.505  13.461  17.110  0.00  0.00    +0.000 HD
ENDBRANCH   8  21
ENDBRANCH   1  13
BRANCH   4  24
ATOM     24  C   UNL     1       2.591   6.238  18.864  0.00  0.00    +0.000 C 
ATOM     25  O   UNL     1       1.904   5.414  18.268  0.00  0.00    +0.000 OA
ATOM     26  N   UNL     1       3.786   5.932  19.475  0.00  0.00    +0.000 N 
ATOM     27  H   UNL     1       4.368   6.675  19.847  0.00  0.00    +0.000 HD
BRANCH  26  28
ATOM     28  C   UNL     1       4.356   4.613  19.365  0.00  0.00    +0.000 C 
BRANCH  28  29
ATOM     29  C   UNL     1       5.288   4.503  18.188  0.00  0.00    +0.000 A 
ATOM     30  C   UNL     1       6.642   4.851  18.315  0.00  0.00    +0.000 A 
ATOM     31  C   UNL     1       7.511   4.729  17.228  0.00  0.00    +0.000 A 
ATOM     32  C   UNL     1       7.034   4.269  16.002  0.00  0.00    +0.000 A 
ATOM     33  C   UNL     1       5.688   3.935  15.860  0.00  0.00    +0.000 A 
ATOM     34  C   UNL     1       4.818   4.058  16.945  0.00  0.00    +0.000 A 
ENDBRANCH  28  29
ENDBRANCH  26  28
ENDBRANCH   4  24
TORSDOF 6
ENDMDL
MODEL 3
REMARK VINA RESULT:      -8.9      1.140      1.665
REMARK  Name = 
REMARK  6 active torsions:
REMARK  status: ('A' for Active; 'I' for Inactive)
REMARK    1  A    between atoms: N_1  and  C_2
REMARK    2  A    between atoms: C_5  and  C_6
REMARK    3  A    between atoms: C_14  and  C_15
REMARK    4  A    between atoms: C_18  and  C_19
REMARK    5  A    between atoms: N_21  and  C_22
REMARK    6  A    between atoms: C_22  and  C_23
REMARK                            x       y       z     vdW  Elec       q    Type
REMARK                         _______ _______ _______ _____ _____    ______ ____
ROOT
ATOM      1  C   UNL     1       0.492   9.920  20.479  0.00  0.00    +0.000 A 
ATOM      2  C   UNL     1       0.462   9.747  21.880  0.00  0.00    +0.000 A 
ATOM      3  C   UNL     1      -0.324  10.558  22.706  0.00  0.00    +0.000 A 
ATOM      4  C   UNL     1      -1.099  11.581  22.157  0.00  0.00    +0.000 A 
ATOM      5  C   UNL     1      -1.062  11.786  20.785  0.00  0.00    +0.000 A 
ATOM      6  F   UNL     1      -1.756  12.784  20.217  0.00  0.00    +0.000 F 
ATOM      7  C   UNL     1      -0.301  10.958  19.957  0.00  0.00    +0.000 A 
ENDROOT
BRANCH   1  13
ATOM      8  C   UNL     1       1.826   9.401  18.351  0.00  0.00    +0.000 A 
ATOM      9  N   UNL     1       2.570   8.582  17.578  0.00  0.00    +0.000 NA
ATOM     10  C   UNL     1       2.876   7.357  18.055  0.00  0.00    +0.000 A 
ATOM     11  C   UNL     1       2.467   6.880  19.289  0.00  0.00    +0.000 A 
ATOM     12  C   UNL     1       1.661   7.736  20.050  0.00  0.00    +0.000 A 
ATOM     13  C   UNL     1       1.319   9.035  19.612  0.00  0.00    +0.000 A 
BRANCH  11  14
ATOM     14  C   UNL     1       2.902   5.522  19.791  0.00  0.00    +0.000 C 
ATOM     15  C   UNL     1       1.944   4.968  20.864  0.00  0.00    +0.000 C 
ATOM     16  C   UNL     1       2.351   3.520  21.086  0.00  0.00    +0.000 C 
ATOM     17  S   UNL     1       2.656   2.895  19.448  0.00  0.00    +0.000 S 
ATOM     18  O   UNL     1       1.410   2.398  18.910  0.00  0.00    +0.000 OA
ATOM     19  O   UNL     1       3.865   2.095  19.476  0.00  0.00    +0.000 OA
ATOM     20  C   UNL     1       3.013   4.467  18.679  0.00  0.00    +0.000 C 
ENDBRANCH  11  14
BRANCH   8  21
ATOM     21  N   UNL     1       1.582  10.646  17.770  0.00  0.00    +0.000 N 
ATOM     22  H   UNL     1       2.056  11.344  18.338  0.00  0.00    +0.000 HD
ATOM     23  H   UNL     1       0.591  10.832  17.679  0.00  0.00    +0.000 HD
ENDBRANCH   8  21
ENDBRANCH   1  13
BRANCH   4  24
ATOM     24  C   UNL     1      -1.936  12.398  23.066  0.00  0.00    +0.000 C 
ATOM     25  O   UNL     1      -1.480  13.435  23.538  0.00  0.00    +0.000 OA
ATOM     26  N   UNL     1      -3.186  11.909  23.369  0.00  0.00    +0.000 N 
ATOM     27  H   UNL     1      -3.556  11.114  22.858  0.00  0.00    +0.000 HD
BRANCH  26  28
ATOM     28  C   UNL     1      -4.089  12.657  24.208  0.00  0.00    +0.000 C 
BRANCH  28  29
ATOM     29  C   UNL     1      -5.379  12.972  23.498  0.00  0.00    +0.000 A 
ATOM     30  C   UNL     1      -5.367  13.476  22.187  0.00  0.00    +0.000 A 
ATOM     31  C   UNL     1      -6.565  13.749  21.521  0.00  0.00    +0.000 A 
ATOM     32  C   UNL     1      -7.784  13.530  22.161  0.00  0.00    +0.000 A 
ATOM     33  C   UNL     1      -7.807  13.044  23.467  0.00  0.00    +0.000 A 
ATOM     34  C   UNL     1      -6.611  12.773  24.134  0.00  0.00    +0.000 A 
ENDBRANCH  28  29
ENDBRANCH  26  28
ENDBRANCH   4  24
TORSDOF 6
ENDMDL
MODEL 4
REMARK VINA RESULT:      -8.9      1.148      1.512
REMARK  Name = 
REMARK  6 active torsions:
REMARK  status: ('A' for Active; 'I' for Inactive)
REMARK    1  A    between atoms: N_1  and  C_2
REMARK    2  A    between atoms: C_5  and  C_6
REMARK    3  A    between atoms: C_14  and  C_15
REMARK    4  A    between atoms: C_18  and  C_19
REMARK    5  A    between atoms: N_21  and  C_22
REMARK    6  A    between atoms: C_22  and  C_23
REMARK                            x       y       z     vdW  Elec       q    Type
REMARK                         _______ _______ _______ _____ _____    ______ ____
ROOT
ATOM      1  C   UNL     1       0.539   9.566  20.663  0.00  0.00    +0.000 A 
ATOM      2  C   UNL     1       0.276   9.299  22.024  0.00  0.00    +0.000 A 
ATOM      3  C   UNL     1      -0.480  10.173  22.814  0.00  0.00    +0.000 A 
ATOM      4  C   UNL     1      -0.988  11.353  22.269  0.00  0.00    +0.000 A 
ATOM      5  C   UNL     1      -0.717  11.649  20.940  0.00  0.00    +0.000 A 
ATOM      6  F   UNL     1      -1.147  12.792  20.386  0.00  0.00    +0.000 F 
ATOM      7  C   UNL     1       0.013  10.763  20.145  0.00  0.00    +0.000 A 
ENDROOT
BRANCH   1  13
ATOM      8  C   UNL     1       1.738   8.864  18.507  0.00  0.00    +0.000 A 
ATOM      9  N   UNL     1       2.450   7.987  17.768  0.00  0.00    +0.000 NA
ATOM     10  C   UNL     1       2.823   6.823  18.341  0.00  0.00    +0.000 A 
ATOM     11  C   UNL     1       2.513   6.464  19.642  0.00  0.00    +0.000 A 
ATOM     12  C   UNL     1       1.738   7.376  20.370  0.00  0.00    +0.000 A 
ATOM     13  C   UNL     1       1.329   8.616  19.831  0.00  0.00    +0.000 A 
BRANCH  11  14
ATOM     14  C   UNL     1       3.020   5.174  20.244  0.00  0.00    +0.000 C 
ATOM     15  C   UNL     1       1.870   4.280  20.747  0.00  0.00    +0.000 C 
ATOM     16  C   UNL     1       2.496   2.936  21.084  0.00  0.00    +0.000 C 
ATOM     17  S   UNL     1       3.626   2.632  19.743  0.00  0.00    +0.000 S 
ATOM     18  O   UNL     1       2.908   1.962  18.683  0.00  0.00    +0.000 OA
ATOM     19  O   UNL     1       4.865   2.113  20.292  0.00  0.00    +0.000 OA
ATOM     20  C   UNL     1       3.866   4.337  19.271  0.00  0.00    +0.000 C 
ENDBRANCH  11  14
BRANCH   8  21
ATOM     21  N   UNL     1       1.419  10.039  17.825  0.00  0.00    +0.000 N 
ATOM     22  H   UNL     1       1.992  10.782  18.216  0.00  0.00    +0.000 HD
ATOM     23  H   UNL     1       0.429  10.248  17.876  0.00  0.00    +0.000 HD
ENDBRANCH   8  21
ENDBRANCH   1  13
BRANCH   4  24
ATOM     24  C   UNL     1      -1.805  12.236  23.134  0.00  0.00    +0.000 C 
ATOM     25  O   UNL     1      -1.341  13.307  23.513  0.00  0.00    +0.000 OA
ATOM     26  N   UNL     1      -3.044  11.769  23.507  0.00  0.00    +0.000 N 
ATOM     27  H   UNL     1      -3.424  10.936  23.068  0.00  0.00    +0.000 HD
BRANCH  26  28
ATOM     28  C   UNL     1      -3.929  12.577  24.309  0.00  0.00    +0.000 C 
BRANCH  28  29
ATOM     29  C   UNL     1      -4.820  13.442  23.458  0.00  0.00    +0.000 A 
ATOM     30  C   UNL     1      -4.985  14.805  23.755  0.00  0.00    +0.000 A 
ATOM     31  C   UNL     1      -5.797  15.612  22.954  0.00  0.00    +0.000 A 
ATOM     32  C   UNL     1      -6.457  15.064  21.855  0.00  0.00    +0.000 A 
ATOM     33  C   UNL     1      -6.312  13.710  21.560  0.00  0.00    +0.000 A 
ATOM     34  C   UNL     1      -5.504  12.901  22.361  0.00  0.00    +0.000 A 
ENDBRANCH  28  29
ENDBRANCH  26  28
ENDBRANCH   4  24
TORSDOF 6
ENDMDL
MODEL 5
REMARK VINA RESULT:      -8.9      5.141     11.937
REMARK  Name = 
REMARK  6 active torsions:
REMARK  status: ('A' for Active; 'I' for Inactive)
REMARK    1  A    between atoms: N_1  and  C_2
REMARK    2  A    between atoms: C_5  and  C_6
REMARK    3  A    between atoms: C_14  and  C_15
REMARK    4  A    between atoms: C_18  and  C_19
REMARK    5  A    between atoms: N_21  and  C_22
REMARK    6  A    between atoms: C_22  and  C_23
REMARK                            x       y       z     vdW  Elec       q    Type
REMARK                         _______ _______ _______ _____ _____    ______ ____
ROOT
ATOM      1  C   UNL     1       3.165   6.699  18.176  0.00  0.00    +0.000 A 
ATOM      2  C   UNL     1       4.235   7.314  17.492  0.00  0.00    +0.000 A 
ATOM      3  C   UNL     1       5.077   6.591  16.639  0.00  0.00    +0.000 A 
ATOM      4  C   UNL     1       4.883   5.221  16.453  0.00  0.00    +0.000 A 
ATOM      5  C   UNL     1       3.853   4.592  17.139  0.00  0.00    +0.000 A 
ATOM      6  F   UNL     1       3.656   3.269  17.025  0.00  0.00    +0.000 F 
ATOM      7  C   UNL     1       2.995   5.318  17.967  0.00  0.00    +0.000 A 
ENDROOT
BRANCH   1  13
ATOM      8  C   UNL     1       1.890   7.101  20.365  0.00  0.00    +0.000 A 
ATOM      9  N   UNL     1       1.069   7.828  21.153  0.00  0.00    +0.000 NA
ATOM     10  C   UNL     1       0.612   9.008  20.683  0.00  0.00    +0.000 A 
ATOM     11  C   UNL     1       0.925   9.520  19.435  0.00  0.00    +0.000 A 
ATOM     12  C   UNL     1       1.744   8.724  18.624  0.00  0.00    +0.000 A 
ATOM     13  C   UNL     1       2.265   7.487  19.065  0.00  0.00    +0.000 A 
BRANCH  11  14
ATOM     14  C   UNL     1       0.433  10.880  18.998  0.00  0.00    +0.000 C 
ATOM     15  C   UNL     1      -0.916  10.797  18.258  0.00  0.00    +0.000 C 
ATOM     16  C   UNL     1      -1.405  12.229  18.107  0.00  0.00    +0.000 C 
ATOM     17  S   UNL     1      -1.053  12.979  19.682  0.00  0.00    +0.000 S 
ATOM     18  O   UNL     1      -2.179  12.753  20.559  0.00  0.00    +0.000 OA
ATOM     19  O   UNL     1      -0.501  14.300  19.451  0.00  0.00    +0.000 OA
ATOM     20  C   UNL     1       0.264  11.872  20.160  0.00  0.00    +0.000 C 
ENDBRANCH  11  14
BRANCH   8  21
ATOM     21  N   UNL     1       2.315   5.909  20.953  0.00  0.00    +0.000 N 
ATOM     22  H   UNL     1       3.301   6.017  21.178  0.00  0.00    +0.000 HD
ATOM     23  H   UNL     1       2.142   5.110  20.354  0.00  0.00    +0.000 HD
ENDBRANCH   8  21
ENDBRANCH   1  13
BRANCH   4  24
ATOM     24  C   UNL     1       5.781   4.501  15.521  0.00  0.00    +0.000 C 
ATOM     25  O   UNL     1       6.098   3.340  15.765  0.00  0.00    +0.000 OA
ATOM     26  N   UNL     1       6.253   5.207  14.439  0.00  0.00    +0.000 N 
ATOM     27  H   UNL     1       5.864   6.119  14.222  0.00  0.00    +0.000 HD
BRANCH  26  28
ATOM     28  C   UNL     1       7.096   4.576  13.454  0.00  0.00    +0.000 C 
BRANCH  28  29
ATOM     29  C   UNL     1       6.309   3.669  12.545  0.00  0.00    +0.000 A 
ATOM     30  C   UNL     1       6.911   2.536  11.974  0.00  0.00    +0.000 A 
ATOM     31  C   UNL     1       6.175   1.683  11.147  0.00  0.00    +0.000 A 
ATOM     32  C   UNL     1       4.836   1.959  10.876  0.00  0.00    +0.000 A 
ATOM     33  C   UNL     1       4.233   3.088  11.426  0.00  0.00    +0.000 A 
ATOM     34  C   UNL     1       4.967   3.943  12.251  0.00  0.00    +0.000 A 
ENDBRANCH  28  29
ENDBRANCH  26  28
ENDBRANCH   4  24
TORSDOF 6
ENDMDL
MODEL 6
REMARK VINA RESULT:      -8.8      1.105      1.620
REMARK  Name = 
REMARK  6 active torsions:
REMARK  status: ('A' for Active; 'I' for Inactive)
REMARK    1  A    between atoms: N_1  and  C_2
REMARK    2  A    between atoms: C_5  and  C_6
REMARK    3  A    between atoms: C_14  and  C_15
REMARK    4  A    between atoms: C_18  and  C_19
REMARK    5  A    between atoms: N_21  and  C_22
REMARK    6  A    between atoms: C_22  and  C_23
REMARK                            x       y       z     vdW  Elec       q    Type
REMARK                         _______ _______ _______ _____ _____    ______ ____
ROOT
ATOM      1  C   UNL     1       0.735   9.473  20.302  0.00  0.00    +0.000 A 
ATOM      2  C   UNL     1       0.680   9.464  21.712  0.00  0.00    +0.000 A 
ATOM      3  C   UNL     1      -0.111  10.373  22.425  0.00  0.00    +0.000 A 
ATOM      4  C   UNL     1      -0.865  11.332  21.747  0.00  0.00    +0.000 A 
ATOM      5  C   UNL     1      -0.803  11.375  20.361  0.00  0.00    +0.000 A 
ATOM      6  F   UNL     1      -1.477  12.307  19.669  0.00  0.00    +0.000 F 
ATOM      7  C   UNL     1      -0.037  10.450  19.649  0.00  0.00    +0.000 A 
ENDROOT
BRANCH   1  13
ATOM      8  C   UNL     1       2.104   8.701  18.274  0.00  0.00    +0.000 A 
ATOM      9  N   UNL     1       2.852   7.791  17.615  0.00  0.00    +0.000 NA
ATOM     10  C   UNL     1       3.132   6.624  18.235  0.00  0.00    +0.000 A 
ATOM     11  C   UNL     1       2.692   6.295  19.507  0.00  0.00    +0.000 A 
ATOM     12  C   UNL     1       1.883   7.242  20.148  0.00  0.00    +0.000 A 
ATOM     13  C   UNL     1       1.567   8.486  19.558  0.00  0.00    +0.000 A 
BRANCH  11  14
ATOM     14  C   UNL     1       3.100   4.999  20.168  0.00  0.00    +0.000 C 
ATOM     15  C   UNL     1       1.886   4.097  20.467  0.00  0.00    +0.000 C 
ATOM     16  C   UNL     1       2.454   2.751  20.886  0.00  0.00    +0.000 C 
ATOM     17  S   UNL     1       3.789   2.464  19.745  0.00  0.00    +0.000 S 
ATOM     18  O   UNL     1       3.257   1.805  18.574  0.00  0.00    +0.000 OA
ATOM     19  O   UNL     1       4.924   1.942  20.482  0.00  0.00    +0.000 OA
ATOM     20  C   UNL     1       4.096   4.176  19.337  0.00  0.00    +0.000 C 
ENDBRANCH  11  14
BRANCH   8  21
ATOM     21  N   UNL     1       1.888   9.874  17.552  0.00  0.00    +0.000 N 
ATOM     22  H   UNL     1       2.148   9.688  16.587  0.00  0.00    +0.000 HD
ATOM     23  H   UNL     1       2.397  10.658  17.943  0.00  0.00    +0.000 HD
ENDBRANCH   8  21
ENDBRANCH   1  13
BRANCH   4  24
ATOM     24  C   UNL     1      -1.709  12.256  22.539  0.00  0.00    +0.000 C 
ATOM     25  O   UNL     1      -1.298  12.674  23.618  0.00  0.00    +0.000 OA
ATOM     26  N   UNL     1      -2.949  12.561  22.028  0.00  0.00    +0.000 N 
ATOM     27  H   UNL     1      -3.187  12.286  21.080  0.00  0.00    +0.000 HD
BRANCH  26  28
ATOM     28  C   UNL     1      -3.822  13.487  22.705  0.00  0.00    +0.000 C 
BRANCH  28  29
ATOM     29  C   UNL     1      -5.253  13.021  22.688  0.00  0.00    +0.000 A 
ATOM     30  C   UNL     1      -5.847  12.585  21.492  0.00  0.00    +0.000 A 
ATOM     31  C   UNL     1      -7.169  12.133  21.481  0.00  0.00    +0.000 A 
ATOM     32  C   UNL     1      -7.912  12.121  22.659  0.00  0.00    +0.000 A 
ATOM     33  C   UNL     1      -7.338  12.565  23.849  0.00  0.00    +0.000 A 
ATOM     34  C   UNL     1      -6.018  13.019  23.862  0.00  0.00    +0.000 A 
ENDBRANCH  28  29
ENDBRANCH  26  28
ENDBRANCH   4  24
TORSDOF 6
ENDMDL
MODEL 7
REMARK VINA RESULT:      -8.8      4.154     10.175
REMARK  Name = 
REMARK  6 active torsions:
REMARK  status: ('A' for Active; 'I' for Inactive)
REMARK    1  A    between atoms: N_1  and  C_2
REMARK    2  A    between atoms: C_5  and  C_6
REMARK    3  A    between atoms: C_14  and  C_15
REMARK    4  A    between atoms: C_18  and  C_19
REMARK    5  A    between atoms: N_21  and  C_22
REMARK    6  A    between atoms: C_22  and  C_23
REMARK                            x       y       z     vdW  Elec       q    Type
REMARK                         _______ _______ _______ _____ _____    ______ ____
ROOT
ATOM      1  C   UNL     1      -0.829  12.203  19.864  0.00  0.00    +0.000 A 
ATOM      2  C   UNL     1       0.376  11.860  20.513  0.00  0.00    +0.000 A 
ATOM      3  C   UNL     1       1.179  10.803  20.068  0.00  0.00    +0.000 A 
ATOM      4  C   UNL     1       0.792  10.044  18.963  0.00  0.00    +0.000 A 
ATOM      5  C   UNL     1      -0.404  10.346  18.327  0.00  0.00    +0.000 A 
ATOM      6  F   UNL     1      -0.837   9.617  17.288  0.00  0.00    +0.000 F 
ATOM      7  C   UNL     1      -1.190  11.419  18.753  0.00  0.00    +0.000 A 
ENDROOT
BRANCH   1  13
ATOM      8  C   UNL     1      -1.282  14.696  20.261  0.00  0.00    +0.000 A 
ATOM      9  N   UNL     1      -2.050  15.715  20.701  0.00  0.00    +0.000 NA
ATOM     10  C   UNL     1      -3.266  15.425  21.212  0.00  0.00    +0.000 A 
ATOM     11  C   UNL     1      -3.775  14.142  21.321  0.00  0.00    +0.000 A 
ATOM     12  C   UNL     1      -2.938  13.103  20.895  0.00  0.00    +0.000 A 
ATOM     13  C   UNL     1      -1.662  13.344  20.339  0.00  0.00    +0.000 A 
BRANCH  11  14
ATOM     14  C   UNL     1      -5.172  13.893  21.840  0.00  0.00    +0.000 C 
ATOM     15  C   UNL     1      -5.729  12.534  21.372  0.00  0.00    +0.000 C 
ATOM     16  C   UNL     1      -7.009  12.307  22.161  0.00  0.00    +0.000 C 
ATOM     17  S   UNL     1      -6.601  12.824  23.815  0.00  0.00    +0.000 S 
ATOM     18  O   UNL     1      -6.039  11.696  24.521  0.00  0.00    +0.000 OA
ATOM     19  O   UNL     1      -7.707  13.600  24.342  0.00  0.00    +0.000 OA
ATOM     20  C   UNL     1      -5.271  13.931  23.373  0.00  0.00    +0.000 C 
ENDBRANCH  11  14
BRANCH   8  21
ATOM     21  N   UNL     1      -0.055  15.108  19.740  0.00  0.00    +0.000 N 
ATOM     22  H   UNL     1       0.024  16.108  19.902  0.00  0.00    +0.000 HD
ATOM     23  H   UNL     1       0.038  14.869  18.759  0.00  0.00    +0.000 HD
ENDBRANCH   8  21
ENDBRANCH   1  13
BRANCH   4  24
ATOM     24  C   UNL     1       1.684   8.952  18.510  0.00  0.00    +0.000 C 
ATOM     25  O   UNL     1       2.146   8.981  17.373  0.00  0.00    +0.000 OA
ATOM     26  N   UNL     1       1.909   7.922  19.395  0.00  0.00    +0.000 N 
ATOM     27  H   UNL     1       1.603   8.009  20.359  0.00  0.00    +0.000 HD
BRANCH  26  28
ATOM     28  C   UNL     1       2.799   6.839  19.059  0.00  0.00    +0.000 C 
BRANCH  28  29
ATOM     29  C   UNL     1       2.145   5.497  19.256  0.00  0.00    +0.000 A 
ATOM     30  C   UNL     1       1.727   5.089  20.533  0.00  0.00    +0.000 A 
ATOM     31  C   UNL     1       1.101   3.852  20.712  0.00  0.00    +0.000 A 
ATOM     32  C   UNL     1       0.897   3.010  19.620  0.00  0.00    +0.000 A 
ATOM     33  C   UNL     1       1.322   3.399  18.351  0.00  0.00    +0.000 A 
ATOM     34  C   UNL     1       1.949   4.633  18.171  0.00  0.00    +0.000 A 
ENDBRANCH  28  29
ENDBRANCH  26  28
ENDBRANCH   4  24
TORSDOF 6
ENDMDL
MODEL 8
REMARK VINA RESULT:      -8.8      4.971     10.958
REMARK  Name = 
REMARK  6 active torsions:
REMARK  status: ('A' for Active; 'I' for Inactive)
REMARK    1  A    between atoms: N_1  and  C_2
REMARK    2  A    between atoms: C_5  and  C_6
REMARK    3  A    between atoms: C_14  and  C_15
REMARK    4  A    between atoms: C_18  and  C_19
REMARK    5  A    between atoms: N_21  and  C_22
REMARK    6  A    between atoms: C_22  and  C_23
REMARK                            x       y       z     vdW  Elec       q    Type
REMARK                         _______ _______ _______ _____ _____    ______ ____
ROOT
ATOM      1  C   UNL     1       1.129   9.977  19.093  0.00  0.00    +0.000 A 
ATOM      2  C   UNL     1       1.765   9.535  17.913  0.00  0.00    +0.000 A 
ATOM      3  C   UNL     1       2.309   8.250  17.805  0.00  0.00    +0.000 A 
ATOM      4  C   UNL     1       2.247   7.367  18.884  0.00  0.00    +0.000 A 
ATOM      5  C   UNL     1       1.651   7.791  20.064  0.00  0.00    +0.000 A 
ATOM      6  F   UNL     1       1.607   6.992  21.141  0.00  0.00    +0.000 F 
ATOM      7  C   UNL     1       1.082   9.062  20.161  0.00  0.00    +0.000 A 
ENDROOT
BRANCH   1  13
ATOM      8  C   UNL     1      -0.821  11.638  18.966  0.00  0.00    +0.000 A 
ATOM      9  N   UNL     1      -1.337  12.883  19.050  0.00  0.00    +0.000 NA
ATOM     10  C   UNL     1      -0.513  13.894  19.399  0.00  0.00    +0.000 A 
ATOM     11  C   UNL     1       0.837  13.737  19.669  0.00  0.00    +0.000 A 
ATOM     12  C   UNL     1       1.351  12.442  19.533  0.00  0.00    +0.000 A 
ATOM     13  C   UNL     1       0.537  11.341  19.185  0.00  0.00    +0.000 A 
BRANCH  11  14
ATOM     14  C   UNL     1       1.688  14.902  20.120  0.00  0.00    +0.000 C 
ATOM     15  C   UNL     1       3.194  14.585  20.031  0.00  0.00    +0.000 C 
ATOM     16  C   UNL     1       3.917  15.902  20.265  0.00  0.00    +0.000 C 
ATOM     17  S   UNL     1       2.980  17.088  19.325  0.00  0.00    +0.000 S 
ATOM     18  O   UNL     1       3.497  17.115  17.976  0.00  0.00    +0.000 OA
ATOM     19  O   UNL     1       2.824  18.290  20.122  0.00  0.00    +0.000 OA
ATOM     20  C   UNL     1       1.437  16.189  19.319  0.00  0.00    +0.000 C 
ENDBRANCH  11  14
BRANCH   8  21
ATOM     21  N   UNL     1      -1.760  10.668  18.616  0.00  0.00    +0.000 N 
ATOM     22  H   UNL     1      -1.642   9.886  19.254  0.00  0.00    +0.000 HD
ATOM     23  H   UNL     1      -1.671  10.390  17.645  0.00  0.00    +0.000 HD
ENDBRANCH   8  21
ENDBRANCH   1  13
BRANCH   4  24
ATOM     24  C   UNL     1       2.812   6.008  18.717  0.00  0.00    +0.000 C 
ATOM     25  O   UNL     1       2.073   5.082  18.396  0.00  0.00    +0.000 OA
ATOM     26  N   UNL     1       4.153   5.853  18.984  0.00  0.00    +0.000 N 
ATOM     27  H   UNL     1       4.737   6.671  19.126  0.00  0.00    +0.000 HD
BRANCH  26  28
ATOM     28  C   UNL     1       4.800   4.578  18.805  0.00  0.00    +0.000 C 
BRANCH  28  29
ATOM     29  C   UNL     1       5.499   4.488  17.474  0.00  0.00    +0.000 A 
ATOM     30  C   UNL     1       4.784   4.146  16.315  0.00  0.00    +0.000 A 
ATOM     31  C   UNL     1       5.429   4.083  15.077  0.00  0.00    +0.000 A 
ATOM     32  C   UNL     1       6.794   4.351  14.987  0.00  0.00    +0.000 A 
ATOM     33  C   UNL     1       7.516   4.676  16.134  0.00  0.00    +0.000 A 
ATOM     34  C   UNL     1       6.874   4.738  17.372  0.00  0.00    +0.000 A 
ENDBRANCH  28  29
ENDBRANCH  26  28
ENDBRANCH   4  24
TORSDOF 6
ENDMDL
MODEL 9
REMARK VINA RESULT:      -8.7      4.155     10.702
REMARK  Name = 
REMARK  6 active torsions:
REMARK  status: ('A' for Active; 'I' for Inactive)
REMARK    1  A    between atoms: N_1  and  C_2
REMARK    2  A    between atoms: C_5  and  C_6
REMARK    3  A    between atoms: C_14  and  C_15
REMARK    4  A    between atoms: C_18  and  C_19
REMARK    5  A    between atoms: N_21  and  C_22
REMARK    6  A    between atoms: C_22  and  C_23
REMARK                            x       y       z     vdW  Elec       q    Type
REMARK                         _______ _______ _______ _____ _____    ______ ____
ROOT
ATOM      1  C   UNL     1       0.774   9.665  19.383  0.00  0.00    +0.000 A 
ATOM      2  C   UNL     1       1.486   9.384  18.197  0.00  0.00    +0.000 A 
ATOM      3  C   UNL     1       2.243   8.216  18.051  0.00  0.00    +0.000 A 
ATOM      4  C   UNL     1       2.323   7.294  19.096  0.00  0.00    +0.000 A 
ATOM      5  C   UNL     1       1.653   7.565  20.281  0.00  0.00    +0.000 A 
ATOM      6  F   UNL     1       1.736   6.730  21.328  0.00  0.00    +0.000 F 
ATOM      7  C   UNL     1       0.874   8.716  20.416  0.00  0.00    +0.000 A 
ENDROOT
BRANCH   1  13
ATOM      8  C   UNL     1       0.443  12.133  19.999  0.00  0.00    +0.000 A 
ATOM      9  N   UNL     1      -0.316  13.244  20.115  0.00  0.00    +0.000 NA
ATOM     10  C   UNL     1      -1.603  13.183  19.710  0.00  0.00    +0.000 A 
ATOM     11  C   UNL     1      -2.200  12.048  19.189  0.00  0.00    +0.000 A 
ATOM     12  C   UNL     1      -1.400  10.900  19.120  0.00  0.00    +0.000 A 
ATOM     13  C   UNL     1      -0.043  10.904  19.515  0.00  0.00    +0.000 A 
BRANCH  11  14
ATOM     14  C   UNL     1      -3.627  12.068  18.692  0.00  0.00    +0.000 C 
ATOM     15  C   UNL     1      -4.092  10.679  18.211  0.00  0.00    +0.000 C 
ATOM     16  C   UNL     1      -5.591  10.790  17.985  0.00  0.00    +0.000 C 
ATOM     17  S   UNL     1      -6.176  11.729  19.379  0.00  0.00    +0.000 S 
ATOM     18  O   UNL     1      -6.468  10.812  20.457  0.00  0.00    +0.000 OA
ATOM     19  O   UNL     1      -7.137  12.706  18.908  0.00  0.00    +0.000 OA
ATOM     20  C   UNL     1      -4.635  12.554  19.745  0.00  0.00    +0.000 C 
ENDBRANCH  11  14
BRANCH   8  21
ATOM     21  N   UNL     1       1.757  12.310  20.430  0.00  0.00    +0.000 N 
ATOM     22  H   UNL     1       2.359  12.215  19.616  0.00  0.00    +0.000 HD
ATOM     23  H   UNL     1       2.003  11.660  21.168  0.00  0.00    +0.000 HD
ENDBRANCH   8  21
ENDBRANCH   1  13
BRANCH   4  24
ATOM     24  C   UNL     1       3.113   6.059  18.889  0.00  0.00    +0.000 C 
ATOM     25  O   UNL     1       3.953   5.732  19.723  0.00  0.00    +0.000 OA
ATOM     26  N   UNL     1       2.887   5.362  17.724  0.00  0.00    +0.000 N 
ATOM     27  H   UNL     1       2.101   5.609  17.132  0.00  0.00    +0.000 HD
BRANCH  26  28
ATOM     28  C   UNL     1       3.576   4.124  17.457  0.00  0.00    +0.000 C 
BRANCH  28  29
ATOM     29  C   UNL     1       4.856   4.350  16.698  0.00  0.00    +0.000 A 
ATOM     30  C   UNL     1       4.847   4.437  15.296  0.00  0.00    +0.000 A 
ATOM     31  C   UNL     1       6.033   4.667  14.592  0.00  0.00    +0.000 A 
ATOM     32  C   UNL     1       7.237   4.802  15.281  0.00  0.00    +0.000 A 
ATOM     33  C   UNL     1       7.259   4.703  16.671  0.00  0.00    +0.000 A 
ATOM     34  C   UNL     1       6.076   4.471  17.375  0.00  0.00    +0.000 A 
ENDBRANCH  28  29
ENDBRANCH  26  28
ENDBRANCH   4  24
TORSDOF 6
ENDMDL
