MODEL 1
REMARK VINA RESULT:      -8.6      0.000      0.000
REMARK  Name = 
REMARK  9 active torsions:
REMARK  status: ('A' for Active; 'I' for Inactive)
REMARK    1  A    between atoms: N_3  and  C_4
REMARK    2  A    between atoms: C_7  and  N_8
REMARK    3  A    between atoms: N_13  and  C_14
REMARK    4  A    between atoms: C_16  and  O_17
REMARK    5  A    between atoms: O_17  and  C_18
REMARK    6  A    between atoms: C_18  and  C_19
REMARK    7  A    between atoms: C_24  and  O_25
REMARK    8  A    between atoms: O_25  and  C_26
REMARK    9  A    between atoms: C_26  and  C_27
REMARK                            x       y       z     vdW  Elec       q    Type
REMARK                         _______ _______ _______ _____ _____    ______ ____
ROOT
ATOM      1  C   UNL     1       6.996   6.050  17.668  0.00  0.00    +0.000 A 
ATOM      2  C   UNL     1       7.456   5.655  16.412  0.00  0.00    +0.000 A 
ATOM      3  C   UNL     1       6.618   4.949  15.552  0.00  0.00    +0.000 A 
ATOM      4  C   UNL     1       5.383   4.497  16.013  0.00  0.00    +0.000 A 
ATOM      5  C   UNL     1       4.944   4.827  17.300  0.00  0.00    +0.000 A 
ATOM      6  C   UNL     1       5.726   5.660  18.105  0.00  0.00    +0.000 A 
ENDROOT
BRANCH   1  10
ATOM      7  O   UNL     1       7.147   8.855  17.533  0.00  0.00    +0.000 OA
ATOM      8  C   UNL     1       7.912   8.238  18.264  0.00  0.00    +0.000 C 
ATOM      9  N   UNL     1       8.979   8.784  18.968  0.00  0.00    +0.000 N 
ATOM     10  N   UNL     1       7.860   6.860  18.437  0.00  0.00    +0.000 N 
ATOM     11  H   UNL     1       9.572   8.139  19.472  0.00  0.00    +0.000 HD
ATOM     12  H   UNL     1       8.744   6.441  18.678  0.00  0.00    +0.000 HD
BRANCH   9  13
ATOM     13  C   UNL     1       9.368  10.138  18.984  0.00  0.00    +0.000 A 
ATOM     14  C   UNL     1       9.726  10.840  17.828  0.00  0.00    +0.000 A 
ATOM     15  C   UNL     1      10.104  12.185  17.892  0.00  0.00    +0.000 A 
ATOM     16  C   UNL     1      10.127  12.839  19.125  0.00  0.00    +0.000 A 
ATOM     17  C   UNL     1       9.772  12.152  20.294  0.00  0.00    +0.000 A 
ATOM     18  C   UNL     1       9.387  10.806  20.217  0.00  0.00    +0.000 A 
BRANCH  16  19
ATOM     19  N   UNL     1      10.520  14.251  19.187  0.00  0.00    +0.000 N 
ATOM     20  O   UNL     1       9.886  15.057  18.485  0.00  0.00    +0.000 OA
ATOM     21  O   UNL     1      11.468  14.553  19.926  0.00  0.00    +0.000 OA
ENDBRANCH  16  19
ENDBRANCH   9  13
ENDBRANCH   1  10
BRANCH   3  22
ATOM     22  O   UNL     1       6.926   4.667  14.247  0.00  0.00    +0.000 OA
BRANCH  22  23
ATOM     23  C   UNL     1       6.117   3.635  13.656  0.00  0.00    +0.000 C 
BRANCH  23  24
ATOM     24  C   UNL     1       6.327   3.512  12.151  0.00  0.00    +0.000 C 
ATOM     25  F   UNL     1       6.880   2.340  11.782  0.00  0.00    +0.000 F 
ATOM     26  F   UNL     1       5.148   3.635  11.493  0.00  0.00    +0.000 F 
ATOM     27  F   UNL     1       7.133   4.505  11.704  0.00  0.00    +0.000 F 
ENDBRANCH  23  24
ENDBRANCH  22  23
ENDBRANCH   3  22
BRANCH   5  28
ATOM     28  O   UNL     1       3.727   4.307  17.647  0.00  0.00    +0.000 OA
BRANCH  28  29
ATOM     29  C   UNL     1       3.735   3.329  18.696  0.00  0.00    +0.000 C 
BRANCH  29  30
ATOM     30  C   UNL     1       3.016   2.047  18.275  0.00  0.00    +0.000 C 
ATOM     31  F   UNL     1       2.354   2.169  17.105  0.00  0.00    +0.000 F 
ATOM     32  F   UNL     1       3.901   1.030  18.133  0.00  0.00    +0.000 F 
ATOM     33  F   UNL     1       2.118   1.663  19.213  0.00  0.00    +0.000 F 
ENDBRANCH  29  30
ENDBRANCH  28  29
ENDBRANCH   5  28
TORSDOF 9
ENDMDL
MODEL 2
REMARK VINA RESULT:      -8.6      0.237      4.448
REMARK  Name = 
REMARK  9 active torsions:
REMARK  status: ('A' for Active; 'I' for Inactive)
REMARK    1  A    between atoms: N_3  and  C_4
REMARK    2  A    between atoms: C_7  and  N_8
REMARK    3  A    between atoms: N_13  and  C_14
REMARK    4  A    between atoms: C_16  and  O_17
REMARK    5  A    between atoms: O_17  and  C_18
REMARK    6  A    between atoms: C_18  and  C_19
REMARK    7  A    between atoms: C_24  and  O_25
REMARK    8  A    between atoms: O_25  and  C_26
REMARK    9  A    between atoms: C_26  and  C_27
REMARK                            x       y       z     vdW  Elec       q    Type
REMARK                         _______ _______ _______ _____ _____    ______ ____
ROOT
ATOM      1  C   UNL     1       6.981   6.151  17.504  0.00  0.00    +0.000 A 
ATOM      2  C   UNL     1       5.722   5.793  17.984  0.00  0.00    +0.000 A 
ATOM      3  C   UNL     1       4.906   4.944  17.240  0.00  0.00    +0.000 A 
ATOM      4  C   UNL     1       5.283   4.591  15.945  0.00  0.00    +0.000 A 
ATOM      5  C   UNL     1       6.513   5.008  15.427  0.00  0.00    +0.000 A 
ATOM      6  C   UNL     1       7.392   5.736  16.233  0.00  0.00    +0.000 A 
ENDROOT
BRANCH   1  10
ATOM      7  O   UNL     1       7.263   8.947  17.412  0.00  0.00    +0.000 OA
ATOM      8  C   UNL     1       7.922   8.295  18.212  0.00  0.00    +0.000 C 
ATOM      9  N   UNL     1       8.934   8.791  19.026  0.00  0.00    +0.000 N 
ATOM     10  N   UNL     1       7.796   6.919  18.365  0.00  0.00    +0.000 N 
ATOM     11  H   UNL     1       9.444   8.119  19.582  0.00  0.00    +0.000 HD
ATOM     12  H   UNL     1       8.632   6.461  18.692  0.00  0.00    +0.000 HD
BRANCH   9  13
ATOM     13  C   UNL     1       9.375  10.127  19.094  0.00  0.00    +0.000 A 
ATOM     14  C   UNL     1       9.380  10.867  20.281  0.00  0.00    +0.000 A 
ATOM     15  C   UNL     1       9.828  12.191  20.302  0.00  0.00    +0.000 A 
ATOM     16  C   UNL     1      10.278  12.787  19.122  0.00  0.00    +0.000 A 
ATOM     17  C   UNL     1      10.281  12.062  17.923  0.00  0.00    +0.000 A 
ATOM     18  C   UNL     1       9.836  10.733  17.916  0.00  0.00    +0.000 A 
BRANCH  16  19
ATOM     19  N   UNL     1      10.753  14.175  19.149  0.00  0.00    +0.000 N 
ATOM     20  O   UNL     1      11.720  14.439  19.882  0.00  0.00    +0.000 OA
ATOM     21  O   UNL     1      10.153  15.002  18.447  0.00  0.00    +0.000 OA
ENDBRANCH  16  19
ENDBRANCH   9  13
ENDBRANCH   1  10
BRANCH   3  22
ATOM     22  O   UNL     1       3.733   4.410  17.704  0.00  0.00    +0.000 OA
BRANCH  22  23
ATOM     23  C   UNL     1       3.902   3.353  18.666  0.00  0.00    +0.000 C 
BRANCH  23  24
ATOM     24  C   UNL     1       3.094   2.108  18.320  0.00  0.00    +0.000 C 
ATOM     25  F   UNL     1       3.851   1.003  18.173  0.00  0.00    +0.000 F 
ATOM     26  F   UNL     1       2.176   1.852  19.284  0.00  0.00    +0.000 F 
ATOM     27  F   UNL     1       2.410   2.294  17.165  0.00  0.00    +0.000 F 
ENDBRANCH  23  24
ENDBRANCH  22  23
ENDBRANCH   3  22
BRANCH   5  28
ATOM     28  O   UNL     1       6.760   4.619  14.139  0.00  0.00    +0.000 OA
BRANCH  28  29
ATOM     29  C   UNL     1       6.065   3.447  13.688  0.00  0.00    +0.000 C 
BRANCH  29  30
ATOM     30  C   UNL     1       6.034   3.363  12.163  0.00  0.00    +0.000 C 
ATOM     31  F   UNL     1       6.981   4.121  11.569  0.00  0.00    +0.000 F 
ATOM     32  F   UNL     1       6.227   2.086  11.752  0.00  0.00    +0.000 F 
ATOM     33  F   UNL     1       4.833   3.759  11.679  0.00  0.00    +0.000 F 
ENDBRANCH  29  30
ENDBRANCH  28  29
ENDBRANCH   5  28
TORSDOF 9
ENDMDL
MODEL 3
REMARK VINA RESULT:      -8.5      0.258      1.081
REMARK  Name = 
REMARK  9 active torsions:
REMARK  status: ('A' for Active; 'I' for Inactive)
REMARK    1  A    between atoms: N_3  and  C_4
REMARK    2  A    between atoms: C_7  and  N_8
REMARK    3  A    between atoms: N_13  and  C_14
REMARK    4  A    between atoms: C_16  and  O_17
REMARK    5  A    between atoms: O_17  and  C_18
REMARK    6  A    between atoms: C_18  and  C_19
REMARK    7  A    between atoms: C_24  and  O_25
REMARK    8  A    between atoms: O_25  and  C_26
REMARK    9  A    between atoms: C_26  and  C_27
REMARK                            x       y       z     vdW  Elec       q    Type
REMARK                         _______ _______ _______ _____ _____    ______ ____
ROOT
ATOM      1  C   UNL     1       6.961   6.101  17.693  0.00  0.00    +0.000 A 
ATOM      2  C   UNL     1       7.373   5.783  16.400  0.00  0.00    +0.000 A 
ATOM      3  C   UNL     1       6.513   5.105  15.539  0.00  0.00    +0.000 A 
ATOM      4  C   UNL     1       5.309   4.601  16.029  0.00  0.00    +0.000 A 
ATOM      5  C   UNL     1       4.921   4.853  17.348  0.00  0.00    +0.000 A 
ATOM      6  C   UNL     1       5.720   5.660  18.163  0.00  0.00    +0.000 A 
ENDROOT
BRANCH   1  10
ATOM      7  O   UNL     1       7.174   8.902  17.571  0.00  0.00    +0.000 OA
ATOM      8  C   UNL     1       7.924   8.266  18.300  0.00  0.00    +0.000 C 
ATOM      9  N   UNL     1       9.001   8.786  19.007  0.00  0.00    +0.000 N 
ATOM     10  N   UNL     1       7.842   6.889  18.466  0.00  0.00    +0.000 N 
ATOM     11  H   UNL     1       9.580   8.126  19.510  0.00  0.00    +0.000 HD
ATOM     12  H   UNL     1       8.716   6.449  18.708  0.00  0.00    +0.000 HD
BRANCH   9  13
ATOM     13  C   UNL     1       9.420  10.131  19.029  0.00  0.00    +0.000 A 
ATOM     14  C   UNL     1       9.818  10.822  17.881  0.00  0.00    +0.000 A 
ATOM     15  C   UNL     1      10.225  12.158  17.950  0.00  0.00    +0.000 A 
ATOM     16  C   UNL     1      10.236  12.814  19.182  0.00  0.00    +0.000 A 
ATOM     17  C   UNL     1       9.840  12.138  20.344  0.00  0.00    +0.000 A 
ATOM     18  C   UNL     1       9.427  10.801  20.261  0.00  0.00    +0.000 A 
BRANCH  16  19
ATOM     19  N   UNL     1      10.658  14.218  19.250  0.00  0.00    +0.000 N 
ATOM     20  O   UNL     1      11.872  14.460  19.157  0.00  0.00    +0.000 OA
ATOM     21  O   UNL     1       9.777  15.076  19.408  0.00  0.00    +0.000 OA
ENDBRANCH  16  19
ENDBRANCH   9  13
ENDBRANCH   1  10
BRANCH   3  22
ATOM     22  O   UNL     1       6.769   4.899  14.209  0.00  0.00    +0.000 OA
BRANCH  22  23
ATOM     23  C   UNL     1       6.290   3.641  13.700  0.00  0.00    +0.000 C 
BRANCH  23  24
ATOM     24  C   UNL     1       6.431   3.527  12.187  0.00  0.00    +0.000 C 
ATOM     25  F   UNL     1       7.306   4.407  11.663  0.00  0.00    +0.000 F 
ATOM     26  F   UNL     1       6.841   2.283  11.838  0.00  0.00    +0.000 F 
ATOM     27  F   UNL     1       5.234   3.729  11.585  0.00  0.00    +0.000 F 
ENDBRANCH  23  24
ENDBRANCH  22  23
ENDBRANCH   3  22
BRANCH   5  28
ATOM     28  O   UNL     1       3.731   4.288  17.719  0.00  0.00    +0.000 OA
BRANCH  28  29
ATOM     29  C   UNL     1       3.798   3.295  18.753  0.00  0.00    +0.000 C 
BRANCH  29  30
ATOM     30  C   UNL     1       3.014   2.038  18.377  0.00  0.00    +0.000 C 
ATOM     31  F   UNL     1       2.094   1.688  19.302  0.00  0.00    +0.000 F 
ATOM     32  F   UNL     1       2.357   2.220  17.205  0.00  0.00    +0.000 F 
ATOM     33  F   UNL     1       3.843   0.981  18.208  0.00  0.00    +0.000 F 
ENDBRANCH  29  30
ENDBRANCH  28  29
ENDBRANCH   5  28
TORSDOF 9
ENDMDL
MODEL 4
REMARK VINA RESULT:      -8.5      1.252      4.668
REMARK  Name = 
REMARK  9 active torsions:
REMARK  status: ('A' for Active; 'I' for Inactive)
REMARK    1  A    between atoms: N_3  and  C_4
REMARK    2  A    between atoms: C_7  and  N_8
REMARK    3  A    between atoms: N_13  and  C_14
REMARK    4  A    between atoms: C_16  and  O_17
REMARK    5  A    between atoms: O_17  and  C_18
REMARK    6  A    between atoms: C_18  and  C_19
REMARK    7  A    between atoms: C_24  and  O_25
REMARK    8  A    between atoms: O_25  and  C_26
REMARK    9  A    between atoms: C_26  and  C_27
REMARK                            x       y       z     vdW  Elec       q    Type
REMARK                         _______ _______ _______ _____ _____    ______ ____
ROOT
ATOM      1  C   UNL     1       7.070   6.034  17.566  0.00  0.00    +0.000 A 
ATOM      2  C   UNL     1       5.896   5.497  18.093  0.00  0.00    +0.000 A 
ATOM      3  C   UNL     1       5.146   4.591  17.347  0.00  0.00    +0.000 A 
ATOM      4  C   UNL     1       5.482   4.354  16.016  0.00  0.00    +0.000 A 
ATOM      5  C   UNL     1       6.618   4.947  15.456  0.00  0.00    +0.000 A 
ATOM      6  C   UNL     1       7.449   5.738  16.253  0.00  0.00    +0.000 A 
ENDROOT
BRANCH   1  10
ATOM      7  O   UNL     1       7.320   8.827  17.352  0.00  0.00    +0.000 OA
ATOM      8  C   UNL     1       7.952   8.223  18.210  0.00  0.00    +0.000 C 
ATOM      9  N   UNL     1       8.920   8.772  19.042  0.00  0.00    +0.000 N 
ATOM     10  N   UNL     1       7.836   6.854  18.423  0.00  0.00    +0.000 N 
ATOM     11  H   UNL     1       9.415   8.134  19.651  0.00  0.00    +0.000 HD
ATOM     12  H   UNL     1       8.663   6.425  18.807  0.00  0.00    +0.000 HD
BRANCH   9  13
ATOM     13  C   UNL     1       9.341  10.117  19.065  0.00  0.00    +0.000 A 
ATOM     14  C   UNL     1       9.689  10.824  17.910  0.00  0.00    +0.000 A 
ATOM     15  C   UNL     1      10.101  12.158  17.981  0.00  0.00    +0.000 A 
ATOM     16  C   UNL     1      10.168  12.796  19.221  0.00  0.00    +0.000 A 
ATOM     17  C   UNL     1       9.824  12.104  20.389  0.00  0.00    +0.000 A 
ATOM     18  C   UNL     1       9.405  10.768  20.305  0.00  0.00    +0.000 A 
BRANCH  16  19
ATOM     19  N   UNL     1      10.595  14.198  19.291  0.00  0.00    +0.000 N 
ATOM     20  O   UNL     1      10.838  14.672  20.413  0.00  0.00    +0.000 OA
ATOM     21  O   UNL     1      10.676  14.828  18.226  0.00  0.00    +0.000 OA
ENDBRANCH  16  19
ENDBRANCH   9  13
ENDBRANCH   1  10
BRANCH   3  22
ATOM     22  O   UNL     1       4.078   3.892  17.845  0.00  0.00    +0.000 OA
BRANCH  22  23
ATOM     23  C   UNL     1       3.534   4.427  19.064  0.00  0.00    +0.000 C 
BRANCH  23  24
ATOM     24  C   UNL     1       2.175   5.088  18.863  0.00  0.00    +0.000 C 
ATOM     25  F   UNL     1       1.287   4.790  19.831  0.00  0.00    +0.000 F 
ATOM     26  F   UNL     1       2.300   6.436  18.822  0.00  0.00    +0.000 F 
ATOM     27  F   UNL     1       1.635   4.706  17.680  0.00  0.00    +0.000 F 
ENDBRANCH  23  24
ENDBRANCH  22  23
ENDBRANCH   3  22
BRANCH   5  28
ATOM     28  O   UNL     1       6.831   4.657  14.136  0.00  0.00    +0.000 OA
BRANCH  28  29
ATOM     29  C   UNL     1       6.146   3.504  13.624  0.00  0.00    +0.000 C 
BRANCH  29  30
ATOM     30  C   UNL     1       6.216   3.440  12.099  0.00  0.00    +0.000 C 
ATOM     31  F   UNL     1       7.065   4.345  11.566  0.00  0.00    +0.000 F 
ATOM     32  F   UNL     1       6.629   2.214  11.692  0.00  0.00    +0.000 F 
ATOM     33  F   UNL     1       4.998   3.651  11.547  0.00  0.00    +0.000 F 
ENDBRANCH  29  30
ENDBRANCH  28  29
ENDBRANCH   5  28
TORSDOF 9
ENDMDL
MODEL 5
REMARK VINA RESULT:      -8.4      1.092      1.517
REMARK  Name = 
REMARK  9 active torsions:
REMARK  status: ('A' for Active; 'I' for Inactive)
REMARK    1  A    between atoms: N_3  and  C_4
REMARK    2  A    between atoms: C_7  and  N_8
REMARK    3  A    between atoms: N_13  and  C_14
REMARK    4  A    between atoms: C_16  and  O_17
REMARK    5  A    between atoms: O_17  and  C_18
REMARK    6  A    between atoms: C_18  and  C_19
REMARK    7  A    between atoms: C_24  and  O_25
REMARK    8  A    between atoms: O_25  and  C_26
REMARK    9  A    between atoms: C_26  and  C_27
REMARK                            x       y       z     vdW  Elec       q    Type
REMARK                         _______ _______ _______ _____ _____    ______ ____
ROOT
ATOM      1  C   UNL     1       7.022   5.863  17.747  0.00  0.00    +0.000 A 
ATOM      2  C   UNL     1       7.469   5.603  16.451  0.00  0.00    +0.000 A 
ATOM      3  C   UNL     1       6.681   4.856  15.578  0.00  0.00    +0.000 A 
ATOM      4  C   UNL     1       5.529   4.232  16.055  0.00  0.00    +0.000 A 
ATOM      5  C   UNL     1       5.113   4.428  17.376  0.00  0.00    +0.000 A 
ATOM      6  C   UNL     1       5.828   5.298  18.204  0.00  0.00    +0.000 A 
ENDROOT
BRANCH   1  10
ATOM      7  O   UNL     1       7.216   8.651  17.429  0.00  0.00    +0.000 OA
ATOM      8  C   UNL     1       7.902   8.084  18.270  0.00  0.00    +0.000 C 
ATOM      9  N   UNL     1       8.905   8.675  19.030  0.00  0.00    +0.000 N 
ATOM     10  N   UNL     1       7.820   6.723  18.534  0.00  0.00    +0.000 N 
ATOM     11  H   UNL     1       9.441   8.065  19.633  0.00  0.00    +0.000 HD
ATOM     12  H   UNL     1       8.673   6.318  18.887  0.00  0.00    +0.000 HD
BRANCH   9  13
ATOM     13  C   UNL     1       9.305  10.025  18.987  0.00  0.00    +0.000 A 
ATOM     14  C   UNL     1       9.609  10.690  17.795  0.00  0.00    +0.000 A 
ATOM     15  C   UNL     1      10.001  12.032  17.799  0.00  0.00    +0.000 A 
ATOM     16  C   UNL     1      10.093  12.721  19.010  0.00  0.00    +0.000 A 
ATOM     17  C   UNL     1       9.793  12.072  20.215  0.00  0.00    +0.000 A 
ATOM     18  C   UNL     1       9.394  10.728  20.197  0.00  0.00    +0.000 A 
BRANCH  16  19
ATOM     19  N   UNL     1      10.500  14.131  19.011  0.00  0.00    +0.000 N 
ATOM     20  O   UNL     1       9.923  14.897  18.222  0.00  0.00    +0.000 OA
ATOM     21  O   UNL     1      11.403  14.468  19.790  0.00  0.00    +0.000 OA
ENDBRANCH  16  19
ENDBRANCH   9  13
ENDBRANCH   1  10
BRANCH   3  22
ATOM     22  O   UNL     1       6.961   4.692  14.247  0.00  0.00    +0.000 OA
BRANCH  22  23
ATOM     23  C   UNL     1       6.185   3.670  13.598  0.00  0.00    +0.000 C 
BRANCH  23  24
ATOM     24  C   UNL     1       6.444   3.596  12.098  0.00  0.00    +0.000 C 
ATOM     25  F   UNL     1       7.250   4.577  11.646  0.00  0.00    +0.000 F 
ATOM     26  F   UNL     1       7.013   2.412  11.769  0.00  0.00    +0.000 F 
ATOM     27  F   UNL     1       5.277   3.676  11.414  0.00  0.00    +0.000 F 
ENDBRANCH  23  24
ENDBRANCH  22  23
ENDBRANCH   3  22
BRANCH   5  28
ATOM     28  O   UNL     1       3.982   3.746  17.733  0.00  0.00    +0.000 OA
BRANCH  28  29
ATOM     29  C   UNL     1       3.424   4.076  19.014  0.00  0.00    +0.000 C 
BRANCH  29  30
ATOM     30  C   UNL     1       1.989   4.586  18.887  0.00  0.00    +0.000 C 
ATOM     31  F   UNL     1       1.555   5.235  19.988  0.00  0.00    +0.000 F 
ATOM     32  F   UNL     1       1.880   5.446  17.844  0.00  0.00    +0.000 F 
ATOM     33  F   UNL     1       1.130   3.566  18.651  0.00  0.00    +0.000 F 
ENDBRANCH  29  30
ENDBRANCH  28  29
ENDBRANCH   5  28
TORSDOF 9
ENDMDL
MODEL 6
REMARK VINA RESULT:      -8.4      0.607      4.495
REMARK  Name = 
REMARK  9 active torsions:
REMARK  status: ('A' for Active; 'I' for Inactive)
REMARK    1  A    between atoms: N_3  and  C_4
REMARK    2  A    between atoms: C_7  and  N_8
REMARK    3  A    between atoms: N_13  and  C_14
REMARK    4  A    between atoms: C_16  and  O_17
REMARK    5  A    between atoms: O_17  and  C_18
REMARK    6  A    between atoms: C_18  and  C_19
REMARK    7  A    between atoms: C_24  and  O_25
REMARK    8  A    between atoms: O_25  and  C_26
REMARK    9  A    between atoms: C_26  and  C_27
REMARK                            x       y       z     vdW  Elec       q    Type
REMARK                         _______ _______ _______ _____ _____    ______ ____
ROOT
ATOM      1  C   UNL     1       6.979   6.119  17.570  0.00  0.00    +0.000 A 
ATOM      2  C   UNL     1       5.648   5.964  17.959  0.00  0.00    +0.000 A 
ATOM      3  C   UNL     1       4.807   5.112  17.248  0.00  0.00    +0.000 A 
ATOM      4  C   UNL     1       5.252   4.547  16.054  0.00  0.00    +0.000 A 
ATOM      5  C   UNL     1       6.564   4.757  15.617  0.00  0.00    +0.000 A 
ATOM      6  C   UNL     1       7.448   5.493  16.411  0.00  0.00    +0.000 A 
ENDROOT
BRANCH   1  10
ATOM      7  O   UNL     1       7.251   8.914  17.414  0.00  0.00    +0.000 OA
ATOM      8  C   UNL     1       7.919   8.281  18.222  0.00  0.00    +0.000 C 
ATOM      9  N   UNL     1       8.937   8.798  19.015  0.00  0.00    +0.000 N 
ATOM     10  N   UNL     1       7.798   6.909  18.406  0.00  0.00    +0.000 N 
ATOM     11  H   UNL     1       9.455   8.139  19.581  0.00  0.00    +0.000 HD
ATOM     12  H   UNL     1       8.639   6.460  18.735  0.00  0.00    +0.000 HD
BRANCH   9  13
ATOM     13  C   UNL     1       9.375  10.137  19.050  0.00  0.00    +0.000 A 
ATOM     14  C   UNL     1       9.746  10.845  17.903  0.00  0.00    +0.000 A 
ATOM     15  C   UNL     1      10.173  12.174  17.985  0.00  0.00    +0.000 A 
ATOM     16  C   UNL     1      10.234  12.805  19.229  0.00  0.00    +0.000 A 
ATOM     17  C   UNL     1       9.866  12.111  20.390  0.00  0.00    +0.000 A 
ATOM     18  C   UNL     1       9.432  10.781  20.294  0.00  0.00    +0.000 A 
BRANCH  16  19
ATOM     19  N   UNL     1      10.677  14.201  19.311  0.00  0.00    +0.000 N 
ATOM     20  O   UNL     1      10.036  14.968  20.048  0.00  0.00    +0.000 OA
ATOM     21  O   UNL     1      11.659  14.533  18.631  0.00  0.00    +0.000 OA
ENDBRANCH  16  19
ENDBRANCH   9  13
ENDBRANCH   1  10
BRANCH   3  22
ATOM     22  O   UNL     1       3.543   4.773  17.653  0.00  0.00    +0.000 OA
BRANCH  22  23
ATOM     23  C   UNL     1       3.481   3.604  18.489  0.00  0.00    +0.000 C 
BRANCH  23  24
ATOM     24  C   UNL     1       2.205   2.797  18.279  0.00  0.00    +0.000 C 
ATOM     25  F   UNL     1       2.286   1.926  17.254  0.00  0.00    +0.000 F 
ATOM     26  F   UNL     1       1.897   2.092  19.395  0.00  0.00    +0.000 F 
ATOM     27  F   UNL     1       1.159   3.623  18.034  0.00  0.00    +0.000 F 
ENDBRANCH  23  24
ENDBRANCH  22  23
ENDBRANCH   3  22
BRANCH   5  28
ATOM     28  O   UNL     1       6.877   4.171  14.421  0.00  0.00    +0.000 OA
BRANCH  28  29
ATOM     29  C   UNL     1       5.766   3.755  13.613  0.00  0.00    +0.000 C 
BRANCH  29  30
ATOM     30  C   UNL     1       6.194   3.472  12.173  0.00  0.00    +0.000 C 
ATOM     31  F   UNL     1       6.765   2.258  12.016  0.00  0.00    +0.000 F 
ATOM     32  F   UNL     1       5.126   3.525  11.340  0.00  0.00    +0.000 F 
ATOM     33  F   UNL     1       7.081   4.398  11.739  0.00  0.00    +0.000 F 
ENDBRANCH  29  30
ENDBRANCH  28  29
ENDBRANCH   5  28
TORSDOF 9
ENDMDL
MODEL 7
REMARK VINA RESULT:      -8.3      5.828      8.369
REMARK  Name = 
REMARK  9 active torsions:
REMARK  status: ('A' for Active; 'I' for Inactive)
REMARK    1  A    between atoms: N_3  and  C_4
REMARK    2  A    between atoms: C_7  and  N_8
REMARK    3  A    between atoms: N_13  and  C_14
REMARK    4  A    between atoms: C_16  and  O_17
REMARK    5  A    between atoms: O_17  and  C_18
REMARK    6  A    between atoms: C_18  and  C_19
REMARK    7  A    between atoms: C_24  and  O_25
REMARK    8  A    between atoms: O_25  and  C_26
REMARK    9  A    between atoms: C_26  and  C_27
REMARK                            x       y       z     vdW  Elec       q    Type
REMARK                         _______ _______ _______ _____ _____    ______ ____
ROOT
ATOM      1  C   UNL     1       3.255   6.411  17.943  0.00  0.00    +0.000 A 
ATOM      2  C   UNL     1       2.369   5.351  18.134  0.00  0.00    +0.000 A 
ATOM      3  C   UNL     1       2.849   4.046  18.219  0.00  0.00    +0.000 A 
ATOM      4  C   UNL     1       4.192   3.790  17.947  0.00  0.00    +0.000 A 
ATOM      5  C   UNL     1       5.074   4.842  17.682  0.00  0.00    +0.000 A 
ATOM      6  C   UNL     1       4.616   6.161  17.744  0.00  0.00    +0.000 A 
ENDROOT
BRANCH   1  10
ATOM      7  O   UNL     1       1.893   7.539  20.130  0.00  0.00    +0.000 OA
ATOM      8  C   UNL     1       1.997   8.171  19.085  0.00  0.00    +0.000 C 
ATOM      9  N   UNL     1       1.379   9.383  18.806  0.00  0.00    +0.000 N 
ATOM     10  N   UNL     1       2.708   7.712  17.983  0.00  0.00    +0.000 N 
ATOM     11  H   UNL     1       1.495   9.751  17.871  0.00  0.00    +0.000 HD
ATOM     12  H   UNL     1       2.375   8.068  17.100  0.00  0.00    +0.000 HD
BRANCH   9  13
ATOM     13  C   UNL     1       0.536  10.114  19.668  0.00  0.00    +0.000 A 
ATOM     14  C   UNL     1       0.721  10.159  21.053  0.00  0.00    +0.000 A 
ATOM     15  C   UNL     1      -0.139  10.898  21.870  0.00  0.00    +0.000 A 
ATOM     16  C   UNL     1      -1.201  11.602  21.297  0.00  0.00    +0.000 A 
ATOM     17  C   UNL     1      -1.402  11.569  19.911  0.00  0.00    +0.000 A 
ATOM     18  C   UNL     1      -0.528  10.830  19.101  0.00  0.00    +0.000 A 
BRANCH  16  19
ATOM     19  N   UNL     1      -2.098  12.382  22.157  0.00  0.00    +0.000 N 
ATOM     20  O   UNL     1      -2.282  11.976  23.316  0.00  0.00    +0.000 OA
ATOM     21  O   UNL     1      -2.628  13.391  21.670  0.00  0.00    +0.000 OA
ENDBRANCH  16  19
ENDBRANCH   9  13
ENDBRANCH   1  10
BRANCH   3  22
ATOM     22  O   UNL     1       2.078   2.969  18.568  0.00  0.00    +0.000 OA
BRANCH  22  23
ATOM     23  C   UNL     1       2.274   2.510  19.917  0.00  0.00    +0.000 C 
BRANCH  23  24
ATOM     24  C   UNL     1       1.495   3.331  20.938  0.00  0.00    +0.000 C 
ATOM     25  F   UNL     1       0.438   3.978  20.409  0.00  0.00    +0.000 F 
ATOM     26  F   UNL     1       1.033   2.538  21.936  0.00  0.00    +0.000 F 
ATOM     27  F   UNL     1       2.299   4.258  21.512  0.00  0.00    +0.000 F 
ENDBRANCH  23  24
ENDBRANCH  22  23
ENDBRANCH   3  22
BRANCH   5  28
ATOM     28  O   UNL     1       6.360   4.464  17.407  0.00  0.00    +0.000 OA
BRANCH  28  29
ATOM     29  C   UNL     1       7.021   5.187  16.359  0.00  0.00    +0.000 C 
BRANCH  29  30
ATOM     30  C   UNL     1       6.533   4.748  14.979  0.00  0.00    +0.000 C 
ATOM     31  F   UNL     1       5.403   5.375  14.589  0.00  0.00    +0.000 F 
ATOM     32  F   UNL     1       7.477   4.999  14.038  0.00  0.00    +0.000 F 
ATOM     33  F   UNL     1       6.290   3.416  14.951  0.00  0.00    +0.000 F 
ENDBRANCH  29  30
ENDBRANCH  28  29
ENDBRANCH   5  28
TORSDOF 9
ENDMDL
MODEL 8
REMARK VINA RESULT:      -8.3      6.144      8.344
REMARK  Name = 
REMARK  9 active torsions:
REMARK  status: ('A' for Active; 'I' for Inactive)
REMARK    1  A    between atoms: N_3  and  C_4
REMARK    2  A    between atoms: C_7  and  N_8
REMARK    3  A    between atoms: N_13  and  C_14
REMARK    4  A    between atoms: C_16  and  O_17
REMARK    5  A    between atoms: O_17  and  C_18
REMARK    6  A    between atoms: C_18  and  C_19
REMARK    7  A    between atoms: C_24  and  O_25
REMARK    8  A    between atoms: O_25  and  C_26
REMARK    9  A    between atoms: C_26  and  C_27
REMARK                            x       y       z     vdW  Elec       q    Type
REMARK                         _______ _______ _______ _____ _____    ______ ____
ROOT
ATOM      1  C   UNL     1       2.990   6.637  17.805  0.00  0.00    +0.000 A 
ATOM      2  C   UNL     1       2.293   5.465  18.098  0.00  0.00    +0.000 A 
ATOM      3  C   UNL     1       2.957   4.241  18.106  0.00  0.00    +0.000 A 
ATOM      4  C   UNL     1       4.275   4.171  17.658  0.00  0.00    +0.000 A 
ATOM      5  C   UNL     1       4.960   5.334  17.291  0.00  0.00    +0.000 A 
ATOM      6  C   UNL     1       4.335   6.577  17.427  0.00  0.00    +0.000 A 
ENDROOT
BRANCH   1  10
ATOM      7  O   UNL     1       2.232   7.837  20.232  0.00  0.00    +0.000 OA
ATOM      8  C   UNL     1       1.892   8.343  19.170  0.00  0.00    +0.000 C 
ATOM      9  N   UNL     1       1.025   9.420  19.025  0.00  0.00    +0.000 N 
ATOM     10  N   UNL     1       2.278   7.850  17.930  0.00  0.00    +0.000 N 
ATOM     11  H   UNL     1       0.775   9.682  18.081  0.00  0.00    +0.000 HD
ATOM     12  H   UNL     1       1.627   8.047  17.186  0.00  0.00    +0.000 HD
BRANCH   9  13
ATOM     13  C   UNL     1       0.394  10.134  20.063  0.00  0.00    +0.000 A 
ATOM     14  C   UNL     1       0.019   9.544  21.273  0.00  0.00    +0.000 A 
ATOM     15  C   UNL     1      -0.605  10.292  22.276  0.00  0.00    +0.000 A 
ATOM     16  C   UNL     1      -0.859  11.649  22.069  0.00  0.00    +0.000 A 
ATOM     17  C   UNL     1      -0.490  12.259  20.863  0.00  0.00    +0.000 A 
ATOM     18  C   UNL     1       0.141  11.500  19.867  0.00  0.00    +0.000 A 
BRANCH  16  19
ATOM     19  N   UNL     1      -1.508  12.433  23.126  0.00  0.00    +0.000 N 
ATOM     20  O   UNL     1      -0.872  13.382  23.613  0.00  0.00    +0.000 OA
ATOM     21  O   UNL     1      -2.647  12.092  23.477  0.00  0.00    +0.000 OA
ENDBRANCH  16  19
ENDBRANCH   9  13
ENDBRANCH   1  10
BRANCH   3  22
ATOM     22  O   UNL     1       2.394   3.070  18.541  0.00  0.00    +0.000 OA
BRANCH  22  23
ATOM     23  C   UNL     1       2.698   2.737  19.907  0.00  0.00    +0.000 C 
BRANCH  23  24
ATOM     24  C   UNL     1       1.733   3.377  20.898  0.00  0.00    +0.000 C 
ATOM     25  F   UNL     1       0.539   3.690  20.357  0.00  0.00    +0.000 F 
ATOM     26  F   UNL     1       1.505   2.548  21.946  0.00  0.00    +0.000 F 
ATOM     27  F   UNL     1       2.265   4.516  21.405  0.00  0.00    +0.000 F 
ENDBRANCH  23  24
ENDBRANCH  22  23
ENDBRANCH   3  22
BRANCH   5  28
ATOM     28  O   UNL     1       6.239   5.136  16.847  0.00  0.00    +0.000 OA
BRANCH  28  29
ATOM     29  C   UNL     1       7.157   4.575  17.797  0.00  0.00    +0.000 C 
BRANCH  29  30
ATOM     30  C   UNL     1       7.541   5.589  18.874  0.00  0.00    +0.000 C 
ATOM     31  F   UNL     1       8.711   5.301  19.484  0.00  0.00    +0.000 F 
ATOM     32  F   UNL     1       7.662   6.829  18.339  0.00  0.00    +0.000 F 
ATOM     33  F   UNL     1       6.589   5.662  19.834  0.00  0.00    +0.000 F 
ENDBRANCH  29  30
ENDBRANCH  28  29
ENDBRANCH   5  28
TORSDOF 9
ENDMDL
MODEL 9
REMARK VINA RESULT:      -8.3      0.981      4.476
REMARK  Name = 
REMARK  9 active torsions:
REMARK  status: ('A' for Active; 'I' for Inactive)
REMARK    1  A    between atoms: N_3  and  C_4
REMARK    2  A    between atoms: C_7  and  N_8
REMARK    3  A    between atoms: N_13  and  C_14
REMARK    4  A    between atoms: C_16  and  O_17
REMARK    5  A    between atoms: O_17  and  C_18
REMARK    6  A    between atoms: C_18  and  C_19
REMARK    7  A    between atoms: C_24  and  O_25
REMARK    8  A    between atoms: O_25  and  C_26
REMARK    9  A    between atoms: C_26  and  C_27
REMARK                            x       y       z     vdW  Elec       q    Type
REMARK                         _______ _______ _______ _____ _____    ______ ____
ROOT
ATOM      1  C   UNL     1       7.136   6.036  17.693  0.00  0.00    +0.000 A 
ATOM      2  C   UNL     1       6.097   5.347  18.320  0.00  0.00    +0.000 A 
ATOM      3  C   UNL     1       5.381   4.377  17.622  0.00  0.00    +0.000 A 
ATOM      4  C   UNL     1       5.595   4.218  16.254  0.00  0.00    +0.000 A 
ATOM      5  C   UNL     1       6.585   4.959  15.601  0.00  0.00    +0.000 A 
ATOM      6  C   UNL     1       7.401   5.823  16.337  0.00  0.00    +0.000 A 
ENDROOT
BRANCH   1  10
ATOM      7  O   UNL     1       7.353   8.811  17.298  0.00  0.00    +0.000 OA
ATOM      8  C   UNL     1       7.990   8.272  18.195  0.00  0.00    +0.000 C 
ATOM      9  N   UNL     1       8.949   8.886  18.991  0.00  0.00    +0.000 N 
ATOM     10  N   UNL     1       7.890   6.919  18.497  0.00  0.00    +0.000 N 
ATOM     11  H   UNL     1       9.449   8.295  19.642  0.00  0.00    +0.000 HD
ATOM     12  H   UNL     1       8.721   6.526  18.909  0.00  0.00    +0.000 HD
BRANCH   9  13
ATOM     13  C   UNL     1       9.354  10.234  18.927  0.00  0.00    +0.000 A 
ATOM     14  C   UNL     1       9.053  11.068  17.846  0.00  0.00    +0.000 A 
ATOM     15  C   UNL     1       9.475  12.401  17.827  0.00  0.00    +0.000 A 
ATOM     16  C   UNL     1      10.209  12.909  18.900  0.00  0.00    +0.000 A 
ATOM     17  C   UNL     1      10.521  12.089  19.992  0.00  0.00    +0.000 A 
ATOM     18  C   UNL     1      10.086  10.756  20.004  0.00  0.00    +0.000 A 
BRANCH  16  19
ATOM     19  N   UNL     1      10.645  14.310  18.878  0.00  0.00    +0.000 N 
ATOM     20  O   UNL     1      10.802  14.882  19.969  0.00  0.00    +0.000 OA
ATOM     21  O   UNL     1      10.820  14.841  17.772  0.00  0.00    +0.000 OA
ENDBRANCH  16  19
ENDBRANCH   9  13
ENDBRANCH   1  10
BRANCH   3  22
ATOM     22  O   UNL     1       4.463   3.541  18.201  0.00  0.00    +0.000 OA
BRANCH  22  23
ATOM     23  C   UNL     1       3.280   3.321  17.413  0.00  0.00    +0.000 C 
BRANCH  23  24
ATOM     24  C   UNL     1       2.006   3.750  18.130  0.00  0.00    +0.000 C 
ATOM     25  F   UNL     1       2.221   4.187  19.387  0.00  0.00    +0.000 F 
ATOM     26  F   UNL     1       1.387   4.745  17.450  0.00  0.00    +0.000 F 
ATOM     27  F   UNL     1       1.132   2.717  18.199  0.00  0.00    +0.000 F 
ENDBRANCH  23  24
ENDBRANCH  22  23
ENDBRANCH   3  22
BRANCH   5  28
ATOM     28  O   UNL     1       6.685   4.731  14.256  0.00  0.00    +0.000 OA
BRANCH  28  29
ATOM     29  C   UNL     1       5.959   3.601  13.750  0.00  0.00    +0.000 C 
BRANCH  29  30
ATOM     30  C   UNL     1       6.078   3.490  12.231  0.00  0.00    +0.000 C 
ATOM     31  F   UNL     1       4.938   3.809  11.583  0.00  0.00    +0.000 F 
ATOM     32  F   UNL     1       7.048   4.317  11.768  0.00  0.00    +0.000 F 
ATOM     33  F   UNL     1       6.419   2.233  11.861  0.00  0.00    +0.000 F 
ENDBRANCH  29  30
ENDBRANCH  28  29
ENDBRANCH   5  28
TORSDOF 9
ENDMDL
