MODEL 1
REMARK VINA RESULT:      -7.5      0.000      0.000
REMARK  Name = 
REMARK  9 active torsions:
REMARK  status: ('A' for Active; 'I' for Inactive)
REMARK    1  A    between atoms: C_1  and  C_2
REMARK    2  A    between atoms: C_2  and  C_3
REMARK    3  A    between atoms: C_3  and  N_4
REMARK    4  A    between atoms: C_7  and  C_8
REMARK    5  A    between atoms: N_10  and  C_11
REMARK    6  A    between atoms: C_11  and  C_12
REMARK    7  A    between atoms: C_17  and  O_18
REMARK    8  A    between atoms: O_18  and  C_19
REMARK    9  A    between atoms: C_20  and  O_21
REMARK                            x       y       z     vdW  Elec       q    Type
REMARK                         _______ _______ _______ _____ _____    ______ ____
ROOT
ATOM      1  N   UNL     1       2.380   6.154  20.021  0.00  0.00    +0.000 N 
ATOM      2  C   UNL     1       1.673   7.341  20.200  0.00  0.00    +0.000 A 
ATOM      3  O   UNL     1       0.962   7.537  21.190  0.00  0.00    +0.000 OA
ATOM      4  C   UNL     1       1.772   8.410  19.159  0.00  0.00    +0.000 A 
ATOM      5  C   UNL     1       2.562   8.216  18.077  0.00  0.00    +0.000 A 
ATOM      6  C   UNL     1       3.380   7.000  17.959  0.00  0.00    +0.000 A 
ATOM      7  C   UNL     1       4.320   6.873  16.919  0.00  0.00    +0.000 A 
ATOM      8  C   UNL     1       5.159   5.763  16.841  0.00  0.00    +0.000 A 
ATOM      9  C   UNL     1       5.033   4.744  17.776  0.00  0.00    +0.000 A 
ATOM     10  C   UNL     1       4.082   4.840  18.792  0.00  0.00    +0.000 A 
ATOM     11  C   UNL     1       3.271   5.979  18.921  0.00  0.00    +0.000 A 
ENDROOT
BRANCH   4  12
ATOM     12  C   UNL     1       1.042   9.721  19.277  0.00  0.00    +0.000 C 
ATOM     13  O   UNL     1       1.656  10.789  19.274  0.00  0.00    +0.000 OA
ATOM     14  N   UNL     1      -0.314   9.641  19.387  0.00  0.00    +0.000 N 
ATOM     15  H   UNL     1      -0.752   8.723  19.326  0.00  0.00    +0.000 HD
BRANCH  14  16
ATOM     16  C   UNL     1      -1.214  10.780  19.454  0.00  0.00    +0.000 C 
BRANCH  16  17
ATOM     17  C   UNL     1      -2.196  10.821  18.304  0.00  0.00    +0.000 A 
ATOM     18  C   UNL     1      -1.842  10.112  17.128  0.00  0.00    +0.000 A 
ATOM     19  C   UNL     1      -2.661  10.069  16.002  0.00  0.00    +0.000 A 
ATOM     20  C   UNL     1      -3.866  10.748  16.014  0.00  0.00    +0.000 A 
ATOM     21  C   UNL     1      -4.239  11.457  17.155  0.00  0.00    +0.000 A 
ATOM     22  C   UNL     1      -3.417  11.520  18.297  0.00  0.00    +0.000 A 
BRANCH  22  23
ATOM     23  O   UNL     1      -4.024  12.219  19.303  0.00  0.00    +0.000 OA
ATOM     24  C   UNL     1      -5.435  12.340  19.339  0.00  0.00    +0.000 C 
ENDBRANCH  22  23
ENDBRANCH  16  17
ENDBRANCH  14  16
ENDBRANCH   4  12
BRANCH   5  25
ATOM     25  O   UNL     1       2.708   9.113  17.036  0.00  0.00    +0.000 OA
ATOM     26  H   UNL     1       3.126   9.940  17.388  0.00  0.00    +0.000 HD
ENDBRANCH   5  25
BRANCH   1  27
ATOM     27  C   UNL     1       2.251   5.121  21.059  0.00  0.00    +0.000 C 
BRANCH  27  29
ATOM     28  C   UNL     1       1.509   2.694  21.431  0.00  0.00    +0.000 C 
ATOM     29  C   UNL     1       1.232   4.018  20.739  0.00  0.00    +0.000 C 
ENDBRANCH  27  29
ENDBRANCH   1  27
TORSDOF 7
ENDMDL
MODEL 2
REMARK VINA RESULT:      -7.5      1.733      3.611
REMARK  Name = 
REMARK  9 active torsions:
REMARK  status: ('A' for Active; 'I' for Inactive)
REMARK    1  A    between atoms: C_1  and  C_2
REMARK    2  A    between atoms: C_2  and  C_3
REMARK    3  A    between atoms: C_3  and  N_4
REMARK    4  A    between atoms: C_7  and  C_8
REMARK    5  A    between atoms: N_10  and  C_11
REMARK    6  A    between atoms: C_11  and  C_12
REMARK    7  A    between atoms: C_17  and  O_18
REMARK    8  A    between atoms: O_18  and  C_19
REMARK    9  A    between atoms: C_20  and  O_21
REMARK                            x       y       z     vdW  Elec       q    Type
REMARK                         _______ _______ _______ _____ _____    ______ ____
ROOT
ATOM      1  N   UNL     1       3.909   5.636  17.589  0.00  0.00    +0.000 N 
ATOM      2  C   UNL     1       3.390   6.824  18.101  0.00  0.00    +0.000 A 
ATOM      3  O   UNL     1       3.697   7.926  17.637  0.00  0.00    +0.000 OA
ATOM      4  C   UNL     1       2.436   6.764  19.250  0.00  0.00    +0.000 A 
ATOM      5  C   UNL     1       2.077   5.562  19.757  0.00  0.00    +0.000 A 
ATOM      6  C   UNL     1       2.555   4.318  19.136  0.00  0.00    +0.000 A 
ATOM      7  C   UNL     1       2.053   3.072  19.560  0.00  0.00    +0.000 A 
ATOM      8  C   UNL     1       2.435   1.891  18.927  0.00  0.00    +0.000 A 
ATOM      9  C   UNL     1       3.361   1.938  17.893  0.00  0.00    +0.000 A 
ATOM     10  C   UNL     1       3.893   3.162  17.485  0.00  0.00    +0.000 A 
ATOM     11  C   UNL     1       3.473   4.367  18.071  0.00  0.00    +0.000 A 
ENDROOT
BRANCH   4  12
ATOM     12  C   UNL     1       1.829   8.000  19.859  0.00  0.00    +0.000 C 
ATOM     13  O   UNL     1       1.674   8.093  21.077  0.00  0.00    +0.000 OA
ATOM     14  N   UNL     1       1.472   8.983  18.985  0.00  0.00    +0.000 N 
ATOM     15  H   UNL     1       1.685   8.853  17.997  0.00  0.00    +0.000 HD
BRANCH  14  16
ATOM     16  C   UNL     1       0.926  10.276  19.362  0.00  0.00    +0.000 C 
BRANCH  16  17
ATOM     17  C   UNL     1      -0.450  10.522  18.786  0.00  0.00    +0.000 A 
ATOM     18  C   UNL     1      -0.810   9.779  17.633  0.00  0.00    +0.000 A 
ATOM     19  C   UNL     1      -2.048   9.912  17.010  0.00  0.00    +0.000 A 
ATOM     20  C   UNL     1      -2.971  10.809  17.520  0.00  0.00    +0.000 A 
ATOM     21  C   UNL     1      -2.644  11.555  18.650  0.00  0.00    +0.000 A 
ATOM     22  C   UNL     1      -1.392  11.441  19.285  0.00  0.00    +0.000 A 
BRANCH  22  23
ATOM     23  O   UNL     1      -1.333  12.226  20.404  0.00  0.00    +0.000 OA
ATOM     24  C   UNL     1      -2.522  12.613  21.069  0.00  0.00    +0.000 C 
ENDBRANCH  22  23
ENDBRANCH  16  17
ENDBRANCH  14  16
ENDBRANCH   4  12
BRANCH   5  25
ATOM     25  O   UNL     1       1.231   5.381  20.835  0.00  0.00    +0.000 OA
ATOM     26  H   UNL     1       1.324   6.158  21.443  0.00  0.00    +0.000 HD
ENDBRANCH   5  25
BRANCH   1  27
ATOM     27  C   UNL     1       4.852   5.733  16.465  0.00  0.00    +0.000 C 
BRANCH  27  29
ATOM     28  C   UNL     1       7.146   4.702  16.970  0.00  0.00    +0.000 C 
ATOM     29  C   UNL     1       6.313   5.969  16.876  0.00  0.00    +0.000 C 
ENDBRANCH  27  29
ENDBRANCH   1  27
TORSDOF 7
ENDMDL
MODEL 3
REMARK VINA RESULT:      -7.4      1.126      1.880
REMARK  Name = 
REMARK  9 active torsions:
REMARK  status: ('A' for Active; 'I' for Inactive)
REMARK    1  A    between atoms: C_1  and  C_2
REMARK    2  A    between atoms: C_2  and  C_3
REMARK    3  A    between atoms: C_3  and  N_4
REMARK    4  A    between atoms: C_7  and  C_8
REMARK    5  A    between atoms: N_10  and  C_11
REMARK    6  A    between atoms: C_11  and  C_12
REMARK    7  A    between atoms: C_17  and  O_18
REMARK    8  A    between atoms: O_18  and  C_19
REMARK    9  A    between atoms: C_20  and  O_21
REMARK                            x       y       z     vdW  Elec       q    Type
REMARK                         _______ _______ _______ _____ _____    ______ ____
ROOT
ATOM      1  N   UNL     1       2.187   6.460  19.926  0.00  0.00    +0.000 N 
ATOM      2  C   UNL     1       1.495   7.630  20.236  0.00  0.00    +0.000 A 
ATOM      3  O   UNL     1       0.834   7.744  21.272  0.00  0.00    +0.000 OA
ATOM      4  C   UNL     1       1.552   8.781  19.283  0.00  0.00    +0.000 A 
ATOM      5  C   UNL     1       2.288   8.676  18.153  0.00  0.00    +0.000 A 
ATOM      6  C   UNL     1       3.092   7.472  17.895  0.00  0.00    +0.000 A 
ATOM      7  C   UNL     1       3.981   7.430  16.804  0.00  0.00    +0.000 A 
ATOM      8  C   UNL     1       4.808   6.329  16.594  0.00  0.00    +0.000 A 
ATOM      9  C   UNL     1       4.721   5.236  17.447  0.00  0.00    +0.000 A 
ATOM     10  C   UNL     1       3.820   5.249  18.512  0.00  0.00    +0.000 A 
ATOM     11  C   UNL     1       3.023   6.376  18.774  0.00  0.00    +0.000 A 
ENDROOT
BRANCH   4  12
ATOM     12  C   UNL     1       0.836  10.079  19.545  0.00  0.00    +0.000 C 
ATOM     13  O   UNL     1       0.962  10.665  20.621  0.00  0.00    +0.000 OA
ATOM     14  N   UNL     1       0.056  10.546  18.529  0.00  0.00    +0.000 N 
ATOM     15  H   UNL     1       0.047  10.033  17.650  0.00  0.00    +0.000 HD
BRANCH  14  16
ATOM     16  C   UNL     1      -0.672  11.803  18.548  0.00  0.00    +0.000 C 
BRANCH  16  17
ATOM     17  C   UNL     1      -2.171  11.615  18.459  0.00  0.00    +0.000 A 
ATOM     18  C   UNL     1      -2.964  12.290  19.422  0.00  0.00    +0.000 A 
ATOM     19  C   UNL     1      -4.353  12.201  19.446  0.00  0.00    +0.000 A 
ATOM     20  C   UNL     1      -4.998  11.419  18.504  0.00  0.00    +0.000 A 
ATOM     21  C   UNL     1      -4.245  10.741  17.547  0.00  0.00    +0.000 A 
ATOM     22  C   UNL     1      -2.838  10.812  17.517  0.00  0.00    +0.000 A 
BRANCH  22  23
ATOM     23  O   UNL     1      -2.333  10.116  16.454  0.00  0.00    +0.000 OA
ATOM     24  C   UNL     1      -2.797  10.379  15.141  0.00  0.00    +0.000 C 
ENDBRANCH  22  23
ENDBRANCH  16  17
ENDBRANCH  14  16
ENDBRANCH   4  12
BRANCH   5  25
ATOM     25  O   UNL     1       2.390   9.656  17.184  0.00  0.00    +0.000 OA
ATOM     26  H   UNL     1       1.812   9.406  16.419  0.00  0.00    +0.000 HD
ENDBRANCH   5  25
BRANCH   1  27
ATOM     27  C   UNL     1       2.101   5.344  20.879  0.00  0.00    +0.000 C 
BRANCH  27  29
ATOM     28  C   UNL     1       1.318   2.914  21.122  0.00  0.00    +0.000 C 
ATOM     29  C   UNL     1       1.043   4.287  20.532  0.00  0.00    +0.000 C 
ENDBRANCH  27  29
ENDBRANCH   1  27
TORSDOF 7
ENDMDL
MODEL 4
REMARK VINA RESULT:      -7.3      2.381      8.271
REMARK  Name = 
REMARK  9 active torsions:
REMARK  status: ('A' for Active; 'I' for Inactive)
REMARK    1  A    between atoms: C_1  and  C_2
REMARK    2  A    between atoms: C_2  and  C_3
REMARK    3  A    between atoms: C_3  and  N_4
REMARK    4  A    between atoms: C_7  and  C_8
REMARK    5  A    between atoms: N_10  and  C_11
REMARK    6  A    between atoms: C_11  and  C_12
REMARK    7  A    between atoms: C_17  and  O_18
REMARK    8  A    between atoms: O_18  and  C_19
REMARK    9  A    between atoms: C_20  and  O_21
REMARK                            x       y       z     vdW  Elec       q    Type
REMARK                         _______ _______ _______ _____ _____    ______ ____
ROOT
ATOM      1  N   UNL     1       0.583  10.327  19.189  0.00  0.00    +0.000 N 
ATOM      2  C   UNL     1       1.342   9.437  18.431  0.00  0.00    +0.000 A 
ATOM      3  O   UNL     1       1.660   9.678  17.263  0.00  0.00    +0.000 OA
ATOM      4  C   UNL     1       1.781   8.148  19.049  0.00  0.00    +0.000 A 
ATOM      5  C   UNL     1       1.454   7.879  20.334  0.00  0.00    +0.000 A 
ATOM      6  C   UNL     1       0.743   8.876  21.147  0.00  0.00    +0.000 A 
ATOM      7  C   UNL     1       0.548   8.662  22.525  0.00  0.00    +0.000 A 
ATOM      8  C   UNL     1      -0.052   9.632  23.325  0.00  0.00    +0.000 A 
ATOM      9  C   UNL     1      -0.508  10.809  22.745  0.00  0.00    +0.000 A 
ATOM     10  C   UNL     1      -0.353  11.020  21.375  0.00  0.00    +0.000 A 
ATOM     11  C   UNL     1       0.304  10.079  20.566  0.00  0.00    +0.000 A 
ENDROOT
BRANCH   4  12
ATOM     12  C   UNL     1       2.604   7.134  18.299  0.00  0.00    +0.000 C 
ATOM     13  O   UNL     1       2.346   5.932  18.373  0.00  0.00    +0.000 OA
ATOM     14  N   UNL     1       3.630   7.633  17.553  0.00  0.00    +0.000 N 
ATOM     15  H   UNL     1       3.744   8.643  17.500  0.00  0.00    +0.000 HD
BRANCH  14  16
ATOM     16  C   UNL     1       4.508   6.840  16.709  0.00  0.00    +0.000 C 
BRANCH  16  17
ATOM     17  C   UNL     1       5.761   6.388  17.427  0.00  0.00    +0.000 A 
ATOM     18  C   UNL     1       6.806   7.338  17.561  0.00  0.00    +0.000 A 
ATOM     19  C   UNL     1       8.007   7.047  18.202  0.00  0.00    +0.000 A 
ATOM     20  C   UNL     1       8.206   5.782  18.726  0.00  0.00    +0.000 A 
ATOM     21  C   UNL     1       7.199   4.826  18.607  0.00  0.00    +0.000 A 
ATOM     22  C   UNL     1       5.983   5.102  17.950  0.00  0.00    +0.000 A 
BRANCH  22  23
ATOM     23  O   UNL     1       5.134   4.031  18.017  0.00  0.00    +0.000 OA
ATOM     24  C   UNL     1       4.604   3.616  19.263  0.00  0.00    +0.000 C 
ENDBRANCH  22  23
ENDBRANCH  16  17
ENDBRANCH  14  16
ENDBRANCH   4  12
BRANCH   5  25
ATOM     25  O   UNL     1       1.774   6.711  21.001  0.00  0.00    +0.000 OA
ATOM     26  H   UNL     1       0.940   6.200  21.161  0.00  0.00    +0.000 HD
ENDBRANCH   5  25
BRANCH   1  27
ATOM     27  C   UNL     1       0.160  11.580  18.547  0.00  0.00    +0.000 C 
BRANCH  27  29
ATOM     28  C   UNL     1      -1.863  10.341  17.572  0.00  0.00    +0.000 C 
ATOM     29  C   UNL     1      -1.326  11.632  18.167  0.00  0.00    +0.000 C 
ENDBRANCH  27  29
ENDBRANCH   1  27
TORSDOF 7
ENDMDL
MODEL 5
REMARK VINA RESULT:      -7.3      1.521      1.909
REMARK  Name = 
REMARK  9 active torsions:
REMARK  status: ('A' for Active; 'I' for Inactive)
REMARK    1  A    between atoms: C_1  and  C_2
REMARK    2  A    between atoms: C_2  and  C_3
REMARK    3  A    between atoms: C_3  and  N_4
REMARK    4  A    between atoms: C_7  and  C_8
REMARK    5  A    between atoms: N_10  and  C_11
REMARK    6  A    between atoms: C_11  and  C_12
REMARK    7  A    between atoms: C_17  and  O_18
REMARK    8  A    between atoms: O_18  and  C_19
REMARK    9  A    between atoms: C_20  and  O_21
REMARK                            x       y       z     vdW  Elec       q    Type
REMARK                         _______ _______ _______ _____ _____    ______ ____
ROOT
ATOM      1  N   UNL     1       3.088   4.574  19.032  0.00  0.00    +0.000 N 
ATOM      2  C   UNL     1       2.400   5.536  19.769  0.00  0.00    +0.000 A 
ATOM      3  O   UNL     1       1.777   5.252  20.796  0.00  0.00    +0.000 OA
ATOM      4  C   UNL     1       2.412   6.956  19.300  0.00  0.00    +0.000 A 
ATOM      5  C   UNL     1       3.105   7.284  18.187  0.00  0.00    +0.000 A 
ATOM      6  C   UNL     1       3.908   6.274  17.482  0.00  0.00    +0.000 A 
ATOM      7  C   UNL     1       4.756   6.651  16.423  0.00  0.00    +0.000 A 
ATOM      8  C   UNL     1       5.583   5.719  15.799  0.00  0.00    +0.000 A 
ATOM      9  C   UNL     1       5.537   4.389  16.197  0.00  0.00    +0.000 A 
ATOM     10  C   UNL     1       4.676   3.995  17.222  0.00  0.00    +0.000 A 
ATOM     11  C   UNL     1       3.881   4.932  17.902  0.00  0.00    +0.000 A 
ENDROOT
BRANCH   4  12
ATOM     12  C   UNL     1       1.697   8.054  20.040  0.00  0.00    +0.000 C 
ATOM     13  O   UNL     1       1.758   8.134  21.268  0.00  0.00    +0.000 OA
ATOM     14  N   UNL     1       0.993   8.933  19.271  0.00  0.00    +0.000 N 
ATOM     15  H   UNL     1       1.037   8.833  18.258  0.00  0.00    +0.000 HD
BRANCH  14  16
ATOM     16  C   UNL     1       0.281  10.096  19.773  0.00  0.00    +0.000 C 
BRANCH  16  17
ATOM     17  C   UNL     1      -0.889  10.490  18.899  0.00  0.00    +0.000 A 
ATOM     18  C   UNL     1      -1.080   9.752  17.703  0.00  0.00    +0.000 A 
ATOM     19  C   UNL     1      -2.121  10.014  16.817  0.00  0.00    +0.000 A 
ATOM     20  C   UNL     1      -3.007  11.039  17.097  0.00  0.00    +0.000 A 
ATOM     21  C   UNL     1      -2.844  11.784  18.263  0.00  0.00    +0.000 A 
ATOM     22  C   UNL     1      -1.789  11.538  19.164  0.00  0.00    +0.000 A 
BRANCH  22  23
ATOM     23  O   UNL     1      -1.877  12.354  20.258  0.00  0.00    +0.000 OA
ATOM     24  C   UNL     1      -3.143  12.742  20.762  0.00  0.00    +0.000 C 
ENDBRANCH  22  23
ENDBRANCH  16  17
ENDBRANCH  14  16
ENDBRANCH   4  12
BRANCH   5  25
ATOM     25  O   UNL     1       3.164   8.552  17.639  0.00  0.00    +0.000 OA
ATOM     26  H   UNL     1       3.624   9.152  18.279  0.00  0.00    +0.000 HD
ENDBRANCH   5  25
BRANCH   1  27
ATOM     27  C   UNL     1       3.046   3.186  19.516  0.00  0.00    +0.000 C 
BRANCH  27  29
ATOM     28  C   UNL     1       0.671   2.478  18.855  0.00  0.00    +0.000 C 
ATOM     29  C   UNL     1       2.163   2.246  18.683  0.00  0.00    +0.000 C 
ENDBRANCH  27  29
ENDBRANCH   1  27
TORSDOF 7
ENDMDL
MODEL 6
REMARK VINA RESULT:      -7.2      2.272      8.104
REMARK  Name = 
REMARK  9 active torsions:
REMARK  status: ('A' for Active; 'I' for Inactive)
REMARK    1  A    between atoms: C_1  and  C_2
REMARK    2  A    between atoms: C_2  and  C_3
REMARK    3  A    between atoms: C_3  and  N_4
REMARK    4  A    between atoms: C_7  and  C_8
REMARK    5  A    between atoms: N_10  and  C_11
REMARK    6  A    between atoms: C_11  and  C_12
REMARK    7  A    between atoms: C_17  and  O_18
REMARK    8  A    between atoms: O_18  and  C_19
REMARK    9  A    between atoms: C_20  and  O_21
REMARK                            x       y       z     vdW  Elec       q    Type
REMARK                         _______ _______ _______ _____ _____    ______ ____
ROOT
ATOM      1  N   UNL     1      -1.255  11.287  19.512  0.00  0.00    +0.000 N 
ATOM      2  C   UNL     1      -0.253  10.351  19.764  0.00  0.00    +0.000 A 
ATOM      3  O   UNL     1       0.354   9.781  18.853  0.00  0.00    +0.000 OA
ATOM      4  C   UNL     1       0.095  10.024  21.181  0.00  0.00    +0.000 A 
ATOM      5  C   UNL     1      -0.549  10.655  22.189  0.00  0.00    +0.000 A 
ATOM      6  C   UNL     1      -1.529  11.712  21.902  0.00  0.00    +0.000 A 
ATOM      7  C   UNL     1      -2.078  12.478  22.949  0.00  0.00    +0.000 A 
ATOM      8  C   UNL     1      -2.945  13.536  22.686  0.00  0.00    +0.000 A 
ATOM      9  C   UNL     1      -3.312  13.810  21.375  0.00  0.00    +0.000 A 
ATOM     10  C   UNL     1      -2.804  13.038  20.330  0.00  0.00    +0.000 A 
ATOM     11  C   UNL     1      -1.881  12.007  20.572  0.00  0.00    +0.000 A 
ENDROOT
BRANCH   4  12
ATOM     12  C   UNL     1       1.166   9.027  21.538  0.00  0.00    +0.000 C 
ATOM     13  O   UNL     1       1.924   9.227  22.487  0.00  0.00    +0.000 OA
ATOM     14  N   UNL     1       1.233   7.916  20.750  0.00  0.00    +0.000 N 
ATOM     15  H   UNL     1       0.535   7.798  20.019  0.00  0.00    +0.000 HD
BRANCH  14  16
ATOM     16  C   UNL     1       2.149   6.806  20.953  0.00  0.00    +0.000 C 
BRANCH  16  17
ATOM     17  C   UNL     1       1.896   5.656  20.004  0.00  0.00    +0.000 A 
ATOM     18  C   UNL     1       1.266   4.504  20.540  0.00  0.00    +0.000 A 
ATOM     19  C   UNL     1       0.976   3.380  19.771  0.00  0.00    +0.000 A 
ATOM     20  C   UNL     1       1.318   3.370  18.430  0.00  0.00    +0.000 A 
ATOM     21  C   UNL     1       1.941   4.486  17.876  0.00  0.00    +0.000 A 
ATOM     22  C   UNL     1       2.252   5.626  18.643  0.00  0.00    +0.000 A 
BRANCH  22  23
ATOM     23  O   UNL     1       2.800   6.608  17.866  0.00  0.00    +0.000 OA
ATOM     24  C   UNL     1       4.178   6.573  17.535  0.00  0.00    +0.000 C 
ENDBRANCH  22  23
ENDBRANCH  16  17
ENDBRANCH  14  16
ENDBRANCH   4  12
BRANCH   5  25
ATOM     25  O   UNL     1      -0.338  10.413  23.534  0.00  0.00    +0.000 OA
ATOM     26  H   UNL     1      -0.719   9.527  23.759  0.00  0.00    +0.000 HD
ENDBRANCH   5  25
BRANCH   1  27
ATOM     27  C   UNL     1      -1.579  11.577  18.108  0.00  0.00    +0.000 C 
BRANCH  27  29
ATOM     28  C   UNL     1      -3.887  11.397  17.003  0.00  0.00    +0.000 C 
ATOM     29  C   UNL     1      -2.652  10.664  17.498  0.00  0.00    +0.000 C 
ENDBRANCH  27  29
ENDBRANCH   1  27
TORSDOF 7
ENDMDL
MODEL 7
REMARK VINA RESULT:      -7.2      2.065      4.487
REMARK  Name = 
REMARK  9 active torsions:
REMARK  status: ('A' for Active; 'I' for Inactive)
REMARK    1  A    between atoms: C_1  and  C_2
REMARK    2  A    between atoms: C_2  and  C_3
REMARK    3  A    between atoms: C_3  and  N_4
REMARK    4  A    between atoms: C_7  and  C_8
REMARK    5  A    between atoms: N_10  and  C_11
REMARK    6  A    between atoms: C_11  and  C_12
REMARK    7  A    between atoms: C_17  and  O_18
REMARK    8  A    between atoms: O_18  and  C_19
REMARK    9  A    between atoms: C_20  and  O_21
REMARK                            x       y       z     vdW  Elec       q    Type
REMARK                         _______ _______ _______ _____ _____    ______ ____
ROOT
ATOM      1  N   UNL     1       4.491   5.301  18.359  0.00  0.00    +0.000 N 
ATOM      2  C   UNL     1       3.893   6.516  18.028  0.00  0.00    +0.000 A 
ATOM      3  O   UNL     1       4.309   7.220  17.103  0.00  0.00    +0.000 OA
ATOM      4  C   UNL     1       2.714   6.984  18.820  0.00  0.00    +0.000 A 
ATOM      5  C   UNL     1       2.237   6.214  19.824  0.00  0.00    +0.000 A 
ATOM      6  C   UNL     1       2.818   4.889  20.090  0.00  0.00    +0.000 A 
ATOM      7  C   UNL     1       2.218   4.023  21.024  0.00  0.00    +0.000 A 
ATOM      8  C   UNL     1       2.709   2.735  21.227  0.00  0.00    +0.000 A 
ATOM      9  C   UNL     1       3.835   2.315  20.532  0.00  0.00    +0.000 A 
ATOM     10  C   UNL     1       4.461   3.175  19.628  0.00  0.00    +0.000 A 
ATOM     11  C   UNL     1       3.943   4.454  19.367  0.00  0.00    +0.000 A 
ENDROOT
BRANCH   4  12
ATOM     12  C   UNL     1       2.010   8.281  18.525  0.00  0.00    +0.000 C 
ATOM     13  O   UNL     1       1.758   8.615  17.367  0.00  0.00    +0.000 OA
ATOM     14  N   UNL     1       1.681   9.041  19.609  0.00  0.00    +0.000 N 
ATOM     15  H   UNL     1       1.873   8.670  20.537  0.00  0.00    +0.000 HD
BRANCH  14  16
ATOM     16  C   UNL     1       0.948  10.295  19.555  0.00  0.00    +0.000 C 
BRANCH  16  17
ATOM     17  C   UNL     1       0.131  10.551  20.802  0.00  0.00    +0.000 A 
ATOM     18  C   UNL     1       0.359   9.697  21.910  0.00  0.00    +0.000 A 
ATOM     19  C   UNL     1      -0.325   9.830  23.115  0.00  0.00    +0.000 A 
ATOM     20  C   UNL     1      -1.276  10.827  23.247  0.00  0.00    +0.000 A 
ATOM     21  C   UNL     1      -1.525  11.680  22.174  0.00  0.00    +0.000 A 
ATOM     22  C   UNL     1      -0.849  11.550  20.945  0.00  0.00    +0.000 A 
BRANCH  22  23
ATOM     23  O   UNL     1      -1.219  12.537  20.073  0.00  0.00    +0.000 OA
ATOM     24  C   UNL     1      -2.165  12.273  19.053  0.00  0.00    +0.000 C 
ENDBRANCH  22  23
ENDBRANCH  16  17
ENDBRANCH  14  16
ENDBRANCH   4  12
BRANCH   5  25
ATOM     25  O   UNL     1       1.177   6.554  20.645  0.00  0.00    +0.000 OA
ATOM     26  H   UNL     1       1.126   5.897  21.384  0.00  0.00    +0.000 HD
ENDBRANCH   5  25
BRANCH   1  27
ATOM     27  C   UNL     1       5.655   4.877  17.567  0.00  0.00    +0.000 C 
BRANCH  27  29
ATOM     28  C   UNL     1       7.584   6.536  17.891  0.00  0.00    +0.000 C 
ATOM     29  C   UNL     1       7.013   5.167  18.221  0.00  0.00    +0.000 C 
ENDBRANCH  27  29
ENDBRANCH   1  27
TORSDOF 7
ENDMDL
MODEL 8
REMARK VINA RESULT:      -7.2      3.474      5.668
REMARK  Name = 
REMARK  9 active torsions:
REMARK  status: ('A' for Active; 'I' for Inactive)
REMARK    1  A    between atoms: C_1  and  C_2
REMARK    2  A    between atoms: C_2  and  C_3
REMARK    3  A    between atoms: C_3  and  N_4
REMARK    4  A    between atoms: C_7  and  C_8
REMARK    5  A    between atoms: N_10  and  C_11
REMARK    6  A    between atoms: C_11  and  C_12
REMARK    7  A    between atoms: C_17  and  O_18
REMARK    8  A    between atoms: O_18  and  C_19
REMARK    9  A    between atoms: C_20  and  O_21
REMARK                            x       y       z     vdW  Elec       q    Type
REMARK                         _______ _______ _______ _____ _____    ______ ____
ROOT
ATOM      1  N   UNL     1       6.529   5.047  17.975  0.00  0.00    +0.000 N 
ATOM      2  C   UNL     1       5.514   5.138  18.926  0.00  0.00    +0.000 A 
ATOM      3  O   UNL     1       5.729   5.534  20.075  0.00  0.00    +0.000 OA
ATOM      4  C   UNL     1       4.125   4.738  18.547  0.00  0.00    +0.000 A 
ATOM      5  C   UNL     1       3.872   4.319  17.286  0.00  0.00    +0.000 A 
ATOM      6  C   UNL     1       4.934   4.329  16.269  0.00  0.00    +0.000 A 
ATOM      7  C   UNL     1       4.633   4.049  14.923  0.00  0.00    +0.000 A 
ATOM      8  C   UNL     1       5.613   4.134  13.935  0.00  0.00    +0.000 A 
ATOM      9  C   UNL     1       6.917   4.453  14.292  0.00  0.00    +0.000 A 
ATOM     10  C   UNL     1       7.237   4.700  15.627  0.00  0.00    +0.000 A 
ATOM     11  C   UNL     1       6.249   4.678  16.626  0.00  0.00    +0.000 A 
ENDROOT
BRANCH   4  12
ATOM     12  C   UNL     1       2.973   4.809  19.514  0.00  0.00    +0.000 C 
ATOM     13  O   UNL     1       2.376   3.790  19.861  0.00  0.00    +0.000 OA
ATOM     14  N   UNL     1       2.649   6.054  19.966  0.00  0.00    +0.000 N 
ATOM     15  H   UNL     1       3.227   6.840  19.676  0.00  0.00    +0.000 HD
BRANCH  14  16
ATOM     16  C   UNL     1       1.614   6.341  20.945  0.00  0.00    +0.000 C 
BRANCH  16  17
ATOM     17  C   UNL     1       1.162   7.784  20.915  0.00  0.00    +0.000 A 
ATOM     18  C   UNL     1       0.433   8.256  22.036  0.00  0.00    +0.000 A 
ATOM     19  C   UNL     1      -0.036   9.563  22.131  0.00  0.00    +0.000 A 
ATOM     20  C   UNL     1       0.202  10.446  21.093  0.00  0.00    +0.000 A 
ATOM     21  C   UNL     1       0.912  10.011  19.976  0.00  0.00    +0.000 A 
ATOM     22  C   UNL     1       1.384   8.688  19.860  0.00  0.00    +0.000 A 
BRANCH  22  23
ATOM     23  O   UNL     1       2.102   8.520  18.708  0.00  0.00    +0.000 OA
ATOM     24  C   UNL     1       2.024   9.482  17.670  0.00  0.00    +0.000 C 
ENDBRANCH  22  23
ENDBRANCH  16  17
ENDBRANCH  14  16
ENDBRANCH   4  12
BRANCH   5  25
ATOM     25  O   UNL     1       2.639   3.894  16.827  0.00  0.00    +0.000 OA
ATOM     26  H   UNL     1       2.779   3.305  16.043  0.00  0.00    +0.000 HD
ENDBRANCH   5  25
BRANCH   1  27
ATOM     27  C   UNL     1       7.885   5.438  18.385  0.00  0.00    +0.000 C 
BRANCH  27  29
ATOM     28  C   UNL     1       7.704   7.831  17.481  0.00  0.00    +0.000 C 
ATOM     29  C   UNL     1       8.063   6.938  18.657  0.00  0.00    +0.000 C 
ENDBRANCH  27  29
ENDBRANCH   1  27
TORSDOF 7
ENDMDL
MODEL 9
REMARK VINA RESULT:      -7.2      3.047      8.386
REMARK  Name = 
REMARK  9 active torsions:
REMARK  status: ('A' for Active; 'I' for Inactive)
REMARK    1  A    between atoms: C_1  and  C_2
REMARK    2  A    between atoms: C_2  and  C_3
REMARK    3  A    between atoms: C_3  and  N_4
REMARK    4  A    between atoms: C_7  and  C_8
REMARK    5  A    between atoms: N_10  and  C_11
REMARK    6  A    between atoms: C_11  and  C_12
REMARK    7  A    between atoms: C_17  and  O_18
REMARK    8  A    between atoms: O_18  and  C_19
REMARK    9  A    between atoms: C_20  and  O_21
REMARK                            x       y       z     vdW  Elec       q    Type
REMARK                         _______ _______ _______ _____ _____    ______ ____
ROOT
ATOM      1  N   UNL     1       0.610  10.668  19.259  0.00  0.00    +0.000 N 
ATOM      2  C   UNL     1       1.370   9.709  18.593  0.00  0.00    +0.000 A 
ATOM      3  O   UNL     1       1.823   9.903  17.461  0.00  0.00    +0.000 OA
ATOM      4  C   UNL     1       1.641   8.401  19.266  0.00  0.00    +0.000 A 
ATOM      5  C   UNL     1       1.166   8.182  20.513  0.00  0.00    +0.000 A 
ATOM      6  C   UNL     1       0.456   9.246  21.238  0.00  0.00    +0.000 A 
ATOM      7  C   UNL     1       0.106   9.073  22.591  0.00  0.00    +0.000 A 
ATOM      8  C   UNL     1      -0.495  10.102  23.314  0.00  0.00    +0.000 A 
ATOM      9  C   UNL     1      -0.795  11.299  22.679  0.00  0.00    +0.000 A 
ATOM     10  C   UNL     1      -0.486  11.472  21.329  0.00  0.00    +0.000 A 
ATOM     11  C   UNL     1       0.174  10.468  20.602  0.00  0.00    +0.000 A 
ENDROOT
BRANCH   4  12
ATOM     12  C   UNL     1       2.453   7.313  18.615  0.00  0.00    +0.000 C 
ATOM     13  O   UNL     1       2.188   6.126  18.806  0.00  0.00    +0.000 OA
ATOM     14  N   UNL     1       3.480   7.730  17.820  0.00  0.00    +0.000 N 
ATOM     15  H   UNL     1       3.600   8.729  17.668  0.00  0.00    +0.000 HD
BRANCH  14  16
ATOM     16  C   UNL     1       4.349   6.852  17.054  0.00  0.00    +0.000 C 
BRANCH  16  17
ATOM     17  C   UNL     1       5.641   6.532  17.773  0.00  0.00    +0.000 A 
ATOM     18  C   UNL     1       6.765   7.342  17.472  0.00  0.00    +0.000 A 
ATOM     19  C   UNL     1       8.009   7.152  18.068  0.00  0.00    +0.000 A 
ATOM     20  C   UNL     1       8.172   6.129  18.985  0.00  0.00    +0.000 A 
ATOM     21  C   UNL     1       7.086   5.314  19.298  0.00  0.00    +0.000 A 
ATOM     22  C   UNL     1       5.824   5.486  18.696  0.00  0.00    +0.000 A 
BRANCH  22  23
ATOM     23  O   UNL     1       4.909   4.609  19.210  0.00  0.00    +0.000 OA
ATOM     24  C   UNL     1       4.486   3.491  18.450  0.00  0.00    +0.000 C 
ENDBRANCH  22  23
ENDBRANCH  16  17
ENDBRANCH  14  16
ENDBRANCH   4  12
BRANCH   5  25
ATOM     25  O   UNL     1       1.323   7.006  21.222  0.00  0.00    +0.000 OA
ATOM     26  H   UNL     1       2.165   7.059  21.740  0.00  0.00    +0.000 HD
ENDBRANCH   5  25
BRANCH   1  27
ATOM     27  C   UNL     1       0.354  11.938  18.564  0.00  0.00    +0.000 C 
BRANCH  27  29
ATOM     28  C   UNL     1       1.905  13.650  19.680  0.00  0.00    +0.000 C 
ATOM     29  C   UNL     1       1.581  12.851  18.429  0.00  0.00    +0.000 C 
ENDBRANCH  27  29
ENDBRANCH   1  27
TORSDOF 7
ENDMDL
