MODEL 1
REMARK VINA RESULT:      -6.5      0.000      0.000
REMARK  Name = 
REMARK  2 active torsions:
REMARK  status: ('A' for Active; 'I' for Inactive)
REMARK    1  A    between atoms: N_2  and  C_10
REMARK    2  A    between atoms: C_3  and  C_4
REMARK                            x       y       z     vdW  Elec       q    Type
REMARK                         _______ _______ _______ _____ _____    ______ ____
ROOT
ATOM      1  O   UNL     1       6.092   4.488  19.080  0.00  0.00    +0.000 OA
ATOM      2  N   UNL     1       5.309   4.311  18.088  0.00  0.00    +0.000 N 
ATOM      3  C   UNL     1       4.065   3.909  18.232  0.00  0.00    +0.000 C 
ENDROOT
BRANCH   2   4
ATOM      4  C   UNL     1       5.844   4.504  16.742  0.00  0.00    +0.000 A 
ATOM      5  C   UNL     1       5.036   4.137  15.655  0.00  0.00    +0.000 A 
ATOM      6  C   UNL     1       5.528   4.238  14.353  0.00  0.00    +0.000 A 
ATOM      7  C   UNL     1       6.825   4.700  14.139  0.00  0.00    +0.000 A 
ATOM      8 CL   UNL     1       7.435   4.808  12.534  0.00  0.00    +0.000 Cl
ATOM      9  C   UNL     1       7.635   5.061  15.214  0.00  0.00    +0.000 A 
ATOM     10  C   UNL     1       7.151   4.957  16.522  0.00  0.00    +0.000 A 
ENDBRANCH   2   4
BRANCH   3  11
ATOM     11  C   UNL     1       3.412   3.680  19.532  0.00  0.00    +0.000 A 
ATOM     12  C   UNL     1       3.492   2.479  20.231  0.00  0.00    +0.000 A 
ATOM     13  C   UNL     1       2.819   2.377  21.435  0.00  0.00    +0.000 A 
ATOM     14  N   UNL     1       2.105   3.384  21.983  0.00  0.00    +0.000 NA
ATOM     15  C   UNL     1       2.065   4.544  21.297  0.00  0.00    +0.000 A 
ATOM     16  C   UNL     1       2.702   4.747  20.084  0.00  0.00    +0.000 A 
ENDBRANCH   3  11
TORSDOF 2
ENDMDL
MODEL 2
REMARK VINA RESULT:      -6.3      0.725      1.401
REMARK  Name = 
REMARK  2 active torsions:
REMARK  status: ('A' for Active; 'I' for Inactive)
REMARK    1  A    between atoms: N_2  and  C_10
REMARK    2  A    between atoms: C_3  and  C_4
REMARK                            x       y       z     vdW  Elec       q    Type
REMARK                         _______ _______ _______ _____ _____    ______ ____
ROOT
ATOM      1  O   UNL     1       5.647   3.848  18.860  0.00  0.00    +0.000 OA
ATOM      2  N   UNL     1       4.951   4.010  17.803  0.00  0.00    +0.000 N 
ATOM      3  C   UNL     1       3.639   3.926  17.800  0.00  0.00    +0.000 C 
ENDROOT
BRANCH   2   4
ATOM      4  C   UNL     1       5.653   4.233  16.540  0.00  0.00    +0.000 A 
ATOM      5  C   UNL     1       6.920   4.833  16.589  0.00  0.00    +0.000 A 
ATOM      6  C   UNL     1       7.600   5.130  15.408  0.00  0.00    +0.000 A 
ATOM      7  C   UNL     1       7.013   4.831  14.180  0.00  0.00    +0.000 A 
ATOM      8 CL   UNL     1       7.844   5.212  12.723  0.00  0.00    +0.000 Cl
ATOM      9  C   UNL     1       5.751   4.239  14.123  0.00  0.00    +0.000 A 
ATOM     10  C   UNL     1       5.061   3.944  15.303  0.00  0.00    +0.000 A 
ENDBRANCH   2   4
BRANCH   3  11
ATOM     11  C   UNL     1       2.819   3.705  19.004  0.00  0.00    +0.000 A 
ATOM     12  C   UNL     1       2.471   2.443  19.474  0.00  0.00    +0.000 A 
ATOM     13  C   UNL     1       1.679   2.362  20.606  0.00  0.00    +0.000 A 
ATOM     14  N   UNL     1       1.243   3.438  21.295  0.00  0.00    +0.000 NA
ATOM     15  C   UNL     1       1.615   4.649  20.831  0.00  0.00    +0.000 A 
ATOM     16  C   UNL     1       2.403   4.836  19.707  0.00  0.00    +0.000 A 
ENDBRANCH   3  11
TORSDOF 2
ENDMDL
MODEL 3
REMARK VINA RESULT:      -6.3      0.818      1.842
REMARK  Name = 
REMARK  2 active torsions:
REMARK  status: ('A' for Active; 'I' for Inactive)
REMARK    1  A    between atoms: N_2  and  C_10
REMARK    2  A    between atoms: C_3  and  C_4
REMARK                            x       y       z     vdW  Elec       q    Type
REMARK                         _______ _______ _______ _____ _____    ______ ____
ROOT
ATOM      1  O   UNL     1       5.556   4.012  18.857  0.00  0.00    +0.000 OA
ATOM      2  N   UNL     1       4.890   4.117  17.773  0.00  0.00    +0.000 N 
ATOM      3  C   UNL     1       3.581   4.000  17.734  0.00  0.00    +0.000 C 
ENDROOT
BRANCH   2   4
ATOM      4  C   UNL     1       5.625   4.310  16.525  0.00  0.00    +0.000 A 
ATOM      5  C   UNL     1       6.878   4.940  16.590  0.00  0.00    +0.000 A 
ATOM      6  C   UNL     1       7.587   5.210  15.420  0.00  0.00    +0.000 A 
ATOM      7  C   UNL     1       7.045   4.854  14.187  0.00  0.00    +0.000 A 
ATOM      8 CL   UNL     1       7.913   5.201  12.743  0.00  0.00    +0.000 Cl
ATOM      9  C   UNL     1       5.799   4.232  14.114  0.00  0.00    +0.000 A 
ATOM     10  C   UNL     1       5.079   3.964  15.283  0.00  0.00    +0.000 A 
ENDBRANCH   2   4
BRANCH   3  11
ATOM     11  C   UNL     1       2.729   3.804  18.920  0.00  0.00    +0.000 A 
ATOM     12  C   UNL     1       2.233   4.851  19.691  0.00  0.00    +0.000 A 
ATOM     13  C   UNL     1       1.458   4.540  20.794  0.00  0.00    +0.000 A 
ATOM     14  N   UNL     1       1.136   3.279  21.154  0.00  0.00    +0.000 NA
ATOM     15  C   UNL     1       1.609   2.285  20.374  0.00  0.00    +0.000 A 
ATOM     16  C   UNL     1       2.393   2.491  19.251  0.00  0.00    +0.000 A 
ENDBRANCH   3  11
TORSDOF 2
ENDMDL
MODEL 4
REMARK VINA RESULT:      -6.3      0.765      1.241
REMARK  Name = 
REMARK  2 active torsions:
REMARK  status: ('A' for Active; 'I' for Inactive)
REMARK    1  A    between atoms: N_2  and  C_10
REMARK    2  A    between atoms: C_3  and  C_4
REMARK                            x       y       z     vdW  Elec       q    Type
REMARK                         _______ _______ _______ _____ _____    ______ ____
ROOT
ATOM      1  O   UNL     1       5.716   3.695  18.915  0.00  0.00    +0.000 OA
ATOM      2  N   UNL     1       5.009   4.072  17.922  0.00  0.00    +0.000 N 
ATOM      3  C   UNL     1       3.696   4.125  17.967  0.00  0.00    +0.000 C 
ENDROOT
BRANCH   2   4
ATOM      4  C   UNL     1       5.691   4.395  16.670  0.00  0.00    +0.000 A 
ATOM      5  C   UNL     1       5.020   4.129  15.467  0.00  0.00    +0.000 A 
ATOM      6  C   UNL     1       5.655   4.356  14.246  0.00  0.00    +0.000 A 
ATOM      7  C   UNL     1       6.960   4.844  14.227  0.00  0.00    +0.000 A 
ATOM      8 CL   UNL     1       7.749   5.108  12.721  0.00  0.00    +0.000 Cl
ATOM      9  C   UNL     1       7.635   5.106  15.419  0.00  0.00    +0.000 A 
ATOM     10  C   UNL     1       7.007   4.875  16.647  0.00  0.00    +0.000 A 
ENDBRANCH   2   4
BRANCH   3  11
ATOM     11  C   UNL     1       2.894   3.824  19.166  0.00  0.00    +0.000 A 
ATOM     12  C   UNL     1       2.804   4.676  20.263  0.00  0.00    +0.000 A 
ATOM     13  C   UNL     1       2.034   4.275  21.340  0.00  0.00    +0.000 A 
ATOM     14  N   UNL     1       1.347   3.114  21.381  0.00  0.00    +0.000 NA
ATOM     15  C   UNL     1       1.432   2.318  20.295  0.00  0.00    +0.000 A 
ATOM     16  C   UNL     1       2.176   2.627  19.168  0.00  0.00    +0.000 A 
ENDBRANCH   3  11
TORSDOF 2
ENDMDL
MODEL 5
REMARK VINA RESULT:      -6.2      4.408      6.857
REMARK  Name = 
REMARK  2 active torsions:
REMARK  status: ('A' for Active; 'I' for Inactive)
REMARK    1  A    between atoms: N_2  and  C_10
REMARK    2  A    between atoms: C_3  and  C_4
REMARK                            x       y       z     vdW  Elec       q    Type
REMARK                         _______ _______ _______ _____ _____    ______ ____
ROOT
ATOM      1  O   UNL     1       3.378   5.410  18.746  0.00  0.00    +0.000 OA
ATOM      2  N   UNL     1       3.483   6.598  18.292  0.00  0.00    +0.000 N 
ATOM      3  C   UNL     1       4.475   6.972  17.514  0.00  0.00    +0.000 C 
ENDROOT
BRANCH   2   4
ATOM      4  C   UNL     1       2.492   7.588  18.709  0.00  0.00    +0.000 A 
ATOM      5  C   UNL     1       2.097   8.557  17.774  0.00  0.00    +0.000 A 
ATOM      6  C   UNL     1       1.207   9.565  18.145  0.00  0.00    +0.000 A 
ATOM      7  C   UNL     1       0.715   9.606  19.448  0.00  0.00    +0.000 A 
ATOM      8 CL   UNL     1      -0.371  10.859  19.909  0.00  0.00    +0.000 Cl
ATOM      9  C   UNL     1       1.107   8.649  20.383  0.00  0.00    +0.000 A 
ATOM     10  C   UNL     1       2.004   7.640  20.021  0.00  0.00    +0.000 A 
ENDBRANCH   2   4
BRANCH   3  11
ATOM     11  C   UNL     1       5.533   6.071  17.025  0.00  0.00    +0.000 A 
ATOM     12  C   UNL     1       6.488   5.489  17.853  0.00  0.00    +0.000 A 
ATOM     13  C   UNL     1       7.445   4.675  17.275  0.00  0.00    +0.000 A 
ATOM     14  N   UNL     1       7.492   4.392  15.956  0.00  0.00    +0.000 NA
ATOM     15  C   UNL     1       6.540   4.949  15.180  0.00  0.00    +0.000 A 
ATOM     16  C   UNL     1       5.541   5.780  15.661  0.00  0.00    +0.000 A 
ENDBRANCH   3  11
TORSDOF 2
ENDMDL
MODEL 6
REMARK VINA RESULT:      -6.2      4.447      6.938
REMARK  Name = 
REMARK  2 active torsions:
REMARK  status: ('A' for Active; 'I' for Inactive)
REMARK    1  A    between atoms: N_2  and  C_10
REMARK    2  A    between atoms: C_3  and  C_4
REMARK                            x       y       z     vdW  Elec       q    Type
REMARK                         _______ _______ _______ _____ _____    ______ ____
ROOT
ATOM      1  O   UNL     1       3.111   5.435  18.231  0.00  0.00    +0.000 OA
ATOM      2  N   UNL     1       3.426   6.659  18.053  0.00  0.00    +0.000 N 
ATOM      3  C   UNL     1       4.553   7.023  17.482  0.00  0.00    +0.000 C 
ENDROOT
BRANCH   2   4
ATOM      4  C   UNL     1       2.523   7.688  18.565  0.00  0.00    +0.000 A 
ATOM      5  C   UNL     1       2.099   7.587  19.898  0.00  0.00    +0.000 A 
ATOM      6  C   UNL     1       1.183   8.504  20.413  0.00  0.00    +0.000 A 
ATOM      7  C   UNL     1       0.689   9.519  19.595  0.00  0.00    +0.000 A 
ATOM      8 CL   UNL     1      -0.453  10.640  20.226  0.00  0.00    +0.000 Cl
ATOM      9  C   UNL     1       1.102   9.622  18.268  0.00  0.00    +0.000 A 
ATOM     10  C   UNL     1       2.015   8.702  17.743  0.00  0.00    +0.000 A 
ENDBRANCH   2   4
BRANCH   3  11
ATOM     11  C   UNL     1       5.544   6.084  16.927  0.00  0.00    +0.000 A 
ATOM     12  C   UNL     1       5.541   5.661  15.601  0.00  0.00    +0.000 A 
ATOM     13  C   UNL     1       6.513   4.761  15.201  0.00  0.00    +0.000 A 
ATOM     14  N   UNL     1       7.477   4.285  16.017  0.00  0.00    +0.000 NA
ATOM     15  C   UNL     1       7.471   4.731  17.290  0.00  0.00    +0.000 A 
ATOM     16  C   UNL     1       6.542   5.630  17.789  0.00  0.00    +0.000 A 
ENDBRANCH   3  11
TORSDOF 2
ENDMDL
MODEL 7
REMARK VINA RESULT:      -6.1      4.493      6.970
REMARK  Name = 
REMARK  2 active torsions:
REMARK  status: ('A' for Active; 'I' for Inactive)
REMARK    1  A    between atoms: N_2  and  C_10
REMARK    2  A    between atoms: C_3  and  C_4
REMARK                            x       y       z     vdW  Elec       q    Type
REMARK                         _______ _______ _______ _____ _____    ______ ____
ROOT
ATOM      1  O   UNL     1       3.170   5.515  18.490  0.00  0.00    +0.000 OA
ATOM      2  N   UNL     1       3.391   6.726  18.155  0.00  0.00    +0.000 N 
ATOM      3  C   UNL     1       4.443   7.085  17.452  0.00  0.00    +0.000 C 
ENDROOT
BRANCH   2   4
ATOM      4  C   UNL     1       2.467   7.755  18.628  0.00  0.00    +0.000 A 
ATOM      5  C   UNL     1       2.036   7.688  19.962  0.00  0.00    +0.000 A 
ATOM      6  C   UNL     1       1.101   8.605  20.442  0.00  0.00    +0.000 A 
ATOM      7  C   UNL     1       0.596   9.586  19.590  0.00  0.00    +0.000 A 
ATOM      8 CL   UNL     1      -0.569  10.707  20.179  0.00  0.00    +0.000 Cl
ATOM      9  C   UNL     1       1.016   9.655  18.263  0.00  0.00    +0.000 A 
ATOM     10  C   UNL     1       1.948   8.735  17.773  0.00  0.00    +0.000 A 
ENDBRANCH   2   4
BRANCH   3  11
ATOM     11  C   UNL     1       5.444   6.145  16.918  0.00  0.00    +0.000 A 
ATOM     12  C   UNL     1       6.418   5.534  17.702  0.00  0.00    +0.000 A 
ATOM     13  C   UNL     1       7.317   4.684  17.083  0.00  0.00    +0.000 A 
ATOM     14  N   UNL     1       7.290   4.395  15.765  0.00  0.00    +0.000 NA
ATOM     15  C   UNL     1       6.321   4.981  15.033  0.00  0.00    +0.000 A 
ATOM     16  C   UNL     1       5.375   5.848  15.557  0.00  0.00    +0.000 A 
ENDBRANCH   3  11
TORSDOF 2
ENDMDL
MODEL 8
REMARK VINA RESULT:      -6.0      4.548      6.914
REMARK  Name = 
REMARK  2 active torsions:
REMARK  status: ('A' for Active; 'I' for Inactive)
REMARK    1  A    between atoms: N_2  and  C_10
REMARK    2  A    between atoms: C_3  and  C_4
REMARK                            x       y       z     vdW  Elec       q    Type
REMARK                         _______ _______ _______ _____ _____    ______ ____
ROOT
ATOM      1  O   UNL     1       3.464   5.826  19.361  0.00  0.00    +0.000 OA
ATOM      2  N   UNL     1       3.324   6.829  18.584  0.00  0.00    +0.000 N 
ATOM      3  C   UNL     1       4.108   7.037  17.549  0.00  0.00    +0.000 C 
ENDROOT
BRANCH   2   4
ATOM      4  C   UNL     1       2.289   7.810  18.902  0.00  0.00    +0.000 A 
ATOM      5  C   UNL     1       1.865   8.674  17.881  0.00  0.00    +0.000 A 
ATOM      6  C   UNL     1       0.931   9.673  18.152  0.00  0.00    +0.000 A 
ATOM      7  C   UNL     1       0.423   9.812  19.442  0.00  0.00    +0.000 A 
ATOM      8 CL   UNL     1      -0.717  11.055  19.780  0.00  0.00    +0.000 Cl
ATOM      9  C   UNL     1       0.844   8.961  20.464  0.00  0.00    +0.000 A 
ATOM     10  C   UNL     1       1.785   7.961  20.201  0.00  0.00    +0.000 A 
ENDBRANCH   2   4
BRANCH   3  11
ATOM     11  C   UNL     1       5.184   6.124  17.125  0.00  0.00    +0.000 A 
ATOM     12  C   UNL     1       5.007   5.113  16.185  0.00  0.00    +0.000 A 
ATOM     13  C   UNL     1       6.089   4.306  15.882  0.00  0.00    +0.000 A 
ATOM     14  N   UNL     1       7.313   4.455  16.431  0.00  0.00    +0.000 NA
ATOM     15  C   UNL     1       7.463   5.458  17.320  0.00  0.00    +0.000 A 
ATOM     16  C   UNL     1       6.443   6.319  17.692  0.00  0.00    +0.000 A 
ENDBRANCH   3  11
TORSDOF 2
ENDMDL
MODEL 9
REMARK VINA RESULT:      -6.0      1.137      1.623
REMARK  Name = 
REMARK  2 active torsions:
REMARK  status: ('A' for Active; 'I' for Inactive)
REMARK    1  A    between atoms: N_2  and  C_10
REMARK    2  A    between atoms: C_3  and  C_4
REMARK                            x       y       z     vdW  Elec       q    Type
REMARK                         _______ _______ _______ _____ _____    ______ ____
ROOT
ATOM      1  O   UNL     1       3.096   3.504  16.928  0.00  0.00    +0.000 OA
ATOM      2  N   UNL     1       4.272   3.870  17.262  0.00  0.00    +0.000 N 
ATOM      3  C   UNL     1       4.630   4.044  18.515  0.00  0.00    +0.000 C 
ENDROOT
BRANCH   2   4
ATOM      4  C   UNL     1       5.231   4.168  16.200  0.00  0.00    +0.000 A 
ATOM      5  C   UNL     1       6.362   4.930  16.529  0.00  0.00    +0.000 A 
ATOM      6  C   UNL     1       7.271   5.299  15.537  0.00  0.00    +0.000 A 
ATOM      7  C   UNL     1       7.048   4.909  14.218  0.00  0.00    +0.000 A 
ATOM      8 CL   UNL     1       8.161   5.378  12.992  0.00  0.00    +0.000 Cl
ATOM      9  C   UNL     1       5.924   4.155  13.882  0.00  0.00    +0.000 A 
ATOM     10  C   UNL     1       5.005   3.788  14.870  0.00  0.00    +0.000 A 
ENDBRANCH   2   4
BRANCH   3  11
ATOM     11  C   UNL     1       3.758   3.779  19.672  0.00  0.00    +0.000 A 
ATOM     12  C   UNL     1       3.715   2.557  20.337  0.00  0.00    +0.000 A 
ATOM     13  C   UNL     1       2.839   2.422  21.400  0.00  0.00    +0.000 A 
ATOM     14  N   UNL     1       2.039   3.415  21.844  0.00  0.00    +0.000 NA
ATOM     15  C   UNL     1       2.119   4.596  21.197  0.00  0.00    +0.000 A 
ATOM     16  C   UNL     1       2.961   4.832  20.122  0.00  0.00    +0.000 A 
ENDBRANCH   3  11
TORSDOF 2
ENDMDL
