MODEL 1
REMARK VINA RESULT:      -8.4      0.000      0.000
REMARK  Name = 
REMARK  7 active torsions:
REMARK  status: ('A' for Active; 'I' for Inactive)
REMARK    1  A    between atoms: C_1  and  O_2
REMARK    2  A    between atoms: O_2  and  C_3
REMARK    3  A    between atoms: C_6  and  C_7
REMARK    4  A    between atoms: C_9  and  C_10
REMARK    5  A    between atoms: N_12  and  C_13
REMARK    6  A    between atoms: C_16  and  O_17
REMARK    7  A    between atoms: O_17  and  C_18
REMARK                            x       y       z     vdW  Elec       q    Type
REMARK                         _______ _______ _______ _____ _____    ______ ____
ROOT
ATOM      1  C   UNL     1       3.991   5.164  18.613  0.00  0.00    +0.000 A 
ATOM      2  C   UNL     1       3.331   6.371  18.934  0.00  0.00    +0.000 A 
ATOM      3  C   UNL     1       2.346   6.455  19.937  0.00  0.00    +0.000 A 
ATOM      4  C   UNL     1       1.959   5.312  20.626  0.00  0.00    +0.000 A 
ATOM      5  C   UNL     1       2.586   4.102  20.331  0.00  0.00    +0.000 A 
ATOM      6  C   UNL     1       3.600   4.028  19.357  0.00  0.00    +0.000 A 
ATOM      7 CL   UNL     1       4.354   2.477  19.190  0.00  0.00    +0.000 Cl
ENDROOT
BRANCH   1  11
ATOM      8  C   UNL     1       6.934   5.207  15.580  0.00  0.00    +0.000 A 
ATOM      9  N   UNL     1       7.304   4.796  16.796  0.00  0.00    +0.000 NA
ATOM     10  C   UNL     1       6.332   4.784  17.736  0.00  0.00    +0.000 A 
ATOM     11  C   UNL     1       5.013   5.176  17.537  0.00  0.00    +0.000 A 
ATOM     12  C   UNL     1       4.790   5.627  16.246  0.00  0.00    +0.000 A 
ATOM     13  N   UNL     1       5.708   5.641  15.254  0.00  0.00    +0.000 NA
BRANCH   8  15
ATOM     14  C   UNL     1       7.413   4.976  13.328  0.00  0.00    +0.000 C 
ATOM     15  O   UNL     1       7.930   5.219  14.631  0.00  0.00    +0.000 OA
ENDBRANCH   8  15
ENDBRANCH   1  11
BRANCH   3  16
ATOM     16  C   UNL     1       1.696   7.773  20.147  0.00  0.00    +0.000 C 
ATOM     17  O   UNL     1       1.714   8.547  19.194  0.00  0.00    +0.000 OA
ATOM     18  N   UNL     1       1.191   8.022  21.411  0.00  0.00    +0.000 N 
ATOM     19  H   UNL     1       1.411   7.366  22.149  0.00  0.00    +0.000 HD
BRANCH  18  20
ATOM     20  C   UNL     1       0.540   9.217  21.803  0.00  0.00    +0.000 A 
ATOM     21  C   UNL     1      -0.335   9.285  22.890  0.00  0.00    +0.000 A 
ATOM     22  C   UNL     1      -0.963  10.489  23.226  0.00  0.00    +0.000 A 
ATOM     23  C   UNL     1      -0.720  11.647  22.493  0.00  0.00    +0.000 A 
ATOM     24  C   UNL     1       0.130  11.584  21.392  0.00  0.00    +0.000 A 
ATOM     25  C   UNL     1       0.779  10.381  21.065  0.00  0.00    +0.000 A 
BRANCH  23  26
ATOM     26  O   UNL     1      -1.434  12.735  22.892  0.00  0.00    +0.000 OA
BRANCH  26  27
ATOM     27  C   UNL     1      -2.773  12.897  22.444  0.00  0.00    +0.000 C 
ATOM     28  F   UNL     1      -3.174  14.182  22.338  0.00  0.00    +0.000 F 
ATOM     29  F   UNL     1      -2.903  12.309  21.236  0.00  0.00    +0.000 F 
ATOM     30  F   UNL     1      -3.601  12.273  23.311  0.00  0.00    +0.000 F 
ENDBRANCH  26  27
ENDBRANCH  23  26
ENDBRANCH  18  20
ENDBRANCH   3  16
TORSDOF 6
ENDMDL
MODEL 2
REMARK VINA RESULT:      -8.2      0.863      1.182
REMARK  Name = 
REMARK  7 active torsions:
REMARK  status: ('A' for Active; 'I' for Inactive)
REMARK    1  A    between atoms: C_1  and  O_2
REMARK    2  A    between atoms: O_2  and  C_3
REMARK    3  A    between atoms: C_6  and  C_7
REMARK    4  A    between atoms: C_9  and  C_10
REMARK    5  A    between atoms: N_12  and  C_13
REMARK    6  A    between atoms: C_16  and  O_17
REMARK    7  A    between atoms: O_17  and  C_18
REMARK                            x       y       z     vdW  Elec       q    Type
REMARK                         _______ _______ _______ _____ _____    ______ ____
ROOT
ATOM      1  C   UNL     1       3.776   5.475  18.656  0.00  0.00    +0.000 A 
ATOM      2  C   UNL     1       3.109   6.691  18.928  0.00  0.00    +0.000 A 
ATOM      3  C   UNL     1       2.128   6.812  19.929  0.00  0.00    +0.000 A 
ATOM      4  C   UNL     1       1.751   5.697  20.669  0.00  0.00    +0.000 A 
ATOM      5  C   UNL     1       2.384   4.480  20.424  0.00  0.00    +0.000 A 
ATOM      6  C   UNL     1       3.396   4.370  19.450  0.00  0.00    +0.000 A 
ATOM      7 CL   UNL     1       4.159   2.818  19.347  0.00  0.00    +0.000 Cl
ENDROOT
BRANCH   1  11
ATOM      8  C   UNL     1       6.675   5.354  15.584  0.00  0.00    +0.000 A 
ATOM      9  N   UNL     1       5.762   4.379  15.612  0.00  0.00    +0.000 NA
ATOM     10  C   UNL     1       4.845   4.459  16.601  0.00  0.00    +0.000 A 
ATOM     11  C   UNL     1       4.795   5.448  17.577  0.00  0.00    +0.000 A 
ATOM     12  C   UNL     1       5.832   6.359  17.454  0.00  0.00    +0.000 A 
ATOM     13  N   UNL     1       6.765   6.351  16.475  0.00  0.00    +0.000 NA
BRANCH   8  15
ATOM     14  C   UNL     1       7.056   4.667  13.408  0.00  0.00    +0.000 C 
ATOM     15  O   UNL     1       7.608   5.263  14.575  0.00  0.00    +0.000 OA
ENDBRANCH   8  15
ENDBRANCH   1  11
BRANCH   3  16
ATOM     16  C   UNL     1       1.469   8.133  20.085  0.00  0.00    +0.000 C 
ATOM     17  O   UNL     1       1.728   8.975  19.228  0.00  0.00    +0.000 OA
ATOM     18  N   UNL     1       0.682   8.307  21.210  0.00  0.00    +0.000 N 
ATOM     19  H   UNL     1       0.710   7.591  21.924  0.00  0.00    +0.000 HD
BRANCH  18  20
ATOM     20  C   UNL     1      -0.021   9.493  21.532  0.00  0.00    +0.000 A 
ATOM     21  C   UNL     1      -0.321   9.866  22.844  0.00  0.00    +0.000 A 
ATOM     22  C   UNL     1      -1.033  11.041  23.106  0.00  0.00    +0.000 A 
ATOM     23  C   UNL     1      -1.445  11.871  22.068  0.00  0.00    +0.000 A 
ATOM     24  C   UNL     1      -1.173  11.494  20.755  0.00  0.00    +0.000 A 
ATOM     25  C   UNL     1      -0.441  10.325  20.489  0.00  0.00    +0.000 A 
BRANCH  23  26
ATOM     26  O   UNL     1      -2.172  12.954  22.455  0.00  0.00    +0.000 OA
BRANCH  26  27
ATOM     27  C   UNL     1      -3.580  12.832  22.612  0.00  0.00    +0.000 C 
ATOM     28  F   UNL     1      -4.193  12.151  21.621  0.00  0.00    +0.000 F 
ATOM     29  F   UNL     1      -3.836  12.208  23.781  0.00  0.00    +0.000 F 
ATOM     30  F   UNL     1      -4.121  14.070  22.663  0.00  0.00    +0.000 F 
ENDBRANCH  26  27
ENDBRANCH  23  26
ENDBRANCH  18  20
ENDBRANCH   3  16
TORSDOF 6
ENDMDL
MODEL 3
REMARK VINA RESULT:      -8.2      0.711      1.097
REMARK  Name = 
REMARK  7 active torsions:
REMARK  status: ('A' for Active; 'I' for Inactive)
REMARK    1  A    between atoms: C_1  and  O_2
REMARK    2  A    between atoms: O_2  and  C_3
REMARK    3  A    between atoms: C_6  and  C_7
REMARK    4  A    between atoms: C_9  and  C_10
REMARK    5  A    between atoms: N_12  and  C_13
REMARK    6  A    between atoms: C_16  and  O_17
REMARK    7  A    between atoms: O_17  and  C_18
REMARK                            x       y       z     vdW  Elec       q    Type
REMARK                         _______ _______ _______ _____ _____    ______ ____
ROOT
ATOM      1  C   UNL     1       3.732   5.217  18.527  0.00  0.00    +0.000 A 
ATOM      2  C   UNL     1       3.088   6.435  18.838  0.00  0.00    +0.000 A 
ATOM      3  C   UNL     1       2.249   6.586  19.959  0.00  0.00    +0.000 A 
ATOM      4  C   UNL     1       1.996   5.499  20.787  0.00  0.00    +0.000 A 
ATOM      5  C   UNL     1       2.611   4.280  20.507  0.00  0.00    +0.000 A 
ATOM      6  C   UNL     1       3.483   4.141  19.409  0.00  0.00    +0.000 A 
ATOM      7 CL   UNL     1       4.252   2.595  19.265  0.00  0.00    +0.000 Cl
ENDROOT
BRANCH   1  11
ATOM      8  C   UNL     1       6.176   5.083  15.082  0.00  0.00    +0.000 A 
ATOM      9  N   UNL     1       5.933   6.280  15.621  0.00  0.00    +0.000 NA
ATOM     10  C   UNL     1       5.158   6.281  16.729  0.00  0.00    +0.000 A 
ATOM     11  C   UNL     1       4.595   5.156  17.321  0.00  0.00    +0.000 A 
ATOM     12  C   UNL     1       4.890   3.995  16.624  0.00  0.00    +0.000 A 
ATOM     13  N   UNL     1       5.678   3.922  15.528  0.00  0.00    +0.000 NA
BRANCH   8  15
ATOM     14  C   UNL     1       6.604   4.046  13.058  0.00  0.00    +0.000 C 
ATOM     15  O   UNL     1       6.963   5.092  13.953  0.00  0.00    +0.000 OA
ENDBRANCH   8  15
ENDBRANCH   1  11
BRANCH   3  16
ATOM     16  C   UNL     1       1.596   7.905  20.150  0.00  0.00    +0.000 C 
ATOM     17  O   UNL     1       1.586   8.654  19.177  0.00  0.00    +0.000 OA
ATOM     18  N   UNL     1       1.120   8.185  21.419  0.00  0.00    +0.000 N 
ATOM     19  H   UNL     1       1.363   7.550  22.168  0.00  0.00    +0.000 HD
BRANCH  18  20
ATOM     20  C   UNL     1       0.472   9.386  21.795  0.00  0.00    +0.000 A 
ATOM     21  C   UNL     1      -0.468   9.452  22.827  0.00  0.00    +0.000 A 
ATOM     22  C   UNL     1      -1.091  10.662  23.148  0.00  0.00    +0.000 A 
ATOM     23  C   UNL     1      -0.778  11.829  22.457  0.00  0.00    +0.000 A 
ATOM     24  C   UNL     1       0.138  11.769  21.410  0.00  0.00    +0.000 A 
ATOM     25  C   UNL     1       0.780  10.559  21.098  0.00  0.00    +0.000 A 
BRANCH  23  26
ATOM     26  O   UNL     1      -1.493  12.924  22.833  0.00  0.00    +0.000 OA
BRANCH  26  27
ATOM     27  C   UNL     1      -2.862  13.028  22.467  0.00  0.00    +0.000 C 
ATOM     28  F   UNL     1      -3.718  12.468  23.349  0.00  0.00    +0.000 F 
ATOM     29  F   UNL     1      -3.180  14.332  22.333  0.00  0.00    +0.000 F 
ATOM     30  F   UNL     1      -3.041  12.421  21.272  0.00  0.00    +0.000 F 
ENDBRANCH  26  27
ENDBRANCH  23  26
ENDBRANCH  18  20
ENDBRANCH   3  16
TORSDOF 6
ENDMDL
MODEL 4
REMARK VINA RESULT:      -8.2      1.027      1.446
REMARK  Name = 
REMARK  7 active torsions:
REMARK  status: ('A' for Active; 'I' for Inactive)
REMARK    1  A    between atoms: C_1  and  O_2
REMARK    2  A    between atoms: O_2  and  C_3
REMARK    3  A    between atoms: C_6  and  C_7
REMARK    4  A    between atoms: C_9  and  C_10
REMARK    5  A    between atoms: N_12  and  C_13
REMARK    6  A    between atoms: C_16  and  O_17
REMARK    7  A    between atoms: O_17  and  C_18
REMARK                            x       y       z     vdW  Elec       q    Type
REMARK                         _______ _______ _______ _____ _____    ______ ____
ROOT
ATOM      1  C   UNL     1       3.570   5.477  18.657  0.00  0.00    +0.000 A 
ATOM      2  C   UNL     1       2.924   6.710  18.900  0.00  0.00    +0.000 A 
ATOM      3  C   UNL     1       2.051   6.909  19.986  0.00  0.00    +0.000 A 
ATOM      4  C   UNL     1       1.763   5.856  20.846  0.00  0.00    +0.000 A 
ATOM      5  C   UNL     1       2.378   4.624  20.634  0.00  0.00    +0.000 A 
ATOM      6  C   UNL     1       3.284   4.438  19.571  0.00  0.00    +0.000 A 
ATOM      7 CL   UNL     1       4.046   2.883  19.511  0.00  0.00    +0.000 Cl
ENDROOT
BRANCH   1  11
ATOM      8  C   UNL     1       6.135   5.200  15.310  0.00  0.00    +0.000 A 
ATOM      9  N   UNL     1       6.203   6.309  16.052  0.00  0.00    +0.000 NA
ATOM     10  C   UNL     1       5.377   6.355  17.120  0.00  0.00    +0.000 A 
ATOM     11  C   UNL     1       4.471   5.365  17.483  0.00  0.00    +0.000 A 
ATOM     12  C   UNL     1       4.474   4.301  16.595  0.00  0.00    +0.000 A 
ATOM     13  N   UNL     1       5.291   4.181  15.524  0.00  0.00    +0.000 NA
BRANCH   8  15
ATOM     14  C   UNL     1       6.652   4.091  13.347  0.00  0.00    +0.000 C 
ATOM     15  O   UNL     1       6.977   5.164  14.222  0.00  0.00    +0.000 OA
ENDBRANCH   8  15
ENDBRANCH   1  11
BRANCH   3  16
ATOM     16  C   UNL     1       1.401   8.238  20.105  0.00  0.00    +0.000 C 
ATOM     17  O   UNL     1       1.712   9.075  19.261  0.00  0.00    +0.000 OA
ATOM     18  N   UNL     1       0.560   8.424  21.188  0.00  0.00    +0.000 N 
ATOM     19  H   UNL     1       0.542   7.710  21.904  0.00  0.00    +0.000 HD
BRANCH  18  20
ATOM     20  C   UNL     1      -0.146   9.619  21.471  0.00  0.00    +0.000 A 
ATOM     21  C   UNL     1      -0.513  10.537  20.484  0.00  0.00    +0.000 A 
ATOM     22  C   UNL     1      -1.196  11.710  20.820  0.00  0.00    +0.000 A 
ATOM     23  C   UNL     1      -1.538  11.982  22.141  0.00  0.00    +0.000 A 
ATOM     24  C   UNL     1      -1.153  11.085  23.136  0.00  0.00    +0.000 A 
ATOM     25  C   UNL     1      -0.485   9.896  22.800  0.00  0.00    +0.000 A 
BRANCH  23  26
ATOM     26  O   UNL     1      -2.153  13.179  22.338  0.00  0.00    +0.000 OA
BRANCH  26  27
ATOM     27  C   UNL     1      -3.484  13.209  22.837  0.00  0.00    +0.000 C 
ATOM     28  F   UNL     1      -3.581  13.048  24.174  0.00  0.00    +0.000 F 
ATOM     29  F   UNL     1      -4.047  14.391  22.508  0.00  0.00    +0.000 F 
ATOM     30  F   UNL     1      -4.193  12.222  22.247  0.00  0.00    +0.000 F 
ENDBRANCH  26  27
ENDBRANCH  23  26
ENDBRANCH  18  20
ENDBRANCH   3  16
TORSDOF 6
ENDMDL
MODEL 5
REMARK VINA RESULT:      -8.2      0.485      1.255
REMARK  Name = 
REMARK  7 active torsions:
REMARK  status: ('A' for Active; 'I' for Inactive)
REMARK    1  A    between atoms: C_1  and  O_2
REMARK    2  A    between atoms: O_2  and  C_3
REMARK    3  A    between atoms: C_6  and  C_7
REMARK    4  A    between atoms: C_9  and  C_10
REMARK    5  A    between atoms: N_12  and  C_13
REMARK    6  A    between atoms: C_16  and  O_17
REMARK    7  A    between atoms: O_17  and  C_18
REMARK                            x       y       z     vdW  Elec       q    Type
REMARK                         _______ _______ _______ _____ _____    ______ ____
ROOT
ATOM      1  C   UNL     1       3.898   5.364  18.643  0.00  0.00    +0.000 A 
ATOM      2  C   UNL     1       3.228   6.574  18.929  0.00  0.00    +0.000 A 
ATOM      3  C   UNL     1       2.256   6.684  19.941  0.00  0.00    +0.000 A 
ATOM      4  C   UNL     1       1.891   5.562  20.677  0.00  0.00    +0.000 A 
ATOM      5  C   UNL     1       2.528   4.350  20.418  0.00  0.00    +0.000 A 
ATOM      6  C   UNL     1       3.531   4.251  19.434  0.00  0.00    +0.000 A 
ATOM      7 CL   UNL     1       4.301   2.704  19.313  0.00  0.00    +0.000 Cl
ENDROOT
BRANCH   1  11
ATOM      8  C   UNL     1       6.800   5.309  15.572  0.00  0.00    +0.000 A 
ATOM      9  N   UNL     1       6.966   4.466  16.594  0.00  0.00    +0.000 NA
ATOM     10  C   UNL     1       6.011   4.504  17.551  0.00  0.00    +0.000 A 
ATOM     11  C   UNL     1       4.907   5.349  17.555  0.00  0.00    +0.000 A 
ATOM     12  C   UNL     1       4.895   6.200  16.461  0.00  0.00    +0.000 A 
ATOM     13  N   UNL     1       5.802   6.197  15.459  0.00  0.00    +0.000 NA
BRANCH   8  15
ATOM     14  C   UNL     1       7.265   4.798  13.363  0.00  0.00    +0.000 C 
ATOM     15  O   UNL     1       7.779   5.266  14.605  0.00  0.00    +0.000 OA
ENDBRANCH   8  15
ENDBRANCH   1  11
BRANCH   3  16
ATOM     16  C   UNL     1       1.592   8.001  20.112  0.00  0.00    +0.000 C 
ATOM     17  O   UNL     1       1.622   8.755  19.143  0.00  0.00    +0.000 OA
ATOM     18  N   UNL     1       1.063   8.273  21.362  0.00  0.00    +0.000 N 
ATOM     19  H   UNL     1       1.275   7.634  22.117  0.00  0.00    +0.000 HD
BRANCH  18  20
ATOM     20  C   UNL     1       0.398   9.471  21.717  0.00  0.00    +0.000 A 
ATOM     21  C   UNL     1       0.483  10.642  20.958  0.00  0.00    +0.000 A 
ATOM     22  C   UNL     1      -0.182  11.803  21.362  0.00  0.00    +0.000 A 
ATOM     23  C   UNL     1      -0.955  11.815  22.520  0.00  0.00    +0.000 A 
ATOM     24  C   UNL     1      -1.026  10.661  23.296  0.00  0.00    +0.000 A 
ATOM     25  C   UNL     1      -0.375   9.487  22.882  0.00  0.00    +0.000 A 
BRANCH  23  26
ATOM     26  O   UNL     1      -1.506  13.021  22.827  0.00  0.00    +0.000 OA
BRANCH  26  27
ATOM     27  C   UNL     1      -2.806  13.339  22.348  0.00  0.00    +0.000 C 
ATOM     28  F   UNL     1      -3.519  12.274  21.923  0.00  0.00    +0.000 F 
ATOM     29  F   UNL     1      -3.497  13.948  23.334  0.00  0.00    +0.000 F 
ATOM     30  F   UNL     1      -2.691  14.202  21.314  0.00  0.00    +0.000 F 
ENDBRANCH  26  27
ENDBRANCH  23  26
ENDBRANCH  18  20
ENDBRANCH   3  16
TORSDOF 6
ENDMDL
MODEL 6
REMARK VINA RESULT:      -8.2      0.809      1.524
REMARK  Name = 
REMARK  7 active torsions:
REMARK  status: ('A' for Active; 'I' for Inactive)
REMARK    1  A    between atoms: C_1  and  O_2
REMARK    2  A    between atoms: O_2  and  C_3
REMARK    3  A    between atoms: C_6  and  C_7
REMARK    4  A    between atoms: C_9  and  C_10
REMARK    5  A    between atoms: N_12  and  C_13
REMARK    6  A    between atoms: C_16  and  O_17
REMARK    7  A    between atoms: O_17  and  C_18
REMARK                            x       y       z     vdW  Elec       q    Type
REMARK                         _______ _______ _______ _____ _____    ______ ____
ROOT
ATOM      1  C   UNL     1       3.902   5.110  18.887  0.00  0.00    +0.000 A 
ATOM      2  C   UNL     1       3.251   6.348  19.089  0.00  0.00    +0.000 A 
ATOM      3  C   UNL     1       2.223   6.521  20.034  0.00  0.00    +0.000 A 
ATOM      4  C   UNL     1       1.783   5.437  20.786  0.00  0.00    +0.000 A 
ATOM      5  C   UNL     1       2.399   4.199  20.610  0.00  0.00    +0.000 A 
ATOM      6  C   UNL     1       3.456   4.038  19.693  0.00  0.00    +0.000 A 
ATOM      7 CL   UNL     1       4.187   2.467  19.675  0.00  0.00    +0.000 Cl
ENDROOT
BRANCH   1  11
ATOM      8  C   UNL     1       6.935   4.840  15.957  0.00  0.00    +0.000 A 
ATOM      9  N   UNL     1       5.720   4.387  15.634  0.00  0.00    +0.000 NA
ATOM     10  C   UNL     1       4.774   4.502  16.593  0.00  0.00    +0.000 A 
ATOM     11  C   UNL     1       4.974   5.028  17.864  0.00  0.00    +0.000 A 
ATOM     12  C   UNL     1       6.290   5.408  18.073  0.00  0.00    +0.000 A 
ATOM     13  N   UNL     1       7.276   5.344  17.151  0.00  0.00    +0.000 NA
BRANCH   8  15
ATOM     14  C   UNL     1       7.338   4.899  13.679  0.00  0.00    +0.000 C 
ATOM     15  O   UNL     1       7.893   4.716  14.976  0.00  0.00    +0.000 OA
ENDBRANCH   8  15
ENDBRANCH   1  11
BRANCH   3  16
ATOM     16  C   UNL     1       1.588   7.860  20.117  0.00  0.00    +0.000 C 
ATOM     17  O   UNL     1       1.915   8.671  19.255  0.00  0.00    +0.000 OA
ATOM     18  N   UNL     1       0.743   8.082  21.190  0.00  0.00    +0.000 N 
ATOM     19  H   UNL     1       0.713   7.386  21.923  0.00  0.00    +0.000 HD
BRANCH  18  20
ATOM     20  C   UNL     1       0.051   9.292  21.440  0.00  0.00    +0.000 A 
ATOM     21  C   UNL     1      -0.404  10.132  20.420  0.00  0.00    +0.000 A 
ATOM     22  C   UNL     1      -1.069  11.325  20.722  0.00  0.00    +0.000 A 
ATOM     23  C   UNL     1      -1.305  11.693  22.043  0.00  0.00    +0.000 A 
ATOM     24  C   UNL     1      -0.833  10.876  23.067  0.00  0.00    +0.000 A 
ATOM     25  C   UNL     1      -0.182   9.667  22.767  0.00  0.00    +0.000 A 
BRANCH  23  26
ATOM     26  O   UNL     1      -1.915  12.900  22.199  0.00  0.00    +0.000 OA
BRANCH  26  27
ATOM     27  C   UNL     1      -2.920  13.053  23.193  0.00  0.00    +0.000 C 
ATOM     28  F   UNL     1      -3.481  11.894  23.601  0.00  0.00    +0.000 F 
ATOM     29  F   UNL     1      -2.382  13.668  24.267  0.00  0.00    +0.000 F 
ATOM     30  F   UNL     1      -3.903  13.839  22.701  0.00  0.00    +0.000 F 
ENDBRANCH  26  27
ENDBRANCH  23  26
ENDBRANCH  18  20
ENDBRANCH   3  16
TORSDOF 6
ENDMDL
MODEL 7
REMARK VINA RESULT:      -8.1      2.552      2.836
REMARK  Name = 
REMARK  7 active torsions:
REMARK  status: ('A' for Active; 'I' for Inactive)
REMARK    1  A    between atoms: C_1  and  O_2
REMARK    2  A    between atoms: O_2  and  C_3
REMARK    3  A    between atoms: C_6  and  C_7
REMARK    4  A    between atoms: C_9  and  C_10
REMARK    5  A    between atoms: N_12  and  C_13
REMARK    6  A    between atoms: C_16  and  O_17
REMARK    7  A    between atoms: O_17  and  C_18
REMARK                            x       y       z     vdW  Elec       q    Type
REMARK                         _______ _______ _______ _____ _____    ______ ____
ROOT
ATOM      1  C   UNL     1       3.967   5.402  18.373  0.00  0.00    +0.000 A 
ATOM      2  C   UNL     1       3.354   6.644  18.653  0.00  0.00    +0.000 A 
ATOM      3  C   UNL     1       2.386   6.804  19.661  0.00  0.00    +0.000 A 
ATOM      4  C   UNL     1       1.966   5.704  20.400  0.00  0.00    +0.000 A 
ATOM      5  C   UNL     1       2.545   4.461  20.147  0.00  0.00    +0.000 A 
ATOM      6  C   UNL     1       3.545   4.311  19.166  0.00  0.00    +0.000 A 
ATOM      7 CL   UNL     1       4.240   2.729  19.053  0.00  0.00    +0.000 Cl
ENDROOT
BRANCH   1  11
ATOM      8  C   UNL     1       6.854   5.250  15.291  0.00  0.00    +0.000 A 
ATOM      9  N   UNL     1       7.119   6.021  16.349  0.00  0.00    +0.000 NA
ATOM     10  C   UNL     1       6.177   6.034  17.319  0.00  0.00    +0.000 A 
ATOM     11  C   UNL     1       4.976   5.335  17.287  0.00  0.00    +0.000 A 
ATOM     12  C   UNL     1       4.816   4.622  16.109  0.00  0.00    +0.000 A 
ATOM     13  N   UNL     1       5.727   4.547  15.113  0.00  0.00    +0.000 NA
BRANCH   8  15
ATOM     14  C   UNL     1       7.311   4.717  13.086  0.00  0.00    +0.000 C 
ATOM     15  O   UNL     1       7.816   5.246  14.306  0.00  0.00    +0.000 OA
ENDBRANCH   8  15
ENDBRANCH   1  11
BRANCH   3  16
ATOM     16  C   UNL     1       1.786   8.152  19.825  0.00  0.00    +0.000 C 
ATOM     17  O   UNL     1       1.400   8.442  20.955  0.00  0.00    +0.000 OA
ATOM     18  N   UNL     1       1.663   8.921  18.682  0.00  0.00    +0.000 N 
ATOM     19  H   UNL     1       1.852   8.481  17.791  0.00  0.00    +0.000 HD
BRANCH  18  20
ATOM     20  C   UNL     1       1.116  10.226  18.638  0.00  0.00    +0.000 A 
ATOM     21  C   UNL     1      -0.256  10.479  18.724  0.00  0.00    +0.000 A 
ATOM     22  C   UNL     1      -0.745  11.788  18.660  0.00  0.00    +0.000 A 
ATOM     23  C   UNL     1       0.123  12.867  18.523  0.00  0.00    +0.000 A 
ATOM     24  C   UNL     1       1.490  12.623  18.410  0.00  0.00    +0.000 A 
ATOM     25  C   UNL     1       1.986  11.312  18.494  0.00  0.00    +0.000 A 
BRANCH  23  26
ATOM     26  O   UNL     1      -0.485  14.080  18.421  0.00  0.00    +0.000 OA
BRANCH  26  27
ATOM     27  C   UNL     1      -0.191  15.093  19.374  0.00  0.00    +0.000 C 
ATOM     28  F   UNL     1       0.127  14.627  20.601  0.00  0.00    +0.000 F 
ATOM     29  F   UNL     1       0.841  15.833  18.918  0.00  0.00    +0.000 F 
ATOM     30  F   UNL     1      -1.269  15.898  19.501  0.00  0.00    +0.000 F 
ENDBRANCH  26  27
ENDBRANCH  23  26
ENDBRANCH  18  20
ENDBRANCH   3  16
TORSDOF 6
ENDMDL
MODEL 8
REMARK VINA RESULT:      -8.1      5.627     10.253
REMARK  Name = 
REMARK  7 active torsions:
REMARK  status: ('A' for Active; 'I' for Inactive)
REMARK    1  A    between atoms: C_1  and  O_2
REMARK    2  A    between atoms: O_2  and  C_3
REMARK    3  A    between atoms: C_6  and  C_7
REMARK    4  A    between atoms: C_9  and  C_10
REMARK    5  A    between atoms: N_12  and  C_13
REMARK    6  A    between atoms: C_16  and  O_17
REMARK    7  A    between atoms: O_17  and  C_18
REMARK                            x       y       z     vdW  Elec       q    Type
REMARK                         _______ _______ _______ _____ _____    ______ ____
ROOT
ATOM      1  C   UNL     1       0.410  10.499  20.598  0.00  0.00    +0.000 A 
ATOM      2  C   UNL     1       1.130   9.778  19.619  0.00  0.00    +0.000 A 
ATOM      3  C   UNL     1       1.534   8.442  19.803  0.00  0.00    +0.000 A 
ATOM      4  C   UNL     1       1.262   7.795  21.003  0.00  0.00    +0.000 A 
ATOM      5  C   UNL     1       0.558   8.478  21.993  0.00  0.00    +0.000 A 
ATOM      6  C   UNL     1       0.118   9.801  21.791  0.00  0.00    +0.000 A 
ATOM      7 CL   UNL     1      -0.839  10.467  23.072  0.00  0.00    +0.000 Cl
ENDROOT
BRANCH   1  11
ATOM      8  C   UNL     1      -0.639  14.516  19.810  0.00  0.00    +0.000 A 
ATOM      9  N   UNL     1       0.617  14.269  20.192  0.00  0.00    +0.000 NA
ATOM     10  C   UNL     1       0.918  12.971  20.422  0.00  0.00    +0.000 A 
ATOM     11  C   UNL     1       0.032  11.905  20.311  0.00  0.00    +0.000 A 
ATOM     12  C   UNL     1      -1.243  12.319  19.959  0.00  0.00    +0.000 A 
ATOM     13  N   UNL     1      -1.604  13.594  19.690  0.00  0.00    +0.000 NA
BRANCH   8  15
ATOM     14  C   UNL     1      -0.235  16.346  18.452  0.00  0.00    +0.000 C 
ATOM     15  O   UNL     1      -0.937  15.840  19.581  0.00  0.00    +0.000 OA
ENDBRANCH   8  15
ENDBRANCH   1  11
BRANCH   3  16
ATOM     16  C   UNL     1       2.324   7.811  18.716  0.00  0.00    +0.000 C 
ATOM     17  O   UNL     1       2.249   8.341  17.610  0.00  0.00    +0.000 OA
ATOM     18  N   UNL     1       3.014   6.656  19.040  0.00  0.00    +0.000 N 
ATOM     19  H   UNL     1       2.835   6.233  19.941  0.00  0.00    +0.000 HD
BRANCH  18  20
ATOM     20  C   UNL     1       3.818   5.914  18.141  0.00  0.00    +0.000 A 
ATOM     21  C   UNL     1       5.031   6.388  17.635  0.00  0.00    +0.000 A 
ATOM     22  C   UNL     1       5.778   5.620  16.737  0.00  0.00    +0.000 A 
ATOM     23  C   UNL     1       5.338   4.361  16.339  0.00  0.00    +0.000 A 
ATOM     24  C   UNL     1       4.118   3.890  16.818  0.00  0.00    +0.000 A 
ATOM     25  C   UNL     1       3.374   4.650  17.736  0.00  0.00    +0.000 A 
BRANCH  23  26
ATOM     26  O   UNL     1       6.132   3.741  15.424  0.00  0.00    +0.000 OA
BRANCH  26  27
ATOM     27  C   UNL     1       6.079   4.146  14.063  0.00  0.00    +0.000 C 
ATOM     28  F   UNL     1       4.868   4.585  13.659  0.00  0.00    +0.000 F 
ATOM     29  F   UNL     1       6.977   5.134  13.867  0.00  0.00    +0.000 F 
ATOM     30  F   UNL     1       6.422   3.098  13.282  0.00  0.00    +0.000 F 
ENDBRANCH  26  27
ENDBRANCH  23  26
ENDBRANCH  18  20
ENDBRANCH   3  16
TORSDOF 6
ENDMDL
MODEL 9
REMARK VINA RESULT:      -8.1      5.730     10.337
REMARK  Name = 
REMARK  7 active torsions:
REMARK  status: ('A' for Active; 'I' for Inactive)
REMARK    1  A    between atoms: C_1  and  O_2
REMARK    2  A    between atoms: O_2  and  C_3
REMARK    3  A    between atoms: C_6  and  C_7
REMARK    4  A    between atoms: C_9  and  C_10
REMARK    5  A    between atoms: N_12  and  C_13
REMARK    6  A    between atoms: C_16  and  O_17
REMARK    7  A    between atoms: O_17  and  C_18
REMARK                            x       y       z     vdW  Elec       q    Type
REMARK                         _______ _______ _______ _____ _____    ______ ____
ROOT
ATOM      1  C   UNL     1       0.506  10.635  20.400  0.00  0.00    +0.000 A 
ATOM      2  C   UNL     1       1.206   9.908  19.411  0.00  0.00    +0.000 A 
ATOM      3  C   UNL     1       1.611   8.572  19.594  0.00  0.00    +0.000 A 
ATOM      4  C   UNL     1       1.361   7.931  20.802  0.00  0.00    +0.000 A 
ATOM      5  C   UNL     1       0.678   8.619  21.802  0.00  0.00    +0.000 A 
ATOM      6  C   UNL     1       0.236   9.942  21.602  0.00  0.00    +0.000 A 
ATOM      7 CL   UNL     1      -0.695  10.616  22.898  0.00  0.00    +0.000 Cl
ENDROOT
BRANCH   1  11
ATOM      8  C   UNL     1      -0.546  14.649  19.603  0.00  0.00    +0.000 A 
ATOM      9  N   UNL     1       0.754  14.345  19.635  0.00  0.00    +0.000 NA
ATOM     10  C   UNL     1       1.051  13.049  19.880  0.00  0.00    +0.000 A 
ATOM     11  C   UNL     1       0.124  12.040  20.114  0.00  0.00    +0.000 A 
ATOM     12  C   UNL     1      -1.179  12.512  20.102  0.00  0.00    +0.000 A 
ATOM     13  N   UNL     1      -1.544  13.787  19.839  0.00  0.00    +0.000 NA
BRANCH   8  15
ATOM     14  C   UNL     1       0.301  16.802  19.545  0.00  0.00    +0.000 C 
ATOM     15  O   UNL     1      -0.838  15.971  19.357  0.00  0.00    +0.000 OA
ENDBRANCH   8  15
ENDBRANCH   1  11
BRANCH   3  16
ATOM     16  C   UNL     1       2.380   7.935  18.496  0.00  0.00    +0.000 C 
ATOM     17  O   UNL     1       2.330   8.492  17.402  0.00  0.00    +0.000 OA
ATOM     18  N   UNL     1       3.022   6.746  18.794  0.00  0.00    +0.000 N 
ATOM     19  H   UNL     1       2.822   6.309  19.685  0.00  0.00    +0.000 HD
BRANCH  18  20
ATOM     20  C   UNL     1       3.798   5.992  17.881  0.00  0.00    +0.000 A 
ATOM     21  C   UNL     1       3.501   4.669  17.543  0.00  0.00    +0.000 A 
ATOM     22  C   UNL     1       4.311   3.964  16.646  0.00  0.00    +0.000 A 
ATOM     23  C   UNL     1       5.419   4.568  16.061  0.00  0.00    +0.000 A 
ATOM     24  C   UNL     1       5.738   5.878  16.411  0.00  0.00    +0.000 A 
ATOM     25  C   UNL     1       4.916   6.596  17.296  0.00  0.00    +0.000 A 
BRANCH  23  26
ATOM     26  O   UNL     1       6.150   3.757  15.248  0.00  0.00    +0.000 OA
BRANCH  26  27
ATOM     27  C   UNL     1       6.150   3.987  13.845  0.00  0.00    +0.000 C 
ATOM     28  F   UNL     1       6.471   2.905  13.104  0.00  0.00    +0.000 F 
ATOM     29  F   UNL     1       4.924   4.410  13.473  0.00  0.00    +0.000 F 
ATOM     30  F   UNL     1       7.040   4.964  13.564  0.00  0.00    +0.000 F 
ENDBRANCH  26  27
ENDBRANCH  23  26
ENDBRANCH  18  20
ENDBRANCH   3  16
TORSDOF 6
ENDMDL
