MODEL 1
REMARK VINA RESULT:      -7.6      0.000      0.000
REMARK  Name = 
REMARK  8 active torsions:
REMARK  status: ('A' for Active; 'I' for Inactive)
REMARK    1  A    between atoms: C_1  and  C_2
REMARK    2  A    between atoms: C_2  and  N_3
REMARK    3  A    between atoms: C_2  and  C_4
REMARK    4  A    between atoms: N_6  and  C_7
REMARK    5  A    between atoms: N_10  and  C_11
REMARK    6  A    between atoms: C_20  and  C_21
REMARK    7  A    between atoms: C_21  and  O_23
REMARK    8  A    between atoms: N_25  and  C_26
REMARK                            x       y       z     vdW  Elec       q    Type
REMARK                         _______ _______ _______ _____ _____    ______ ____
ROOT
ATOM      1  C   UNL     1       4.123   5.860  17.048  0.00  0.00    +0.000 A 
ATOM      2  N   UNL     1       3.529   5.318  18.139  0.00  0.00    +0.000 NA
ATOM      3  C   UNL     1       2.790   6.032  19.019  0.00  0.00    +0.000 A 
ATOM      4  C   UNL     1       2.578   7.404  18.785  0.00  0.00    +0.000 A 
ATOM      5  C   UNL     1       3.160   7.993  17.647  0.00  0.00    +0.000 A 
ATOM      6  C   UNL     1       3.944   7.230  16.784  0.00  0.00    +0.000 A 
ATOM      7  F   UNL     1       4.502   7.830  15.703  0.00  0.00    +0.000 F 
ATOM      8  C   UNL     1       1.802   8.145  19.690  0.00  0.00    +0.000 A 
ATOM      9  O   UNL     1       1.620   9.336  19.490  0.00  0.00    +0.000 OA
ATOM     10  C   UNL     1       1.238   7.511  20.822  0.00  0.00    +0.000 A 
ATOM     11  C   UNL     1       1.489   6.133  21.006  0.00  0.00    +0.000 A 
ATOM     12  N   UNL     1       2.261   5.424  20.127  0.00  0.00    +0.000 N 
ENDROOT
BRANCH   1  16
ATOM     13  C   UNL     1       6.768   4.560  14.818  0.00  0.00    +0.000 C 
ATOM     14  C   UNL     1       7.074   4.098  16.245  0.00  0.00    +0.000 C 
ATOM     15  C   UNL     1       5.677   3.901  16.792  0.00  0.00    +0.000 C 
ATOM     16  N   UNL     1       4.956   5.032  16.242  0.00  0.00    +0.000 N 
ATOM     17  C   UNL     1       5.645   5.570  15.081  0.00  0.00    +0.000 C 
BRANCH  13  20
ATOM     18  C   UNL     1       6.400   3.392  12.660  0.00  0.00    +0.000 C 
ATOM     19  O   UNL     1       7.004   4.263  12.050  0.00  0.00    +0.000 OA
ATOM     20  N   UNL     1       6.250   3.464  14.009  0.00  0.00    +0.000 N 
ATOM     21  H   UNL     1       5.739   2.706  14.484  0.00  0.00    +0.000 HD
BRANCH  18  23
ATOM     22  C   UNL     1       6.868   1.647  10.939  0.00  0.00    +0.000 C 
ATOM     23  C   UNL     1       5.822   2.224  11.898  0.00  0.00    +0.000 C 
BRANCH  23  24
ATOM     24  N   UNL     1       4.615   2.621  11.165  0.00  0.00    +0.000 NA
ATOM     25  H   UNL     1       4.460   2.006  10.333  0.00  0.00    +0.000 HD
ATOM     26  H   UNL     1       4.713   3.607  10.832  0.00  0.00    +0.000 HD
ENDBRANCH  23  24
ENDBRANCH  18  23
ENDBRANCH  13  20
ENDBRANCH   1  16
BRANCH  12  27
ATOM     27  C   UNL     1       2.498   3.983  20.371  0.00  0.00    +0.000 C 
ATOM     28  C   UNL     1       1.595   3.289  21.397  0.00  0.00    +0.000 C 
ATOM     29  C   UNL     1       1.277   3.164  19.929  0.00  0.00    +0.000 C 
ENDBRANCH  12  27
BRANCH  10  30
ATOM     30  C   UNL     1       0.405   8.289  21.804  0.00  0.00    +0.000 C 
ATOM     31  O   UNL     1      -0.797   8.086  21.876  0.00  0.00    +0.000 OA
BRANCH  30  32
ATOM     32  O   UNL     1       0.929   9.226  22.627  0.00  0.00    +0.000 OA
ATOM     33  H   UNL     1       0.883   9.206  23.589  0.00  0.00    +0.000 HD
ENDBRANCH  30  32
ENDBRANCH  10  30
TORSDOF 7
ENDMDL
MODEL 2
REMARK VINA RESULT:      -7.5      4.579      8.596
REMARK  Name = 
REMARK  8 active torsions:
REMARK  status: ('A' for Active; 'I' for Inactive)
REMARK    1  A    between atoms: C_1  and  C_2
REMARK    2  A    between atoms: C_2  and  N_3
REMARK    3  A    between atoms: C_2  and  C_4
REMARK    4  A    between atoms: N_6  and  C_7
REMARK    5  A    between atoms: N_10  and  C_11
REMARK    6  A    between atoms: C_20  and  C_21
REMARK    7  A    between atoms: C_21  and  O_23
REMARK    8  A    between atoms: N_25  and  C_26
REMARK                            x       y       z     vdW  Elec       q    Type
REMARK                         _______ _______ _______ _____ _____    ______ ____
ROOT
ATOM      1  C   UNL     1       1.662   8.124  19.772  0.00  0.00    +0.000 A 
ATOM      2  N   UNL     1       2.563   7.558  18.932  0.00  0.00    +0.000 NA
ATOM      3  C   UNL     1       2.966   6.269  19.027  0.00  0.00    +0.000 A 
ATOM      4  C   UNL     1       2.400   5.443  20.017  0.00  0.00    +0.000 A 
ATOM      5  C   UNL     1       1.443   5.994  20.890  0.00  0.00    +0.000 A 
ATOM      6  C   UNL     1       1.081   7.335  20.781  0.00  0.00    +0.000 A 
ATOM      7  F   UNL     1       0.166   7.838  21.646  0.00  0.00    +0.000 F 
ATOM      8  C   UNL     1       2.807   4.103  20.111  0.00  0.00    +0.000 A 
ATOM      9  O   UNL     1       2.320   3.387  20.971  0.00  0.00    +0.000 OA
ATOM     10  C   UNL     1       3.774   3.594  19.213  0.00  0.00    +0.000 A 
ATOM     11  C   UNL     1       4.309   4.472  18.243  0.00  0.00    +0.000 A 
ATOM     12  N   UNL     1       3.918   5.780  18.172  0.00  0.00    +0.000 N 
ENDROOT
BRANCH   1  16
ATOM     13  C   UNL     1       0.256  11.398  18.791  0.00  0.00    +0.000 C 
ATOM     14  C   UNL     1      -0.238  11.067  20.202  0.00  0.00    +0.000 C 
ATOM     15  C   UNL     1       0.956  10.325  20.761  0.00  0.00    +0.000 C 
ATOM     16  N   UNL     1       1.383   9.514  19.637  0.00  0.00    +0.000 N 
ATOM     17  C   UNL     1       0.879  10.056  18.387  0.00  0.00    +0.000 C 
BRANCH  13  20
ATOM     18  C   UNL     1       1.042  13.748  18.676  0.00  0.00    +0.000 C 
ATOM     19  O   UNL     1      -0.100  14.155  18.519  0.00  0.00    +0.000 OA
ATOM     20  N   UNL     1       1.293  12.420  18.822  0.00  0.00    +0.000 N 
ATOM     21  H   UNL     1       2.270  12.121  18.957  0.00  0.00    +0.000 HD
BRANCH  18  23
ATOM     22  C   UNL     1       1.645  16.166  18.546  0.00  0.00    +0.000 C 
ATOM     23  C   UNL     1       2.180  14.740  18.712  0.00  0.00    +0.000 C 
BRANCH  23  24
ATOM     24  N   UNL     1       3.172  14.439  17.674  0.00  0.00    +0.000 NA
ATOM     25  H   UNL     1       2.708  14.145  16.783  0.00  0.00    +0.000 HD
ATOM     26  H   UNL     1       3.792  13.660  17.995  0.00  0.00    +0.000 HD
ENDBRANCH  23  24
ENDBRANCH  18  23
ENDBRANCH  13  20
ENDBRANCH   1  16
BRANCH  12  27
ATOM     27  C   UNL     1       4.515   6.660  17.140  0.00  0.00    +0.000 C 
ATOM     28  C   UNL     1       6.034   6.582  16.948  0.00  0.00    +0.000 C 
ATOM     29  C   UNL     1       5.131   5.814  16.017  0.00  0.00    +0.000 C 
ENDBRANCH  12  27
BRANCH  10  30
ATOM     30  C   UNL     1       4.225   2.162  19.298  0.00  0.00    +0.000 C 
ATOM     31  O   UNL     1       3.695   1.314  18.597  0.00  0.00    +0.000 OA
BRANCH  30  32
ATOM     32  O   UNL     1       5.206   1.752  20.135  0.00  0.00    +0.000 OA
ATOM     33  H   UNL     1       6.004   1.286  19.865  0.00  0.00    +0.000 HD
ENDBRANCH  30  32
ENDBRANCH  10  30
TORSDOF 7
ENDMDL
MODEL 3
REMARK VINA RESULT:      -7.3      4.236      8.138
REMARK  Name = 
REMARK  8 active torsions:
REMARK  status: ('A' for Active; 'I' for Inactive)
REMARK    1  A    between atoms: C_1  and  C_2
REMARK    2  A    between atoms: C_2  and  N_3
REMARK    3  A    between atoms: C_2  and  C_4
REMARK    4  A    between atoms: N_6  and  C_7
REMARK    5  A    between atoms: N_10  and  C_11
REMARK    6  A    between atoms: C_20  and  C_21
REMARK    7  A    between atoms: C_21  and  O_23
REMARK    8  A    between atoms: N_25  and  C_26
REMARK                            x       y       z     vdW  Elec       q    Type
REMARK                         _______ _______ _______ _____ _____    ______ ____
ROOT
ATOM      1  C   UNL     1       1.836   7.251  19.304  0.00  0.00    +0.000 A 
ATOM      2  N   UNL     1       2.819   6.604  18.631  0.00  0.00    +0.000 NA
ATOM      3  C   UNL     1       3.324   5.408  19.013  0.00  0.00    +0.000 A 
ATOM      4  C   UNL     1       2.784   4.762  20.142  0.00  0.00    +0.000 A 
ATOM      5  C   UNL     1       1.743   5.395  20.848  0.00  0.00    +0.000 A 
ATOM      6  C   UNL     1       1.276   6.643  20.442  0.00  0.00    +0.000 A 
ATOM      7  F   UNL     1       0.282   7.233  21.152  0.00  0.00    +0.000 F 
ATOM      8  C   UNL     1       3.296   3.516  20.534  0.00  0.00    +0.000 A 
ATOM      9  O   UNL     1       2.831   2.957  21.514  0.00  0.00    +0.000 OA
ATOM     10  C   UNL     1       4.344   2.919  19.794  0.00  0.00    +0.000 A 
ATOM     11  C   UNL     1       4.849   3.616  18.674  0.00  0.00    +0.000 A 
ATOM     12  N   UNL     1       4.353   4.838  18.311  0.00  0.00    +0.000 N 
ENDROOT
BRANCH   1  16
ATOM     13  C   UNL     1       1.172  10.878  19.053  0.00  0.00    +0.000 C 
ATOM     14  C   UNL     1       2.387  10.551  18.181  0.00  0.00    +0.000 C 
ATOM     15  C   UNL     1       2.028   9.166  17.687  0.00  0.00    +0.000 C 
ATOM     16  N   UNL     1       1.448   8.549  18.864  0.00  0.00    +0.000 N 
ATOM     17  C   UNL     1       1.005   9.557  19.813  0.00  0.00    +0.000 C 
BRANCH  13  20
ATOM     18  C   UNL     1      -1.247  11.342  18.757  0.00  0.00    +0.000 C 
ATOM     19  O   UNL     1      -1.422  11.366  19.968  0.00  0.00    +0.000 OA
ATOM     20  N   UNL     1      -0.011  11.116  18.237  0.00  0.00    +0.000 N 
ATOM     21  H   UNL     1       0.091  11.110  17.212  0.00  0.00    +0.000 HD
BRANCH  18  23
ATOM     22  C   UNL     1      -3.346  10.349  17.843  0.00  0.00    +0.000 C 
ATOM     23  C   UNL     1      -2.423  11.571  17.838  0.00  0.00    +0.000 C 
BRANCH  23  24
ATOM     24  N   UNL     1      -1.972  11.870  16.475  0.00  0.00    +0.000 NA
ATOM     25  H   UNL     1      -2.087  12.887  16.254  0.00  0.00    +0.000 HD
ATOM     26  H   UNL     1      -2.536  11.319  15.788  0.00  0.00    +0.000 HD
ENDBRANCH  23  24
ENDBRANCH  18  23
ENDBRANCH  13  20
ENDBRANCH   1  16
BRANCH  12  27
ATOM     27  C   UNL     1       4.923   5.529  17.131  0.00  0.00    +0.000 C 
ATOM     28  C   UNL     1       6.267   5.017  16.601  0.00  0.00    +0.000 C 
ATOM     29  C   UNL     1       4.990   4.568  15.936  0.00  0.00    +0.000 C 
ENDBRANCH  12  27
BRANCH  10  30
ATOM     30  C   UNL     1       4.909   1.585  20.199  0.00  0.00    +0.000 C 
ATOM     31  O   UNL     1       5.428   1.451  21.296  0.00  0.00    +0.000 OA
BRANCH  30  32
ATOM     32  O   UNL     1       4.875   0.501  19.390  0.00  0.00    +0.000 OA
ATOM     33  H   UNL     1       4.615  -0.385  19.663  0.00  0.00    +0.000 HD
ENDBRANCH  30  32
ENDBRANCH  10  30
TORSDOF 7
ENDMDL
MODEL 4
REMARK VINA RESULT:      -7.2      3.713      9.263
REMARK  Name = 
REMARK  8 active torsions:
REMARK  status: ('A' for Active; 'I' for Inactive)
REMARK    1  A    between atoms: C_1  and  C_2
REMARK    2  A    between atoms: C_2  and  N_3
REMARK    3  A    between atoms: C_2  and  C_4
REMARK    4  A    between atoms: N_6  and  C_7
REMARK    5  A    between atoms: N_10  and  C_11
REMARK    6  A    between atoms: C_20  and  C_21
REMARK    7  A    between atoms: C_21  and  O_23
REMARK    8  A    between atoms: N_25  and  C_26
REMARK                            x       y       z     vdW  Elec       q    Type
REMARK                         _______ _______ _______ _____ _____    ______ ____
ROOT
ATOM      1  C   UNL     1       1.772   8.430  19.803  0.00  0.00    +0.000 A 
ATOM      2  N   UNL     1       1.914   7.135  20.178  0.00  0.00    +0.000 NA
ATOM      3  C   UNL     1       2.562   6.208  19.434  0.00  0.00    +0.000 A 
ATOM      4  C   UNL     1       3.163   6.598  18.221  0.00  0.00    +0.000 A 
ATOM      5  C   UNL     1       3.055   7.942  17.815  0.00  0.00    +0.000 A 
ATOM      6  C   UNL     1       2.350   8.857  18.594  0.00  0.00    +0.000 A 
ATOM      7  F   UNL     1       2.252  10.141  18.168  0.00  0.00    +0.000 F 
ATOM      8  C   UNL     1       3.845   5.643  17.452  0.00  0.00    +0.000 A 
ATOM      9  O   UNL     1       4.364   5.978  16.400  0.00  0.00    +0.000 OA
ATOM     10  C   UNL     1       3.926   4.303  17.899  0.00  0.00    +0.000 A 
ATOM     11  C   UNL     1       3.300   3.971  19.122  0.00  0.00    +0.000 A 
ATOM     12  N   UNL     1       2.623   4.906  19.854  0.00  0.00    +0.000 N 
ENDROOT
BRANCH   1  16
ATOM     13  C   UNL     1      -1.003  10.213  21.470  0.00  0.00    +0.000 C 
ATOM     14  C   UNL     1      -0.403   9.220  22.468  0.00  0.00    +0.000 C 
ATOM     15  C   UNL     1       1.057   9.251  22.068  0.00  0.00    +0.000 C 
ATOM     16  N   UNL     1       0.990   9.295  20.621  0.00  0.00    +0.000 N 
ATOM     17  C   UNL     1      -0.310   9.769  20.177  0.00  0.00    +0.000 C 
BRANCH  13  20
ATOM     18  C   UNL     1      -1.267  12.367  22.673  0.00  0.00    +0.000 C 
ATOM     19  O   UNL     1      -2.246  11.947  23.274  0.00  0.00    +0.000 OA
ATOM     20  N   UNL     1      -0.606  11.579  21.784  0.00  0.00    +0.000 N 
ATOM     21  H   UNL     1       0.217  11.972  21.303  0.00  0.00    +0.000 HD
BRANCH  18  23
ATOM     22  C   UNL     1      -1.814  14.786  22.400  0.00  0.00    +0.000 C 
ATOM     23  C   UNL     1      -0.792  13.776  22.932  0.00  0.00    +0.000 C 
BRANCH  23  24
ATOM     24  N   UNL     1       0.523  14.007  22.325  0.00  0.00    +0.000 NA
ATOM     25  H   UNL     1       1.241  14.232  23.052  0.00  0.00    +0.000 HD
ATOM     26  H   UNL     1       0.468  14.810  21.657  0.00  0.00    +0.000 HD
ENDBRANCH  23  24
ENDBRANCH  18  23
ENDBRANCH  13  20
ENDBRANCH   1  16
BRANCH  12  27
ATOM     27  C   UNL     1       1.978   4.503  21.125  0.00  0.00    +0.000 C 
ATOM     28  C   UNL     1       1.084   3.259  21.093  0.00  0.00    +0.000 C 
ATOM     29  C   UNL     1       2.507   3.133  21.575  0.00  0.00    +0.000 C 
ENDBRANCH  12  27
BRANCH  10  30
ATOM     30  C   UNL     1       4.651   3.264  17.089  0.00  0.00    +0.000 C 
ATOM     31  O   UNL     1       4.233   2.117  17.056  0.00  0.00    +0.000 OA
BRANCH  30  32
ATOM     32  O   UNL     1       5.772   3.538  16.383  0.00  0.00    +0.000 OA
ATOM     33  H   UNL     1       5.960   4.374  15.945  0.00  0.00    +0.000 HD
ENDBRANCH  30  32
ENDBRANCH  10  30
TORSDOF 7
ENDMDL
MODEL 5
REMARK VINA RESULT:      -7.2      4.455      8.517
REMARK  Name = 
REMARK  8 active torsions:
REMARK  status: ('A' for Active; 'I' for Inactive)
REMARK    1  A    between atoms: C_1  and  C_2
REMARK    2  A    between atoms: C_2  and  N_3
REMARK    3  A    between atoms: C_2  and  C_4
REMARK    4  A    between atoms: N_6  and  C_7
REMARK    5  A    between atoms: N_10  and  C_11
REMARK    6  A    between atoms: C_20  and  C_21
REMARK    7  A    between atoms: C_21  and  O_23
REMARK    8  A    between atoms: N_25  and  C_26
REMARK                            x       y       z     vdW  Elec       q    Type
REMARK                         _______ _______ _______ _____ _____    ______ ____
ROOT
ATOM      1  C   UNL     1       1.632   8.127  19.808  0.00  0.00    +0.000 A 
ATOM      2  N   UNL     1       2.503   7.558  18.938  0.00  0.00    +0.000 NA
ATOM      3  C   UNL     1       2.906   6.269  19.021  0.00  0.00    +0.000 A 
ATOM      4  C   UNL     1       2.373   5.445  20.031  0.00  0.00    +0.000 A 
ATOM      5  C   UNL     1       1.447   5.999  20.935  0.00  0.00    +0.000 A 
ATOM      6  C   UNL     1       1.084   7.340  20.836  0.00  0.00    +0.000 A 
ATOM      7  F   UNL     1       0.199   7.846  21.732  0.00  0.00    +0.000 F 
ATOM      8  C   UNL     1       2.781   4.105  20.113  0.00  0.00    +0.000 A 
ATOM      9  O   UNL     1       2.322   3.390  20.990  0.00  0.00    +0.000 OA
ATOM     10  C   UNL     1       3.717   3.593  19.184  0.00  0.00    +0.000 A 
ATOM     11  C   UNL     1       4.219   4.468  18.195  0.00  0.00    +0.000 A 
ATOM     12  N   UNL     1       3.828   5.777  18.135  0.00  0.00    +0.000 N 
ENDROOT
BRANCH   1  16
ATOM     13  C   UNL     1       1.027  11.537  18.517  0.00  0.00    +0.000 C 
ATOM     14  C   UNL     1      -0.319  10.934  18.928  0.00  0.00    +0.000 C 
ATOM     15  C   UNL     1       0.091  10.090  20.116  0.00  0.00    +0.000 C 
ATOM     16  N   UNL     1       1.351   9.517  19.680  0.00  0.00    +0.000 N 
ATOM     17  C   UNL     1       1.929  10.300  18.601  0.00  0.00    +0.000 C 
BRANCH  13  20
ATOM     18  C   UNL     1       2.432  13.458  19.217  0.00  0.00    +0.000 C 
ATOM     19  O   UNL     1       2.960  13.513  18.115  0.00  0.00    +0.000 OA
ATOM     20  N   UNL     1       1.478  12.528  19.485  0.00  0.00    +0.000 N 
ATOM     21  H   UNL     1       1.055  12.521  20.425  0.00  0.00    +0.000 HD
BRANCH  18  23
ATOM     22  C   UNL     1       3.909  15.402  19.735  0.00  0.00    +0.000 C 
ATOM     23  C   UNL     1       2.847  14.444  20.283  0.00  0.00    +0.000 C 
BRANCH  23  24
ATOM     24  N   UNL     1       3.346  13.748  21.474  0.00  0.00    +0.000 NA
ATOM     25  H   UNL     1       2.562  13.311  22.012  0.00  0.00    +0.000 HD
ATOM     26  H   UNL     1       3.836  14.428  22.100  0.00  0.00    +0.000 HD
ENDBRANCH  23  24
ENDBRANCH  18  23
ENDBRANCH  13  20
ENDBRANCH   1  16
BRANCH  12  27
ATOM     27  C   UNL     1       4.392   6.654  17.083  0.00  0.00    +0.000 C 
ATOM     28  C   UNL     1       5.919   6.724  16.973  0.00  0.00    +0.000 C 
ATOM     29  C   UNL     1       5.152   5.815  16.047  0.00  0.00    +0.000 C 
ENDBRANCH  12  27
BRANCH  10  30
ATOM     30  C   UNL     1       4.167   2.160  19.256  0.00  0.00    +0.000 C 
ATOM     31  O   UNL     1       3.656   1.324  18.527  0.00  0.00    +0.000 OA
BRANCH  30  32
ATOM     32  O   UNL     1       5.128   1.737  20.109  0.00  0.00    +0.000 OA
ATOM     33  H   UNL     1       4.967   1.268  20.935  0.00  0.00    +0.000 HD
ENDBRANCH  30  32
ENDBRANCH  10  30
TORSDOF 7
ENDMDL
MODEL 6
REMARK VINA RESULT:      -7.1      2.904      4.885
REMARK  Name = 
REMARK  8 active torsions:
REMARK  status: ('A' for Active; 'I' for Inactive)
REMARK    1  A    between atoms: C_1  and  C_2
REMARK    2  A    between atoms: C_2  and  N_3
REMARK    3  A    between atoms: C_2  and  C_4
REMARK    4  A    between atoms: N_6  and  C_7
REMARK    5  A    between atoms: N_10  and  C_11
REMARK    6  A    between atoms: C_20  and  C_21
REMARK    7  A    between atoms: C_21  and  O_23
REMARK    8  A    between atoms: N_25  and  C_26
REMARK                            x       y       z     vdW  Elec       q    Type
REMARK                         _______ _______ _______ _____ _____    ______ ____
ROOT
ATOM      1  C   UNL     1       2.205   6.914  19.532  0.00  0.00    +0.000 A 
ATOM      2  N   UNL     1       2.010   8.207  19.176  0.00  0.00    +0.000 NA
ATOM      3  C   UNL     1       1.325   9.096  19.934  0.00  0.00    +0.000 A 
ATOM      4  C   UNL     1       0.816   8.687  21.182  0.00  0.00    +0.000 A 
ATOM      5  C   UNL     1       1.024   7.356  21.593  0.00  0.00    +0.000 A 
ATOM      6  C   UNL     1       1.704   6.464  20.767  0.00  0.00    +0.000 A 
ATOM      7  F   UNL     1       1.875   5.185  21.186  0.00  0.00    +0.000 F 
ATOM      8  C   UNL     1       0.116   9.608  21.975  0.00  0.00    +0.000 A 
ATOM      9  O   UNL     1      -0.329   9.254  23.056  0.00  0.00    +0.000 OA
ATOM     10  C   UNL     1      -0.070  10.934  21.520  0.00  0.00    +0.000 A 
ATOM     11  C   UNL     1       0.460  11.285  20.258  0.00  0.00    +0.000 A 
ATOM     12  N   UNL     1       1.126  10.374  19.486  0.00  0.00    +0.000 N 
ENDROOT
BRANCH   1  16
ATOM     13  C   UNL     1       4.363   4.354  17.967  0.00  0.00    +0.000 C 
ATOM     14  C   UNL     1       2.935   3.808  18.023  0.00  0.00    +0.000 C 
ATOM     15  C   UNL     1       2.130   5.074  17.821  0.00  0.00    +0.000 C 
ATOM     16  N   UNL     1       2.860   6.045  18.613  0.00  0.00    +0.000 N 
ATOM     17  C   UNL     1       4.224   5.602  18.846  0.00  0.00    +0.000 C 
BRANCH  13  20
ATOM     18  C   UNL     1       5.973   4.638  16.100  0.00  0.00    +0.000 C 
ATOM     19  O   UNL     1       6.880   4.161  16.769  0.00  0.00    +0.000 OA
ATOM     20  N   UNL     1       4.720   4.758  16.613  0.00  0.00    +0.000 N 
ATOM     21  H   UNL     1       3.985   5.160  16.013  0.00  0.00    +0.000 HD
BRANCH  18  23
ATOM     22  C   UNL     1       5.935   3.967  13.697  0.00  0.00    +0.000 C 
ATOM     23  C   UNL     1       6.258   5.090  14.688  0.00  0.00    +0.000 C 
BRANCH  23  24
ATOM     24  N   UNL     1       7.654   5.517  14.546  0.00  0.00    +0.000 NA
ATOM     25  H   UNL     1       8.218   5.249  15.385  0.00  0.00    +0.000 HD
ATOM     26  H   UNL     1       7.695   6.557  14.440  0.00  0.00    +0.000 HD
ENDBRANCH  23  24
ENDBRANCH  18  23
ENDBRANCH  13  20
ENDBRANCH   1  16
BRANCH  12  27
ATOM     27  C   UNL     1       1.655  10.793  18.167  0.00  0.00    +0.000 C 
ATOM     28  C   UNL     1       1.369  12.232  17.722  0.00  0.00    +0.000 C 
ATOM     29  C   UNL     1       2.702  11.901  18.345  0.00  0.00    +0.000 C 
ENDBRANCH  12  27
BRANCH  10  30
ATOM     30  C   UNL     1      -0.819  11.936  22.355  0.00  0.00    +0.000 C 
ATOM     31  O   UNL     1      -0.365  13.059  22.513  0.00  0.00    +0.000 OA
BRANCH  30  32
ATOM     32  O   UNL     1      -1.995  11.651  22.961  0.00  0.00    +0.000 OA
ATOM     33  H   UNL     1      -2.755  12.241  22.999  0.00  0.00    +0.000 HD
ENDBRANCH  30  32
ENDBRANCH  10  30
TORSDOF 7
ENDMDL
MODEL 7
REMARK VINA RESULT:      -7.1      4.358      9.047
REMARK  Name = 
REMARK  8 active torsions:
REMARK  status: ('A' for Active; 'I' for Inactive)
REMARK    1  A    between atoms: C_1  and  C_2
REMARK    2  A    between atoms: C_2  and  N_3
REMARK    3  A    between atoms: C_2  and  C_4
REMARK    4  A    between atoms: N_6  and  C_7
REMARK    5  A    between atoms: N_10  and  C_11
REMARK    6  A    between atoms: C_20  and  C_21
REMARK    7  A    between atoms: C_21  and  O_23
REMARK    8  A    between atoms: N_25  and  C_26
REMARK                            x       y       z     vdW  Elec       q    Type
REMARK                         _______ _______ _______ _____ _____    ______ ____
ROOT
ATOM      1  C   UNL     1       1.443   8.191  19.791  0.00  0.00    +0.000 A 
ATOM      2  N   UNL     1       2.384   7.663  18.971  0.00  0.00    +0.000 NA
ATOM      3  C   UNL     1       2.872   6.408  19.104  0.00  0.00    +0.000 A 
ATOM      4  C   UNL     1       2.358   5.573  20.115  0.00  0.00    +0.000 A 
ATOM      5  C   UNL     1       1.360   6.082  20.968  0.00  0.00    +0.000 A 
ATOM      6  C   UNL     1       0.910   7.392  20.819  0.00  0.00    +0.000 A 
ATOM      7  F   UNL     1      -0.042   7.857  21.667  0.00  0.00    +0.000 F 
ATOM      8  C   UNL     1       2.853   4.267  20.248  0.00  0.00    +0.000 A 
ATOM      9  O   UNL     1       2.410   3.544  21.126  0.00  0.00    +0.000 OA
ATOM     10  C   UNL     1       3.857   3.799  19.369  0.00  0.00    +0.000 A 
ATOM     11  C   UNL     1       4.337   4.683  18.376  0.00  0.00    +0.000 A 
ATOM     12  N   UNL     1       3.860   5.960  18.266  0.00  0.00    +0.000 N 
ENDROOT
BRANCH   1  16
ATOM     13  C   UNL     1       1.220  11.875  19.973  0.00  0.00    +0.000 C 
ATOM     14  C   UNL     1       1.852  11.498  18.630  0.00  0.00    +0.000 C 
ATOM     15  C   UNL     1       1.128  10.205  18.321  0.00  0.00    +0.000 C 
ATOM     16  N   UNL     1       1.072   9.554  19.616  0.00  0.00    +0.000 N 
ATOM     17  C   UNL     1       1.245  10.519  20.688  0.00  0.00    +0.000 C 
BRANCH  13  20
ATOM     18  C   UNL     1      -0.830  13.058  20.715  0.00  0.00    +0.000 C 
ATOM     19  O   UNL     1      -0.281  13.430  21.743  0.00  0.00    +0.000 OA
ATOM     20  N   UNL     1      -0.161  12.304  19.803  0.00  0.00    +0.000 N 
ATOM     21  H   UNL     1      -0.661  12.017  18.949  0.00  0.00    +0.000 HD
BRANCH  18  23
ATOM     22  C   UNL     1      -3.114  13.190  21.713  0.00  0.00    +0.000 C 
ATOM     23  C   UNL     1      -2.266  13.451  20.464  0.00  0.00    +0.000 C 
BRANCH  23  24
ATOM     24  N   UNL     1      -2.813  12.729  19.310  0.00  0.00    +0.000 NA
ATOM     25  H   UNL     1      -2.269  11.856  19.119  0.00  0.00    +0.000 HD
ATOM     26  H   UNL     1      -2.769  13.337  18.460  0.00  0.00    +0.000 HD
ENDBRANCH  23  24
ENDBRANCH  18  23
ENDBRANCH  13  20
ENDBRANCH   1  16
BRANCH  12  27
ATOM     27  C   UNL     1       4.403   6.848  17.213  0.00  0.00    +0.000 C 
ATOM     28  C   UNL     1       5.924   6.861  17.023  0.00  0.00    +0.000 C 
ATOM     29  C   UNL     1       5.072   6.014  16.112  0.00  0.00    +0.000 C 
ENDBRANCH  12  27
BRANCH  10  30
ATOM     30  C   UNL     1       4.403   2.403  19.496  0.00  0.00    +0.000 C 
ATOM     31  O   UNL     1       5.172   2.131  20.404  0.00  0.00    +0.000 OA
BRANCH  30  32
ATOM     32  O   UNL     1       4.082   1.411  18.634  0.00  0.00    +0.000 OA
ATOM     33  H   UNL     1       3.186   1.119  18.435  0.00  0.00    +0.000 HD
ENDBRANCH  30  32
ENDBRANCH  10  30
TORSDOF 7
ENDMDL
MODEL 8
REMARK VINA RESULT:      -7.0      4.357      6.775
REMARK  Name = 
REMARK  8 active torsions:
REMARK  status: ('A' for Active; 'I' for Inactive)
REMARK    1  A    between atoms: C_1  and  C_2
REMARK    2  A    between atoms: C_2  and  N_3
REMARK    3  A    between atoms: C_2  and  C_4
REMARK    4  A    between atoms: N_6  and  C_7
REMARK    5  A    between atoms: N_10  and  C_11
REMARK    6  A    between atoms: C_20  and  C_21
REMARK    7  A    between atoms: C_21  and  O_23
REMARK    8  A    between atoms: N_25  and  C_26
REMARK                            x       y       z     vdW  Elec       q    Type
REMARK                         _______ _______ _______ _____ _____    ______ ____
ROOT
ATOM      1  C   UNL     1       1.055   9.211  20.312  0.00  0.00    +0.000 A 
ATOM      2  N   UNL     1       0.168   9.878  19.534  0.00  0.00    +0.000 NA
ATOM      3  C   UNL     1      -0.753  10.741  20.023  0.00  0.00    +0.000 A 
ATOM      4  C   UNL     1      -0.781  11.006  21.405  0.00  0.00    +0.000 A 
ATOM      5  C   UNL     1       0.144  10.348  22.238  0.00  0.00    +0.000 A 
ATOM      6  C   UNL     1       1.053   9.441  21.699  0.00  0.00    +0.000 A 
ATOM      7  F   UNL     1       1.923   8.813  22.530  0.00  0.00    +0.000 F 
ATOM      8  C   UNL     1      -1.727  11.908  21.915  0.00  0.00    +0.000 A 
ATOM      9  O   UNL     1      -1.755  12.137  23.114  0.00  0.00    +0.000 OA
ATOM     10  C   UNL     1      -2.639  12.544  21.040  0.00  0.00    +0.000 A 
ATOM     11  C   UNL     1      -2.566  12.235  19.663  0.00  0.00    +0.000 A 
ATOM     12  N   UNL     1      -1.650  11.341  19.180  0.00  0.00    +0.000 N 
ENDROOT
BRANCH   1  16
ATOM     13  C   UNL     1       2.576   6.111  18.993  0.00  0.00    +0.000 C 
ATOM     14  C   UNL     1       2.039   6.923  17.811  0.00  0.00    +0.000 C 
ATOM     15  C   UNL     1       2.278   8.336  18.297  0.00  0.00    +0.000 C 
ATOM     16  N   UNL     1       1.917   8.257  19.699  0.00  0.00    +0.000 N 
ATOM     17  C   UNL     1       1.963   6.882  20.168  0.00  0.00    +0.000 C 
BRANCH  13  20
ATOM     18  C   UNL     1       4.862   5.295  18.480  0.00  0.00    +0.000 C 
ATOM     19  O   UNL     1       4.415   4.360  17.829  0.00  0.00    +0.000 OA
ATOM     20  N   UNL     1       4.028   6.192  19.071  0.00  0.00    +0.000 N 
ATOM     21  H   UNL     1       4.447   6.966  19.606  0.00  0.00    +0.000 HD
BRANCH  18  23
ATOM     22  C   UNL     1       6.856   6.598  17.738  0.00  0.00    +0.000 C 
ATOM     23  C   UNL     1       6.357   5.448  18.619  0.00  0.00    +0.000 C 
BRANCH  23  24
ATOM     24  N   UNL     1       7.047   4.200  18.276  0.00  0.00    +0.000 NA
ATOM     25  H   UNL     1       7.079   3.549  19.095  0.00  0.00    +0.000 HD
ATOM     26  H   UNL     1       8.028   4.409  17.982  0.00  0.00    +0.000 HD
ENDBRANCH  23  24
ENDBRANCH  18  23
ENDBRANCH  13  20
ENDBRANCH   1  16
BRANCH  12  27
ATOM     27  C   UNL     1      -1.621  11.048  17.728  0.00  0.00    +0.000 C 
ATOM     28  C   UNL     1      -2.450   9.856  17.238  0.00  0.00    +0.000 C 
ATOM     29  C   UNL     1      -3.016  11.249  17.120  0.00  0.00    +0.000 C 
ENDBRANCH  12  27
BRANCH  10  30
ATOM     30  C   UNL     1      -3.662  13.514  21.566  0.00  0.00    +0.000 C 
ATOM     31  O   UNL     1      -4.845  13.351  21.308  0.00  0.00    +0.000 OA
BRANCH  30  32
ATOM     32  O   UNL     1      -3.333  14.585  22.323  0.00  0.00    +0.000 OA
ATOM     33  H   UNL     1      -3.896  14.981  22.997  0.00  0.00    +0.000 HD
ENDBRANCH  30  32
ENDBRANCH  10  30
TORSDOF 7
ENDMDL
MODEL 9
REMARK VINA RESULT:      -6.8      4.025      8.994
REMARK  Name = 
REMARK  8 active torsions:
REMARK  status: ('A' for Active; 'I' for Inactive)
REMARK    1  A    between atoms: C_1  and  C_2
REMARK    2  A    between atoms: C_2  and  N_3
REMARK    3  A    between atoms: C_2  and  C_4
REMARK    4  A    between atoms: N_6  and  C_7
REMARK    5  A    between atoms: N_10  and  C_11
REMARK    6  A    between atoms: C_20  and  C_21
REMARK    7  A    between atoms: C_21  and  O_23
REMARK    8  A    between atoms: N_25  and  C_26
REMARK                            x       y       z     vdW  Elec       q    Type
REMARK                         _______ _______ _______ _____ _____    ______ ____
ROOT
ATOM      1  C   UNL     1       1.810   8.744  19.287  0.00  0.00    +0.000 A 
ATOM      2  N   UNL     1       1.840   7.458  19.714  0.00  0.00    +0.000 NA
ATOM      3  C   UNL     1       2.533   6.478  19.087  0.00  0.00    +0.000 A 
ATOM      4  C   UNL     1       3.305   6.799  17.954  0.00  0.00    +0.000 A 
ATOM      5  C   UNL     1       3.316   8.132  17.500  0.00  0.00    +0.000 A 
ATOM      6  C   UNL     1       2.561   9.103  18.153  0.00  0.00    +0.000 A 
ATOM      7  F   UNL     1       2.582  10.375  17.682  0.00  0.00    +0.000 F 
ATOM      8  C   UNL     1       4.034   5.789  17.309  0.00  0.00    +0.000 A 
ATOM      9  O   UNL     1       4.701   6.064  16.324  0.00  0.00    +0.000 OA
ATOM     10  C   UNL     1       3.991   4.463  17.800  0.00  0.00    +0.000 A 
ATOM     11  C   UNL     1       3.195   4.201  18.938  0.00  0.00    +0.000 A 
ATOM     12  N   UNL     1       2.475   5.190  19.549  0.00  0.00    +0.000 N 
ENDROOT
BRANCH   1  16
ATOM     13  C   UNL     1      -1.078  10.573  20.691  0.00  0.00    +0.000 C 
ATOM     14  C   UNL     1      -0.410   9.789  21.823  0.00  0.00    +0.000 C 
ATOM     15  C   UNL     1       1.044   9.857  21.406  0.00  0.00    +0.000 C 
ATOM     16  N   UNL     1       0.972   9.671  19.970  0.00  0.00    +0.000 N 
ATOM     17  C   UNL     1      -0.358   9.981  19.474  0.00  0.00    +0.000 C 
BRANCH  13  20
ATOM     18  C   UNL     1      -1.634  12.971  20.389  0.00  0.00    +0.000 C 
ATOM     19  O   UNL     1      -2.735  12.691  19.935  0.00  0.00    +0.000 OA
ATOM     20  N   UNL     1      -0.776  11.994  20.784  0.00  0.00    +0.000 N 
ATOM     21  H   UNL     1       0.140  12.276  21.165  0.00  0.00    +0.000 HD
BRANCH  18  23
ATOM     22  C   UNL     1      -2.404  15.248  21.062  0.00  0.00    +0.000 C 
ATOM     23  C   UNL     1      -1.236  14.422  20.512  0.00  0.00    +0.000 C 
BRANCH  23  24
ATOM     24  N   UNL     1      -0.792  14.956  19.220  0.00  0.00    +0.000 NA
ATOM     25  H   UNL     1      -1.542  14.866  18.497  0.00  0.00    +0.000 HD
ATOM     26  H   UNL     1       0.048  14.427  18.891  0.00  0.00    +0.000 HD
ENDBRANCH  23  24
ENDBRANCH  18  23
ENDBRANCH  13  20
ENDBRANCH   1  16
BRANCH  12  27
ATOM     27  C   UNL     1       1.652   4.860  20.735  0.00  0.00    +0.000 C 
ATOM     28  C   UNL     1       1.083   3.439  20.819  0.00  0.00    +0.000 C 
ATOM     29  C   UNL     1       2.344   3.776  21.574  0.00  0.00    +0.000 C 
ENDBRANCH  12  27
BRANCH  10  30
ATOM     30  C   UNL     1       4.763   3.365  17.122  0.00  0.00    +0.000 C 
ATOM     31  O   UNL     1       4.376   2.210  17.200  0.00  0.00    +0.000 OA
BRANCH  30  32
ATOM     32  O   UNL     1       5.896   3.594  16.418  0.00  0.00    +0.000 OA
ATOM     33  H   UNL     1       6.207   3.060  15.680  0.00  0.00    +0.000 HD
ENDBRANCH  30  32
ENDBRANCH  10  30
TORSDOF 7
ENDMDL
