MODEL 1
REMARK VINA RESULT:      -7.5      0.000      0.000
REMARK  Name = 
REMARK  6 active torsions:
REMARK  status: ('A' for Active; 'I' for Inactive)
REMARK    1  A    between atoms: C_2  and  C_3
REMARK    2  A    between atoms: C_3  and  C_4
REMARK    3  A    between atoms: N_6  and  N_7
REMARK    4  A    between atoms: N_7  and  C_8
REMARK    5  A    between atoms: C_13  and  O_14
REMARK    6  A    between atoms: O_14  and  C_15
REMARK                            x       y       z     vdW  Elec       q    Type
REMARK                         _______ _______ _______ _____ _____    ______ ____
ROOT
ATOM      1  C   UNL     1       3.729   3.473  19.364  0.00  0.00    +0.000 A 
ATOM      2  C   UNL     1       3.045   2.281  19.039  0.00  0.00    +0.000 A 
ATOM      3  C   UNL     1       1.671   2.140  19.230  0.00  0.00    +0.000 A 
ATOM      4  C   UNL     1       0.939   3.198  19.747  0.00  0.00    +0.000 A 
ATOM      5  C   UNL     1       1.579   4.406  20.015  0.00  0.00    +0.000 A 
ATOM      6  C   UNL     1       2.957   4.578  19.776  0.00  0.00    +0.000 A 
ENDROOT
BRANCH   1   7
ATOM      7  N   UNL     1       5.116   3.451  19.044  0.00  0.00    +0.000 N 
ATOM      8  H   UNL     1       5.449   2.503  19.271  0.00  0.00    +0.000 HD
BRANCH   7  10
ATOM      9  C   UNL     1       6.499   4.873  17.895  0.00  0.00    +0.000 C 
ATOM     10  N   UNL     1       5.528   4.010  17.866  0.00  0.00    +0.000 NA
BRANCH   9  12
ATOM     11  N   UNL     1       7.287   5.711  15.569  0.00  0.00    +0.000 NA
ATOM     12  C   UNL     1       6.919   5.355  16.612  0.00  0.00    +0.000 C 
ENDBRANCH   9  12
BRANCH   9  13
ATOM     13  C   UNL     1       7.136   5.261  19.128  0.00  0.00    +0.000 C 
ATOM     14  N   UNL     1       7.658   5.539  20.123  0.00  0.00    +0.000 NA
ENDBRANCH   9  13
ENDBRANCH   7  10
ENDBRANCH   1   7
BRANCH   6  15
ATOM     15  O   UNL     1       3.345   5.877  20.013  0.00  0.00    +0.000 OA
BRANCH  15  16
ATOM     16  C   UNL     1       2.684   6.969  19.515  0.00  0.00    +0.000 A 
ATOM     17  C   UNL     1       1.752   7.500  20.423  0.00  0.00    +0.000 A 
ATOM     18  C   UNL     1       1.078   8.690  20.145  0.00  0.00    +0.000 A 
ATOM     19  C   UNL     1       1.346   9.360  18.959  0.00  0.00    +0.000 A 
ATOM     20 CL   UNL     1       0.642  10.899  18.663  0.00  0.00    +0.000 Cl
ATOM     21  C   UNL     1       2.203   8.805  18.011  0.00  0.00    +0.000 A 
ATOM     22  C   UNL     1       2.824   7.575  18.260  0.00  0.00    +0.000 A 
ATOM     23 CL   UNL     1       3.731   6.910  16.947  0.00  0.00    +0.000 Cl
ENDBRANCH  15  16
ENDBRANCH   6  15
TORSDOF 6
ENDMDL
MODEL 2
REMARK VINA RESULT:      -7.4      1.780      2.430
REMARK  Name = 
REMARK  6 active torsions:
REMARK  status: ('A' for Active; 'I' for Inactive)
REMARK    1  A    between atoms: C_2  and  C_3
REMARK    2  A    between atoms: C_3  and  C_4
REMARK    3  A    between atoms: N_6  and  N_7
REMARK    4  A    between atoms: N_7  and  C_8
REMARK    5  A    between atoms: C_13  and  O_14
REMARK    6  A    between atoms: O_14  and  C_15
REMARK                            x       y       z     vdW  Elec       q    Type
REMARK                         _______ _______ _______ _____ _____    ______ ____
ROOT
ATOM      1  C   UNL     1       2.734   4.352  18.499  0.00  0.00    +0.000 A 
ATOM      2  C   UNL     1       1.953   3.177  18.429  0.00  0.00    +0.000 A 
ATOM      3  C   UNL     1       0.951   2.898  19.359  0.00  0.00    +0.000 A 
ATOM      4  C   UNL     1       0.697   3.797  20.383  0.00  0.00    +0.000 A 
ATOM      5  C   UNL     1       1.410   4.994  20.436  0.00  0.00    +0.000 A 
ATOM      6  C   UNL     1       2.387   5.311  19.472  0.00  0.00    +0.000 A 
ENDROOT
BRANCH   1   7
ATOM      7  N   UNL     1       3.665   4.492  17.431  0.00  0.00    +0.000 N 
ATOM      8  H   UNL     1       3.452   5.392  16.979  0.00  0.00    +0.000 HD
BRANCH   7  10
ATOM      9  C   UNL     1       5.892   4.885  17.056  0.00  0.00    +0.000 C 
ATOM     10  N   UNL     1       4.977   4.185  17.658  0.00  0.00    +0.000 NA
BRANCH   9  12
ATOM     11  N   UNL     1       8.319   4.237  17.709  0.00  0.00    +0.000 NA
ATOM     12  C   UNL     1       7.241   4.547  17.406  0.00  0.00    +0.000 C 
ENDBRANCH   9  12
BRANCH   9  13
ATOM     13  C   UNL     1       5.559   5.956  16.152  0.00  0.00    +0.000 C 
ATOM     14  N   UNL     1       5.307   6.798  15.399  0.00  0.00    +0.000 NA
ENDBRANCH   9  13
ENDBRANCH   7  10
ENDBRANCH   1   7
BRANCH   6  15
ATOM     15  O   UNL     1       2.881   6.581  19.663  0.00  0.00    +0.000 OA
BRANCH  15  16
ATOM     16  C   UNL     1       2.150   7.720  19.442  0.00  0.00    +0.000 A 
ATOM     17  C   UNL     1       2.109   8.085  18.086  0.00  0.00    +0.000 A 
ATOM     18  C   UNL     1       1.306   9.140  17.652  0.00  0.00    +0.000 A 
ATOM     19  C   UNL     1       0.529   9.827  18.576  0.00  0.00    +0.000 A 
ATOM     20 CL   UNL     1      -0.577  11.028  18.044  0.00  0.00    +0.000 Cl
ATOM     21  C   UNL     1       0.622   9.533  19.934  0.00  0.00    +0.000 A 
ATOM     22  C   UNL     1       1.482   8.521  20.378  0.00  0.00    +0.000 A 
ATOM     23 CL   UNL     1       1.636   8.361  22.092  0.00  0.00    +0.000 Cl
ENDBRANCH  15  16
ENDBRANCH   6  15
TORSDOF 6
ENDMDL
MODEL 3
REMARK VINA RESULT:      -7.4      3.348      5.914
REMARK  Name = 
REMARK  6 active torsions:
REMARK  status: ('A' for Active; 'I' for Inactive)
REMARK    1  A    between atoms: C_2  and  C_3
REMARK    2  A    between atoms: C_3  and  C_4
REMARK    3  A    between atoms: N_6  and  N_7
REMARK    4  A    between atoms: N_7  and  C_8
REMARK    5  A    between atoms: C_13  and  O_14
REMARK    6  A    between atoms: O_14  and  C_15
REMARK                            x       y       z     vdW  Elec       q    Type
REMARK                         _______ _______ _______ _____ _____    ______ ____
ROOT
ATOM      1  C   UNL     1       2.220   5.498  20.048  0.00  0.00    +0.000 A 
ATOM      2  C   UNL     1       1.142   4.697  20.485  0.00  0.00    +0.000 A 
ATOM      3  C   UNL     1       1.250   3.311  20.600  0.00  0.00    +0.000 A 
ATOM      4  C   UNL     1       2.449   2.689  20.288  0.00  0.00    +0.000 A 
ATOM      5  C   UNL     1       3.546   3.463  19.916  0.00  0.00    +0.000 A 
ATOM      6  C   UNL     1       3.465   4.868  19.848  0.00  0.00    +0.000 A 
ENDROOT
BRANCH   1   7
ATOM      7  N   UNL     1       1.941   6.895  20.051  0.00  0.00    +0.000 N 
ATOM      8  H   UNL     1       1.329   7.069  19.242  0.00  0.00    +0.000 HD
BRANCH   7  10
ATOM      9  C   UNL     1       1.148   8.708  21.208  0.00  0.00    +0.000 C 
ATOM     10  N   UNL     1       1.623   7.498  21.236  0.00  0.00    +0.000 NA
BRANCH   9  12
ATOM     11  N   UNL     1       0.446   9.632  23.529  0.00  0.00    +0.000 NA
ATOM     12  C   UNL     1       0.771   9.240  22.485  0.00  0.00    +0.000 C 
ENDBRANCH   9  12
BRANCH   9  13
ATOM     13  C   UNL     1       0.964   9.426  19.972  0.00  0.00    +0.000 C 
ATOM     14  N   UNL     1       0.815   9.971  18.962  0.00  0.00    +0.000 NA
ENDBRANCH   9  13
ENDBRANCH   7  10
ENDBRANCH   1   7
BRANCH   6  15
ATOM     15  O   UNL     1       4.692   5.425  19.565  0.00  0.00    +0.000 OA
BRANCH  15  16
ATOM     16  C   UNL     1       5.216   5.501  18.301  0.00  0.00    +0.000 A 
ATOM     17  C   UNL     1       6.339   4.674  18.128  0.00  0.00    +0.000 A 
ATOM     18  C   UNL     1       6.928   4.519  16.873  0.00  0.00    +0.000 A 
ATOM     19  C   UNL     1       6.385   5.183  15.781  0.00  0.00    +0.000 A 
ATOM     20 CL   UNL     1       7.000   4.891  14.204  0.00  0.00    +0.000 Cl
ATOM     21  C   UNL     1       5.325   6.072  15.950  0.00  0.00    +0.000 A 
ATOM     22  C   UNL     1       4.780   6.282  17.223  0.00  0.00    +0.000 A 
ATOM     23 CL   UNL     1       3.585   7.527  17.335  0.00  0.00    +0.000 Cl
ENDBRANCH  15  16
ENDBRANCH   6  15
TORSDOF 6
ENDMDL
MODEL 4
REMARK VINA RESULT:      -7.3      1.388      1.962
REMARK  Name = 
REMARK  6 active torsions:
REMARK  status: ('A' for Active; 'I' for Inactive)
REMARK    1  A    between atoms: C_2  and  C_3
REMARK    2  A    between atoms: C_3  and  C_4
REMARK    3  A    between atoms: N_6  and  N_7
REMARK    4  A    between atoms: N_7  and  C_8
REMARK    5  A    between atoms: C_13  and  O_14
REMARK    6  A    between atoms: O_14  and  C_15
REMARK                            x       y       z     vdW  Elec       q    Type
REMARK                         _______ _______ _______ _____ _____    ______ ____
ROOT
ATOM      1  C   UNL     1       2.729   4.463  18.619  0.00  0.00    +0.000 A 
ATOM      2  C   UNL     1       2.040   3.291  18.241  0.00  0.00    +0.000 A 
ATOM      3  C   UNL     1       1.003   2.761  19.009  0.00  0.00    +0.000 A 
ATOM      4  C   UNL     1       0.621   3.402  20.178  0.00  0.00    +0.000 A 
ATOM      5  C   UNL     1       1.243   4.595  20.539  0.00  0.00    +0.000 A 
ATOM      6  C   UNL     1       2.254   5.168  19.744  0.00  0.00    +0.000 A 
ENDROOT
BRANCH   1   7
ATOM      7  N   UNL     1       3.715   4.884  17.681  0.00  0.00    +0.000 N 
ATOM      8  H   UNL     1       3.541   5.883  17.508  0.00  0.00    +0.000 HD
BRANCH   7  10
ATOM      9  C   UNL     1       5.930   4.993  17.102  0.00  0.00    +0.000 C 
ATOM     10  N   UNL     1       5.008   4.480  17.861  0.00  0.00    +0.000 NA
BRANCH   9  12
ATOM     11  N   UNL     1       8.338   4.223  17.691  0.00  0.00    +0.000 NA
ATOM     12  C   UNL     1       7.267   4.573  17.404  0.00  0.00    +0.000 C 
ENDBRANCH   9  12
BRANCH   9  13
ATOM     13  C   UNL     1       5.622   5.955  16.074  0.00  0.00    +0.000 C 
ATOM     14  N   UNL     1       5.405   6.718  15.231  0.00  0.00    +0.000 NA
ENDBRANCH   9  13
ENDBRANCH   7  10
ENDBRANCH   1   7
BRANCH   6  15
ATOM     15  O   UNL     1       2.644   6.392  20.238  0.00  0.00    +0.000 OA
BRANCH  15  16
ATOM     16  C   UNL     1       1.931   7.547  20.052  0.00  0.00    +0.000 A 
ATOM     17  C   UNL     1       1.089   7.847  21.136  0.00  0.00    +0.000 A 
ATOM     18  C   UNL     1       0.384   9.050  21.185  0.00  0.00    +0.000 A 
ATOM     19  C   UNL     1       0.531   9.965  20.152  0.00  0.00    +0.000 A 
ATOM     20 CL   UNL     1      -0.208  11.512  20.262  0.00  0.00    +0.000 Cl
ATOM     21  C   UNL     1       1.295   9.649  19.030  0.00  0.00    +0.000 A 
ATOM     22  C   UNL     1       1.944   8.411  18.949  0.00  0.00    +0.000 A 
ATOM     23 CL   UNL     1       2.722   8.066  17.444  0.00  0.00    +0.000 Cl
ENDBRANCH  15  16
ENDBRANCH   6  15
TORSDOF 6
ENDMDL
MODEL 5
REMARK VINA RESULT:      -7.3      3.226      5.549
REMARK  Name = 
REMARK  6 active torsions:
REMARK  status: ('A' for Active; 'I' for Inactive)
REMARK    1  A    between atoms: C_2  and  C_3
REMARK    2  A    between atoms: C_3  and  C_4
REMARK    3  A    between atoms: N_6  and  N_7
REMARK    4  A    between atoms: N_7  and  C_8
REMARK    5  A    between atoms: C_13  and  O_14
REMARK    6  A    between atoms: O_14  and  C_15
REMARK                            x       y       z     vdW  Elec       q    Type
REMARK                         _______ _______ _______ _____ _____    ______ ____
ROOT
ATOM      1  C   UNL     1       2.236   5.346  20.360  0.00  0.00    +0.000 A 
ATOM      2  C   UNL     1       1.161   4.476  20.647  0.00  0.00    +0.000 A 
ATOM      3  C   UNL     1       1.190   3.124  20.305  0.00  0.00    +0.000 A 
ATOM      4  C   UNL     1       2.308   2.603  19.671  0.00  0.00    +0.000 A 
ATOM      5  C   UNL     1       3.408   3.425  19.435  0.00  0.00    +0.000 A 
ATOM      6  C   UNL     1       3.410   4.779  19.824  0.00  0.00    +0.000 A 
ENDROOT
BRANCH   1   7
ATOM      7  N   UNL     1       2.050   6.674  20.837  0.00  0.00    +0.000 N 
ATOM      8  H   UNL     1       2.847   6.872  21.458  0.00  0.00    +0.000 HD
BRANCH   7  10
ATOM      9  C   UNL     1       1.279   8.792  20.417  0.00  0.00    +0.000 C 
ATOM     10  N   UNL     1       1.672   7.644  19.951  0.00  0.00    +0.000 NA
BRANCH   9  12
ATOM     11  N   UNL     1       0.766  10.577  18.605  0.00  0.00    +0.000 NA
ATOM     12  C   UNL     1       0.972   9.777  19.422  0.00  0.00    +0.000 C 
ENDBRANCH   9  12
BRANCH   9  13
ATOM     13  C   UNL     1       1.220   9.059  21.832  0.00  0.00    +0.000 C 
ATOM     14  N   UNL     1       1.154   9.305  22.961  0.00  0.00    +0.000 NA
ENDBRANCH   9  13
ENDBRANCH   7  10
ENDBRANCH   1   7
BRANCH   6  15
ATOM     15  O   UNL     1       4.634   5.363  19.588  0.00  0.00    +0.000 OA
BRANCH  15  16
ATOM     16  C   UNL     1       5.196   5.468  18.341  0.00  0.00    +0.000 A 
ATOM     17  C   UNL     1       6.365   4.700  18.206  0.00  0.00    +0.000 A 
ATOM     18  C   UNL     1       7.003   4.577  16.972  0.00  0.00    +0.000 A 
ATOM     19  C   UNL     1       6.462   5.214  15.862  0.00  0.00    +0.000 A 
ATOM     20 CL   UNL     1       7.144   4.955  14.306  0.00  0.00    +0.000 Cl
ATOM     21  C   UNL     1       5.353   6.046  15.995  0.00  0.00    +0.000 A 
ATOM     22  C   UNL     1       4.756   6.227  17.249  0.00  0.00    +0.000 A 
ATOM     23 CL   UNL     1       3.495   7.407  17.321  0.00  0.00    +0.000 Cl
ENDBRANCH  15  16
ENDBRANCH   6  15
TORSDOF 6
ENDMDL
MODEL 6
REMARK VINA RESULT:      -7.3      1.479      1.795
REMARK  Name = 
REMARK  6 active torsions:
REMARK  status: ('A' for Active; 'I' for Inactive)
REMARK    1  A    between atoms: C_2  and  C_3
REMARK    2  A    between atoms: C_3  and  C_4
REMARK    3  A    between atoms: N_6  and  N_7
REMARK    4  A    between atoms: N_7  and  C_8
REMARK    5  A    between atoms: C_13  and  O_14
REMARK    6  A    between atoms: O_14  and  C_15
REMARK                            x       y       z     vdW  Elec       q    Type
REMARK                         _______ _______ _______ _____ _____    ______ ____
ROOT
ATOM      1  C   UNL     1       3.687   3.357  18.311  0.00  0.00    +0.000 A 
ATOM      2  C   UNL     1       3.282   2.024  18.540  0.00  0.00    +0.000 A 
ATOM      3  C   UNL     1       1.940   1.671  18.682  0.00  0.00    +0.000 A 
ATOM      4  C   UNL     1       0.962   2.649  18.588  0.00  0.00    +0.000 A 
ATOM      5  C   UNL     1       1.331   3.961  18.297  0.00  0.00    +0.000 A 
ATOM      6  C   UNL     1       2.679   4.319  18.100  0.00  0.00    +0.000 A 
ENDROOT
BRANCH   1   7
ATOM      7  N   UNL     1       5.091   3.514  18.134  0.00  0.00    +0.000 N 
ATOM      8  H   UNL     1       5.528   2.673  18.536  0.00  0.00    +0.000 HD
BRANCH   7  10
ATOM      9  C   UNL     1       6.660   4.647  16.905  0.00  0.00    +0.000 C 
ATOM     10  N   UNL     1       5.556   3.962  16.929  0.00  0.00    +0.000 NA
BRANCH   9  12
ATOM     11  N   UNL     1       7.528   5.303  14.549  0.00  0.00    +0.000 NA
ATOM     12  C   UNL     1       7.116   5.015  15.597  0.00  0.00    +0.000 C 
ENDBRANCH   9  12
BRANCH   9  13
ATOM     13  C   UNL     1       7.392   4.954  18.109  0.00  0.00    +0.000 C 
ATOM     14  N   UNL     1       7.953   5.186  19.094  0.00  0.00    +0.000 NA
ENDBRANCH   9  13
ENDBRANCH   7  10
ENDBRANCH   1   7
BRANCH   6  15
ATOM     15  O   UNL     1       2.794   5.638  17.722  0.00  0.00    +0.000 OA
BRANCH  15  16
ATOM     16  C   UNL     1       2.416   6.690  18.517  0.00  0.00    +0.000 A 
ATOM     17  C   UNL     1       2.284   7.891  17.801  0.00  0.00    +0.000 A 
ATOM     18  C   UNL     1       1.781   9.039  18.413  0.00  0.00    +0.000 A 
ATOM     19  C   UNL     1       1.394   8.983  19.746  0.00  0.00    +0.000 A 
ATOM     20 CL   UNL     1       0.635  10.339  20.478  0.00  0.00    +0.000 Cl
ATOM     21  C   UNL     1       1.597   7.825  20.492  0.00  0.00    +0.000 A 
ATOM     22  C   UNL     1       2.168   6.694  19.896  0.00  0.00    +0.000 A 
ATOM     23 CL   UNL     1       2.522   5.378  20.959  0.00  0.00    +0.000 Cl
ENDBRANCH  15  16
ENDBRANCH   6  15
TORSDOF 6
ENDMDL
MODEL 7
REMARK VINA RESULT:      -7.2      1.104      1.615
REMARK  Name = 
REMARK  6 active torsions:
REMARK  status: ('A' for Active; 'I' for Inactive)
REMARK    1  A    between atoms: C_2  and  C_3
REMARK    2  A    between atoms: C_3  and  C_4
REMARK    3  A    between atoms: N_6  and  N_7
REMARK    4  A    between atoms: N_7  and  C_8
REMARK    5  A    between atoms: C_13  and  O_14
REMARK    6  A    between atoms: O_14  and  C_15
REMARK                            x       y       z     vdW  Elec       q    Type
REMARK                         _______ _______ _______ _____ _____    ______ ____
ROOT
ATOM      1  C   UNL     1       4.213   3.681  18.745  0.00  0.00    +0.000 A 
ATOM      2  C   UNL     1       3.791   2.574  17.976  0.00  0.00    +0.000 A 
ATOM      3  C   UNL     1       2.443   2.316  17.727  0.00  0.00    +0.000 A 
ATOM      4  C   UNL     1       1.477   3.171  18.236  0.00  0.00    +0.000 A 
ATOM      5  C   UNL     1       1.871   4.306  18.942  0.00  0.00    +0.000 A 
ATOM      6  C   UNL     1       3.231   4.605  19.155  0.00  0.00    +0.000 A 
ENDROOT
BRANCH   1   7
ATOM      7  N   UNL     1       5.628   3.814  18.841  0.00  0.00    +0.000 N 
ATOM      8  H   UNL     1       6.028   3.030  18.308  0.00  0.00    +0.000 HD
BRANCH   7  10
ATOM      9  C   UNL     1       6.635   5.376  17.500  0.00  0.00    +0.000 C 
ATOM     10  N   UNL     1       6.184   5.051  18.675  0.00  0.00    +0.000 NA
BRANCH   9  12
ATOM     11  N   UNL     1       7.541   7.797  17.260  0.00  0.00    +0.000 NA
ATOM     12  C   UNL     1       7.134   6.716  17.392  0.00  0.00    +0.000 C 
ENDBRANCH   9  12
BRANCH   9  13
ATOM     13  C   UNL     1       6.576   4.467  16.383  0.00  0.00    +0.000 C 
ATOM     14  N   UNL     1       6.528   3.766  15.464  0.00  0.00    +0.000 NA
ENDBRANCH   9  13
ENDBRANCH   7  10
ENDBRANCH   1   7
BRANCH   6  15
ATOM     15  O   UNL     1       3.381   5.822  19.780  0.00  0.00    +0.000 OA
BRANCH  15  16
ATOM     16  C   UNL     1       2.707   6.955  19.406  0.00  0.00    +0.000 A 
ATOM     17  C   UNL     1       1.812   7.405  20.392  0.00  0.00    +0.000 A 
ATOM     18  C   UNL     1       1.135   8.616  20.246  0.00  0.00    +0.000 A 
ATOM     19  C   UNL     1       1.361   9.388  19.114  0.00  0.00    +0.000 A 
ATOM     20 CL   UNL     1       0.654  10.949  18.983  0.00  0.00    +0.000 Cl
ATOM     21  C   UNL     1       2.179   8.918  18.089  0.00  0.00    +0.000 A 
ATOM     22  C   UNL     1       2.802   7.669  18.204  0.00  0.00    +0.000 A 
ATOM     23 CL   UNL     1       3.655   7.121  16.804  0.00  0.00    +0.000 Cl
ENDBRANCH  15  16
ENDBRANCH   6  15
TORSDOF 6
ENDMDL
MODEL 8
REMARK VINA RESULT:      -7.2      3.550      6.122
REMARK  Name = 
REMARK  6 active torsions:
REMARK  status: ('A' for Active; 'I' for Inactive)
REMARK    1  A    between atoms: C_2  and  C_3
REMARK    2  A    between atoms: C_3  and  C_4
REMARK    3  A    between atoms: N_6  and  N_7
REMARK    4  A    between atoms: N_7  and  C_8
REMARK    5  A    between atoms: C_13  and  O_14
REMARK    6  A    between atoms: O_14  and  C_15
REMARK                            x       y       z     vdW  Elec       q    Type
REMARK                         _______ _______ _______ _____ _____    ______ ____
ROOT
ATOM      1  C   UNL     1       2.298   5.654  20.081  0.00  0.00    +0.000 A 
ATOM      2  C   UNL     1       1.189   4.920  20.555  0.00  0.00    +0.000 A 
ATOM      3  C   UNL     1       1.213   3.529  20.662  0.00  0.00    +0.000 A 
ATOM      4  C   UNL     1       2.357   2.834  20.302  0.00  0.00    +0.000 A 
ATOM      5  C   UNL     1       3.487   3.540  19.893  0.00  0.00    +0.000 A 
ATOM      6  C   UNL     1       3.493   4.947  19.833  0.00  0.00    +0.000 A 
ENDROOT
BRANCH   1   7
ATOM      7  N   UNL     1       2.109   7.065  20.099  0.00  0.00    +0.000 N 
ATOM      8  H   UNL     1       1.622   7.302  19.225  0.00  0.00    +0.000 HD
BRANCH   7  10
ATOM      9  C   UNL     1       1.084   8.809  21.177  0.00  0.00    +0.000 C 
ATOM     10  N   UNL     1       1.676   7.655  21.254  0.00  0.00    +0.000 NA
BRANCH   9  12
ATOM     11  N   UNL     1       0.240   9.754  23.442  0.00  0.00    +0.000 NA
ATOM     12  C   UNL     1       0.595   9.324  22.423  0.00  0.00    +0.000 C 
ENDBRANCH   9  12
BRANCH   9  13
ATOM     13  C   UNL     1       0.889   9.483  19.918  0.00  0.00    +0.000 C 
ATOM     14  N   UNL     1       0.754   9.999  18.891  0.00  0.00    +0.000 NA
ENDBRANCH   9  13
ENDBRANCH   7  10
ENDBRANCH   1   7
BRANCH   6  15
ATOM     15  O   UNL     1       4.741   5.427  19.506  0.00  0.00    +0.000 OA
BRANCH  15  16
ATOM     16  C   UNL     1       5.380   5.138  18.328  0.00  0.00    +0.000 A 
ATOM     17  C   UNL     1       4.504   4.658  17.339  0.00  0.00    +0.000 A 
ATOM     18  C   UNL     1       4.949   4.435  16.035  0.00  0.00    +0.000 A 
ATOM     19  C   UNL     1       6.273   4.706  15.714  0.00  0.00    +0.000 A 
ATOM     20 CL   UNL     1       6.804   4.582  14.085  0.00  0.00    +0.000 Cl
ATOM     21  C   UNL     1       7.173   5.101  16.701  0.00  0.00    +0.000 A 
ATOM     22  C   UNL     1       6.743   5.255  18.025  0.00  0.00    +0.000 A 
ATOM     23 CL   UNL     1       7.980   5.586  19.186  0.00  0.00    +0.000 Cl
ENDBRANCH  15  16
ENDBRANCH   6  15
TORSDOF 6
ENDMDL
MODEL 9
REMARK VINA RESULT:      -7.2      2.175      2.657
REMARK  Name = 
REMARK  6 active torsions:
REMARK  status: ('A' for Active; 'I' for Inactive)
REMARK    1  A    between atoms: C_2  and  C_3
REMARK    2  A    between atoms: C_3  and  C_4
REMARK    3  A    between atoms: N_6  and  N_7
REMARK    4  A    between atoms: N_7  and  C_8
REMARK    5  A    between atoms: C_13  and  O_14
REMARK    6  A    between atoms: O_14  and  C_15
REMARK                            x       y       z     vdW  Elec       q    Type
REMARK                         _______ _______ _______ _____ _____    ______ ____
ROOT
ATOM      1  C   UNL     1       2.734   4.999  18.465  0.00  0.00    +0.000 A 
ATOM      2  C   UNL     1       2.117   3.735  18.341  0.00  0.00    +0.000 A 
ATOM      3  C   UNL     1       1.265   3.228  19.322  0.00  0.00    +0.000 A 
ATOM      4  C   UNL     1       1.000   3.982  20.455  0.00  0.00    +0.000 A 
ATOM      5  C   UNL     1       1.545   5.258  20.571  0.00  0.00    +0.000 A 
ATOM      6  C   UNL     1       2.364   5.803  19.563  0.00  0.00    +0.000 A 
ENDROOT
BRANCH   1   7
ATOM      7  N   UNL     1       3.521   5.373  17.339  0.00  0.00    +0.000 N 
ATOM      8  H   UNL     1       2.857   5.612  16.590  0.00  0.00    +0.000 HD
BRANCH   7  10
ATOM      9  C   UNL     1       5.730   5.874  16.990  0.00  0.00    +0.000 C 
ATOM     10  N   UNL     1       4.594   6.198  17.531  0.00  0.00    +0.000 NA
BRANCH   9  12
ATOM     11  N   UNL     1       7.635   7.613  17.285  0.00  0.00    +0.000 NA
ATOM     12  C   UNL     1       6.784   6.829  17.177  0.00  0.00    +0.000 C 
ENDBRANCH   9  12
BRANCH   9  13
ATOM     13  C   UNL     1       5.889   4.671  16.212  0.00  0.00    +0.000 C 
ATOM     14  N   UNL     1       6.022   3.726  15.558  0.00  0.00    +0.000 NA
ENDBRANCH   9  13
ENDBRANCH   7  10
ENDBRANCH   1   7
BRANCH   6  15
ATOM     15  O   UNL     1       2.699   7.108  19.843  0.00  0.00    +0.000 OA
BRANCH  15  16
ATOM     16  C   UNL     1       1.873   8.174  19.592  0.00  0.00    +0.000 A 
ATOM     17  C   UNL     1       1.824   8.514  18.230  0.00  0.00    +0.000 A 
ATOM     18  C   UNL     1       0.937   9.486  17.766  0.00  0.00    +0.000 A 
ATOM     19  C   UNL     1       0.085  10.113  18.665  0.00  0.00    +0.000 A 
ATOM     20 CL   UNL     1      -1.115  11.203  18.096  0.00  0.00    +0.000 Cl
ATOM     21  C   UNL     1       0.180   9.849  20.030  0.00  0.00    +0.000 A 
ATOM     22  C   UNL     1       1.119   8.925  20.504  0.00  0.00    +0.000 A 
ATOM     23 CL   UNL     1       1.257   8.804  22.223  0.00  0.00    +0.000 Cl
ENDBRANCH  15  16
ENDBRANCH   6  15
TORSDOF 6
ENDMDL
