MODEL 1
REMARK VINA RESULT:      -8.5      0.000      0.000
REMARK  Name = 
REMARK  10 active torsions:
REMARK  status: ('A' for Active; 'I' for Inactive)
REMARK    1  A    between atoms: C_1  and  C_2
REMARK    2  A    between atoms: C_2  and  C_3
REMARK    3  A    between atoms: C_2  and  C_4
REMARK    4  A    between atoms: N_6  and  C_7
REMARK    5  A    between atoms: C_7  and  C_8
REMARK    6  A    between atoms: C_7  and  C_18
REMARK    7  A    between atoms: C_8  and  C_9
REMARK    8  A    between atoms: N_20  and  C_21
REMARK    9  A    between atoms: N_20  and  C_22
REMARK   10  A    between atoms: C_22  and  C_23
REMARK                            x       y       z     vdW  Elec       q    Type
REMARK                         _______ _______ _______ _____ _____    ______ ____
ROOT
ATOM      1  C   UNL     1       3.134   5.724  18.340  0.00  0.00    +0.000 C 
ENDROOT
BRANCH   1   4
ATOM      2  C   UNL     1       1.422   3.930  18.437  0.00  0.00    +0.000 C 
ATOM      3  O   UNL     1       1.291   3.916  17.214  0.00  0.00    +0.000 OA
ATOM      4  N   UNL     1       2.272   4.797  19.073  0.00  0.00    +0.000 N 
ATOM      5  H   UNL     1       2.252   4.910  20.081  0.00  0.00    +0.000 HD
BRANCH   2   7
ATOM      6  C   UNL     1       0.769   1.564  18.962  0.00  0.00    +0.000 C 
ATOM      7  C   UNL     1       0.628   3.027  19.378  0.00  0.00    +0.000 C 
ATOM      8  C   UNL     1       1.084   3.207  20.826  0.00  0.00    +0.000 C 
ENDBRANCH   2   7
ENDBRANCH   1   4
BRANCH   1   9
ATOM      9  C   UNL     1       4.454   4.988  18.003  0.00  0.00    +0.000 C 
ATOM     10  O   UNL     1       4.794   3.993  18.660  0.00  0.00    +0.000 OA
ATOM     11  N   UNL     1       5.268   5.480  16.992  0.00  0.00    +0.000 N 
ATOM     12  C   UNL     1       4.912   6.546  16.059  0.00  0.00    +0.000 C 
BRANCH  11  13
ATOM     13  C   UNL     1       6.530   4.786  16.724  0.00  0.00    +0.000 C 
BRANCH  13  14
ATOM     14  C   UNL     1       7.007   5.019  15.326  0.00  0.00    +0.000 A 
ATOM     15  N   UNL     1       8.000   5.817  14.985  0.00  0.00    +0.000 NA
ATOM     16  N   UNL     1       8.243   5.660  13.647  0.00  0.00    +0.000 NA
ATOM     17  C   UNL     1       7.401   4.765  13.175  0.00  0.00    +0.000 A 
ATOM     18  N   UNL     1       6.560   4.371  14.193  0.00  0.00    +0.000 N 
ATOM     19  C   UNL     1       5.463   3.428  14.101  0.00  0.00    +0.000 C 
ATOM     20  C   UNL     1       4.664   3.535  12.805  0.00  0.00    +0.000 C 
ATOM     21  C   UNL     1       5.307   2.821  11.616  0.00  0.00    +0.000 C 
ATOM     22  C   UNL     1       6.833   2.881  11.559  0.00  0.00    +0.000 C 
ATOM     23  C   UNL     1       7.391   4.283  11.761  0.00  0.00    +0.000 C 
ENDBRANCH  13  14
ENDBRANCH  11  13
ENDBRANCH   1   9
BRANCH   1  24
ATOM     24  C   UNL     1       3.380   7.030  19.123  0.00  0.00    +0.000 C 
BRANCH  24  25
ATOM     25  C   UNL     1       2.336   8.083  18.876  0.00  0.00    +0.000 A 
ATOM     26  C   UNL     1       2.106   8.732  17.677  0.00  0.00    +0.000 A 
ATOM     27  N   UNL     1       1.162   9.700  17.886  0.00  0.00    +0.000 N 
ATOM     28  C   UNL     1       0.734   9.676  19.191  0.00  0.00    +0.000 A 
ATOM     29  C   UNL     1      -0.198  10.487  19.848  0.00  0.00    +0.000 A 
ATOM     30  C   UNL     1      -0.450  10.225  21.198  0.00  0.00    +0.000 A 
ATOM     31  C   UNL     1       0.203   9.187  21.858  0.00  0.00    +0.000 A 
ATOM     32  C   UNL     1       1.140   8.391  21.189  0.00  0.00    +0.000 A 
ATOM     33  C   UNL     1       1.423   8.643  19.829  0.00  0.00    +0.000 A 
ATOM     34  H   UNL     1       0.835  10.355  17.189  0.00  0.00    +0.000 HD
ENDBRANCH  24  25
ENDBRANCH   1  24
TORSDOF 7
ENDMDL
MODEL 2
REMARK VINA RESULT:      -8.3      1.636      8.443
REMARK  Name = 
REMARK  10 active torsions:
REMARK  status: ('A' for Active; 'I' for Inactive)
REMARK    1  A    between atoms: C_1  and  C_2
REMARK    2  A    between atoms: C_2  and  C_3
REMARK    3  A    between atoms: C_2  and  C_4
REMARK    4  A    between atoms: N_6  and  C_7
REMARK    5  A    between atoms: C_7  and  C_8
REMARK    6  A    between atoms: C_7  and  C_18
REMARK    7  A    between atoms: C_8  and  C_9
REMARK    8  A    between atoms: N_20  and  C_21
REMARK    9  A    between atoms: N_20  and  C_22
REMARK   10  A    between atoms: C_22  and  C_23
REMARK                            x       y       z     vdW  Elec       q    Type
REMARK                         _______ _______ _______ _____ _____    ______ ____
ROOT
ATOM      1  C   UNL     1       4.463   4.554  17.898  0.00  0.00    +0.000 C 
ENDROOT
BRANCH   1   4
ATOM      2  C   UNL     1       3.828   3.007  19.733  0.00  0.00    +0.000 C 
ATOM      3  O   UNL     1       5.001   2.739  19.985  0.00  0.00    +0.000 OA
ATOM      4  N   UNL     1       3.472   3.854  18.715  0.00  0.00    +0.000 N 
ATOM      5  H   UNL     1       2.507   3.941  18.414  0.00  0.00    +0.000 HD
BRANCH   2   7
ATOM      6  C   UNL     1       2.264   3.267  21.679  0.00  0.00    +0.000 C 
ATOM      7  C   UNL     1       2.646   2.397  20.483  0.00  0.00    +0.000 C 
ATOM      8  C   UNL     1       1.442   2.219  19.558  0.00  0.00    +0.000 C 
ENDBRANCH   2   7
ENDBRANCH   1   4
BRANCH   1   9
ATOM      9  C   UNL     1       4.133   6.066  17.934  0.00  0.00    +0.000 C 
ATOM     10  O   UNL     1       5.049   6.901  17.951  0.00  0.00    +0.000 OA
ATOM     11  N   UNL     1       2.806   6.471  17.991  0.00  0.00    +0.000 N 
ATOM     12  C   UNL     1       1.645   5.599  17.832  0.00  0.00    +0.000 C 
BRANCH  11  13
ATOM     13  C   UNL     1       2.526   7.907  18.067  0.00  0.00    +0.000 C 
BRANCH  13  14
ATOM     14  C   UNL     1       1.777   8.262  19.310  0.00  0.00    +0.000 A 
ATOM     15  N   UNL     1       1.968   7.716  20.496  0.00  0.00    +0.000 NA
ATOM     16  N   UNL     1       1.213   8.393  21.413  0.00  0.00    +0.000 NA
ATOM     17  C   UNL     1       0.564   9.354  20.789  0.00  0.00    +0.000 A 
ATOM     18  N   UNL     1       0.847   9.274  19.443  0.00  0.00    +0.000 N 
ATOM     19  C   UNL     1       0.316  10.115  18.390  0.00  0.00    +0.000 C 
ATOM     20  C   UNL     1      -1.156  10.475  18.570  0.00  0.00    +0.000 C 
ATOM     21  C   UNL     1      -1.400  11.630  19.542  0.00  0.00    +0.000 C 
ATOM     22  C   UNL     1      -0.466  11.682  20.750  0.00  0.00    +0.000 C 
ATOM     23  C   UNL     1      -0.326  10.345  21.465  0.00  0.00    +0.000 C 
ENDBRANCH  13  14
ENDBRANCH  11  13
ENDBRANCH   1   9
BRANCH   1  24
ATOM     24  C   UNL     1       4.521   4.004  16.459  0.00  0.00    +0.000 C 
BRANCH  24  25
ATOM     25  C   UNL     1       5.749   4.434  15.702  0.00  0.00    +0.000 A 
ATOM     26  C   UNL     1       6.794   5.181  16.210  0.00  0.00    +0.000 A 
ATOM     27  N   UNL     1       7.656   5.467  15.186  0.00  0.00    +0.000 N 
ATOM     28  C   UNL     1       7.220   4.886  14.020  0.00  0.00    +0.000 A 
ATOM     29  C   UNL     1       7.770   4.925  12.733  0.00  0.00    +0.000 A 
ATOM     30  C   UNL     1       7.110   4.222  11.722  0.00  0.00    +0.000 A 
ATOM     31  C   UNL     1       5.949   3.502  11.993  0.00  0.00    +0.000 A 
ATOM     32  C   UNL     1       5.406   3.481  13.284  0.00  0.00    +0.000 A 
ATOM     33  C   UNL     1       6.045   4.195  14.320  0.00  0.00    +0.000 A 
ATOM     34  H   UNL     1       8.486   6.038  15.265  0.00  0.00    +0.000 HD
ENDBRANCH  24  25
ENDBRANCH   1  24
TORSDOF 7
ENDMDL
MODEL 3
REMARK VINA RESULT:      -8.2      2.350      9.184
REMARK  Name = 
REMARK  10 active torsions:
REMARK  status: ('A' for Active; 'I' for Inactive)
REMARK    1  A    between atoms: C_1  and  C_2
REMARK    2  A    between atoms: C_2  and  C_3
REMARK    3  A    between atoms: C_2  and  C_4
REMARK    4  A    between atoms: N_6  and  C_7
REMARK    5  A    between atoms: C_7  and  C_8
REMARK    6  A    between atoms: C_7  and  C_18
REMARK    7  A    between atoms: C_8  and  C_9
REMARK    8  A    between atoms: N_20  and  C_21
REMARK    9  A    between atoms: N_20  and  C_22
REMARK   10  A    between atoms: C_22  and  C_23
REMARK                            x       y       z     vdW  Elec       q    Type
REMARK                         _______ _______ _______ _____ _____    ______ ____
ROOT
ATOM      1  C   UNL     1       2.981   7.231  18.663  0.00  0.00    +0.000 C 
ENDROOT
BRANCH   1   4
ATOM      2  C   UNL     1       2.158   4.905  18.936  0.00  0.00    +0.000 C 
ATOM      3  O   UNL     1       2.530   4.854  20.107  0.00  0.00    +0.000 OA
ATOM      4  N   UNL     1       2.365   6.008  18.149  0.00  0.00    +0.000 N 
ATOM      5  H   UNL     1       2.202   5.980  17.148  0.00  0.00    +0.000 HD
BRANCH   2   7
ATOM      6  C   UNL     1       2.497   2.939  17.412  0.00  0.00    +0.000 C 
ATOM      7  C   UNL     1       1.478   3.741  18.218  0.00  0.00    +0.000 C 
ATOM      8  C   UNL     1       0.758   2.830  19.211  0.00  0.00    +0.000 C 
ENDBRANCH   2   7
ENDBRANCH   1   4
BRANCH   1   9
ATOM      9  C   UNL     1       2.037   8.416  18.341  0.00  0.00    +0.000 C 
ATOM     10  O   UNL     1       1.992   8.878  17.192  0.00  0.00    +0.000 OA
ATOM     11  N   UNL     1       1.281   8.980  19.361  0.00  0.00    +0.000 N 
ATOM     12  C   UNL     1       1.140   8.440  20.710  0.00  0.00    +0.000 C 
BRANCH  11  13
ATOM     13  C   UNL     1       0.431  10.126  19.034  0.00  0.00    +0.000 C 
BRANCH  13  14
ATOM     14  C   UNL     1       0.854  11.359  19.767  0.00  0.00    +0.000 A 
ATOM     15  N   UNL     1       1.915  12.088  19.479  0.00  0.00    +0.000 NA
ATOM     16  N   UNL     1       1.896  13.210  20.261  0.00  0.00    +0.000 NA
ATOM     17  C   UNL     1       0.823  13.168  21.022  0.00  0.00    +0.000 A 
ATOM     18  N   UNL     1       0.160  11.984  20.783  0.00  0.00    +0.000 N 
ATOM     19  C   UNL     1      -1.048  11.515  21.432  0.00  0.00    +0.000 C 
ATOM     20  C   UNL     1      -1.110  11.830  22.924  0.00  0.00    +0.000 C 
ATOM     21  C   UNL     1      -1.557  13.258  23.240  0.00  0.00    +0.000 C 
ATOM     22  C   UNL     1      -1.066  14.332  22.271  0.00  0.00    +0.000 C 
ATOM     23  C   UNL     1       0.426  14.246  21.976  0.00  0.00    +0.000 C 
ENDBRANCH  13  14
ENDBRANCH  11  13
ENDBRANCH   1   9
BRANCH   1  24
ATOM     24  C   UNL     1       4.400   7.447  18.101  0.00  0.00    +0.000 C 
BRANCH  24  25
ATOM     25  C   UNL     1       5.153   6.167  17.865  0.00  0.00    +0.000 A 
ATOM     26  C   UNL     1       5.727   5.372  18.839  0.00  0.00    +0.000 A 
ATOM     27  N   UNL     1       6.421   4.368  18.221  0.00  0.00    +0.000 N 
ATOM     28  C   UNL     1       6.282   4.461  16.857  0.00  0.00    +0.000 A 
ATOM     29  C   UNL     1       6.825   3.666  15.840  0.00  0.00    +0.000 A 
ATOM     30  C   UNL     1       6.501   3.990  14.520  0.00  0.00    +0.000 A 
ATOM     31  C   UNL     1       5.660   5.063  14.233  0.00  0.00    +0.000 A 
ATOM     32  C   UNL     1       5.134   5.854  15.262  0.00  0.00    +0.000 A 
ATOM     33  C   UNL     1       5.456   5.557  16.603  0.00  0.00    +0.000 A 
ATOM     34  H   UNL     1       6.975   3.666  18.693  0.00  0.00    +0.000 HD
ENDBRANCH  24  25
ENDBRANCH   1  24
TORSDOF 7
ENDMDL
MODEL 4
REMARK VINA RESULT:      -8.1      2.759      8.625
REMARK  Name = 
REMARK  10 active torsions:
REMARK  status: ('A' for Active; 'I' for Inactive)
REMARK    1  A    between atoms: C_1  and  C_2
REMARK    2  A    between atoms: C_2  and  C_3
REMARK    3  A    between atoms: C_2  and  C_4
REMARK    4  A    between atoms: N_6  and  C_7
REMARK    5  A    between atoms: C_7  and  C_8
REMARK    6  A    between atoms: C_7  and  C_18
REMARK    7  A    between atoms: C_8  and  C_9
REMARK    8  A    between atoms: N_20  and  C_21
REMARK    9  A    between atoms: N_20  and  C_22
REMARK   10  A    between atoms: C_22  and  C_23
REMARK                            x       y       z     vdW  Elec       q    Type
REMARK                         _______ _______ _______ _____ _____    ______ ____
ROOT
ATOM      1  C   UNL     1       3.032   7.187  18.685  0.00  0.00    +0.000 C 
ENDROOT
BRANCH   1   4
ATOM      2  C   UNL     1       1.976   4.961  18.989  0.00  0.00    +0.000 C 
ATOM      3  O   UNL     1       2.047   5.035  20.214  0.00  0.00    +0.000 OA
ATOM      4  N   UNL     1       2.458   5.945  18.166  0.00  0.00    +0.000 N 
ATOM      5  H   UNL     1       2.540   5.802  17.164  0.00  0.00    +0.000 HD
BRANCH   2   7
ATOM      6  C   UNL     1       2.428   3.161  17.299  0.00  0.00    +0.000 C 
ATOM      7  C   UNL     1       1.393   3.757  18.251  0.00  0.00    +0.000 C 
ATOM      8  C   UNL     1       0.910   2.693  19.235  0.00  0.00    +0.000 C 
ENDBRANCH   2   7
ENDBRANCH   1   4
BRANCH   1   9
ATOM      9  C   UNL     1       2.071   8.347  18.327  0.00  0.00    +0.000 C 
ATOM     10  O   UNL     1       2.007   8.762  17.161  0.00  0.00    +0.000 OA
ATOM     11  N   UNL     1       1.320   8.942  19.332  0.00  0.00    +0.000 N 
ATOM     12  C   UNL     1       1.200   8.454  20.703  0.00  0.00    +0.000 C 
BRANCH  11  13
ATOM     13  C   UNL     1       0.452  10.064  18.970  0.00  0.00    +0.000 C 
BRANCH  13  14
ATOM     14  C   UNL     1       0.671  11.246  19.860  0.00  0.00    +0.000 A 
ATOM     15  N   UNL     1       0.115  11.419  21.044  0.00  0.00    +0.000 NA
ATOM     16  N   UNL     1       0.663  12.531  21.622  0.00  0.00    +0.000 NA
ATOM     17  C   UNL     1       1.554  13.033  20.794  0.00  0.00    +0.000 A 
ATOM     18  N   UNL     1       1.553  12.283  19.639  0.00  0.00    +0.000 N 
ATOM     19  C   UNL     1       2.355  12.509  18.453  0.00  0.00    +0.000 C 
ATOM     20  C   UNL     1       2.523  13.982  18.092  0.00  0.00    +0.000 C 
ATOM     21  C   UNL     1       3.607  14.700  18.896  0.00  0.00    +0.000 C 
ATOM     22  C   UNL     1       3.736  14.271  20.357  0.00  0.00    +0.000 C 
ATOM     23  C   UNL     1       2.404  14.224  21.094  0.00  0.00    +0.000 C 
ENDBRANCH  13  14
ENDBRANCH  11  13
ENDBRANCH   1   9
BRANCH   1  24
ATOM     24  C   UNL     1       4.461   7.431  18.158  0.00  0.00    +0.000 C 
BRANCH  24  25
ATOM     25  C   UNL     1       5.224   6.163  17.886  0.00  0.00    +0.000 A 
ATOM     26  C   UNL     1       5.834   5.365  18.834  0.00  0.00    +0.000 A 
ATOM     27  N   UNL     1       6.525   4.378  18.186  0.00  0.00    +0.000 N 
ATOM     28  C   UNL     1       6.348   4.485  16.827  0.00  0.00    +0.000 A 
ATOM     29  C   UNL     1       6.874   3.711  15.786  0.00  0.00    +0.000 A 
ATOM     30  C   UNL     1       6.511   4.047  14.480  0.00  0.00    +0.000 A 
ATOM     31  C   UNL     1       5.649   5.112  14.228  0.00  0.00    +0.000 A 
ATOM     32  C   UNL     1       5.140   5.882  15.280  0.00  0.00    +0.000 A 
ATOM     33  C   UNL     1       5.502   5.573  16.609  0.00  0.00    +0.000 A 
ATOM     34  H   UNL     1       7.100   3.678  18.633  0.00  0.00    +0.000 HD
ENDBRANCH  24  25
ENDBRANCH   1  24
TORSDOF 7
ENDMDL
MODEL 5
REMARK VINA RESULT:      -7.9      2.381      8.560
REMARK  Name = 
REMARK  10 active torsions:
REMARK  status: ('A' for Active; 'I' for Inactive)
REMARK    1  A    between atoms: C_1  and  C_2
REMARK    2  A    between atoms: C_2  and  C_3
REMARK    3  A    between atoms: C_2  and  C_4
REMARK    4  A    between atoms: N_6  and  C_7
REMARK    5  A    between atoms: C_7  and  C_8
REMARK    6  A    between atoms: C_7  and  C_18
REMARK    7  A    between atoms: C_8  and  C_9
REMARK    8  A    between atoms: N_20  and  C_21
REMARK    9  A    between atoms: N_20  and  C_22
REMARK   10  A    between atoms: C_22  and  C_23
REMARK                            x       y       z     vdW  Elec       q    Type
REMARK                         _______ _______ _______ _____ _____    ______ ____
ROOT
ATOM      1  C   UNL     1       2.678   6.812  19.132  0.00  0.00    +0.000 C 
ENDROOT
BRANCH   1   4
ATOM      2  C   UNL     1       1.705   4.532  19.007  0.00  0.00    +0.000 C 
ATOM      3  O   UNL     1       1.655   4.428  20.232  0.00  0.00    +0.000 OA
ATOM      4  N   UNL     1       2.216   5.641  18.386  0.00  0.00    +0.000 N 
ATOM      5  H   UNL     1       2.400   5.649  17.388  0.00  0.00    +0.000 HD
BRANCH   2   7
ATOM      6  C   UNL     1       2.407   2.998  17.148  0.00  0.00    +0.000 C 
ATOM      7  C   UNL     1       1.253   3.430  18.051  0.00  0.00    +0.000 C 
ATOM      8  C   UNL     1       0.709   2.226  18.819  0.00  0.00    +0.000 C 
ENDBRANCH   2   7
ENDBRANCH   1   4
BRANCH   1   9
ATOM      9  C   UNL     1       2.199   8.079  18.381  0.00  0.00    +0.000 C 
ATOM     10  O   UNL     1       2.451   8.218  17.176  0.00  0.00    +0.000 OA
ATOM     11  N   UNL     1       1.526   9.071  19.083  0.00  0.00    +0.000 N 
ATOM     12  C   UNL     1       1.047   8.961  20.458  0.00  0.00    +0.000 C 
BRANCH  11  13
ATOM     13  C   UNL     1       1.123  10.276  18.355  0.00  0.00    +0.000 C 
BRANCH  13  14
ATOM     14  C   UNL     1      -0.056  10.940  18.991  0.00  0.00    +0.000 A 
ATOM     15  N   UNL     1       0.002  11.791  19.998  0.00  0.00    +0.000 NA
ATOM     16  N   UNL     1      -1.251  12.300  20.207  0.00  0.00    +0.000 NA
ATOM     17  C   UNL     1      -2.070  11.764  19.328  0.00  0.00    +0.000 A 
ATOM     18  N   UNL     1      -1.368  10.853  18.571  0.00  0.00    +0.000 N 
ATOM     19  C   UNL     1      -1.891  10.011  17.513  0.00  0.00    +0.000 C 
ATOM     20  C   UNL     1      -3.284   9.456  17.798  0.00  0.00    +0.000 C 
ATOM     21  C   UNL     1      -4.418  10.440  17.503  0.00  0.00    +0.000 C 
ATOM     22  C   UNL     1      -4.118  11.904  17.821  0.00  0.00    +0.000 C 
ATOM     23  C   UNL     1      -3.517  12.112  19.205  0.00  0.00    +0.000 C 
ENDBRANCH  13  14
ENDBRANCH  11  13
ENDBRANCH   1   9
BRANCH   1  24
ATOM     24  C   UNL     1       4.206   6.801  19.340  0.00  0.00    +0.000 C 
BRANCH  24  25
ATOM     25  C   UNL     1       4.896   5.654  18.655  0.00  0.00    +0.000 A 
ATOM     26  C   UNL     1       5.374   4.512  19.268  0.00  0.00    +0.000 A 
ATOM     27  N   UNL     1       6.042   3.769  18.333  0.00  0.00    +0.000 N 
ATOM     28  C   UNL     1       5.978   4.380  17.104  0.00  0.00    +0.000 A 
ATOM     29  C   UNL     1       6.527   3.992  15.876  0.00  0.00    +0.000 A 
ATOM     30  C   UNL     1       6.291   4.813  14.770  0.00  0.00    +0.000 A 
ATOM     31  C   UNL     1       5.528   5.972  14.891  0.00  0.00    +0.000 A 
ATOM     32  C   UNL     1       4.994   6.351  16.129  0.00  0.00    +0.000 A 
ATOM     33  C   UNL     1       5.230   5.547  17.264  0.00  0.00    +0.000 A 
ATOM     34  H   UNL     1       6.530   2.903  18.516  0.00  0.00    +0.000 HD
ENDBRANCH  24  25
ENDBRANCH   1  24
TORSDOF 7
ENDMDL
MODEL 6
REMARK VINA RESULT:      -7.7      3.349      8.534
REMARK  Name = 
REMARK  10 active torsions:
REMARK  status: ('A' for Active; 'I' for Inactive)
REMARK    1  A    between atoms: C_1  and  C_2
REMARK    2  A    between atoms: C_2  and  C_3
REMARK    3  A    between atoms: C_2  and  C_4
REMARK    4  A    between atoms: N_6  and  C_7
REMARK    5  A    between atoms: C_7  and  C_8
REMARK    6  A    between atoms: C_7  and  C_18
REMARK    7  A    between atoms: C_8  and  C_9
REMARK    8  A    between atoms: N_20  and  C_21
REMARK    9  A    between atoms: N_20  and  C_22
REMARK   10  A    between atoms: C_22  and  C_23
REMARK                            x       y       z     vdW  Elec       q    Type
REMARK                         _______ _______ _______ _____ _____    ______ ____
ROOT
ATOM      1  C   UNL     1       3.519   6.682  17.688  0.00  0.00    +0.000 C 
ENDROOT
BRANCH   1   4
ATOM      2  C   UNL     1       5.882   6.814  16.940  0.00  0.00    +0.000 C 
ATOM      3  O   UNL     1       5.565   6.764  15.753  0.00  0.00    +0.000 OA
ATOM      4  N   UNL     1       4.957   6.748  17.949  0.00  0.00    +0.000 N 
ATOM      5  H   UNL     1       5.239   6.627  18.916  0.00  0.00    +0.000 HD
BRANCH   2   7
ATOM      6  C   UNL     1       7.726   8.361  17.651  0.00  0.00    +0.000 C 
ATOM      7  C   UNL     1       7.329   6.904  17.421  0.00  0.00    +0.000 C 
ATOM      8  C   UNL     1       7.533   6.096  18.702  0.00  0.00    +0.000 C 
ENDBRANCH   2   7
ENDBRANCH   1   4
BRANCH   1   9
ATOM      9  C   UNL     1       2.786   7.375  18.862  0.00  0.00    +0.000 C 
ATOM     10  O   UNL     1       2.858   6.901  20.005  0.00  0.00    +0.000 OA
ATOM     11  N   UNL     1       2.013   8.502  18.611  0.00  0.00    +0.000 N 
ATOM     12  C   UNL     1       1.965   9.233  17.348  0.00  0.00    +0.000 C 
BRANCH  11  13
ATOM     13  C   UNL     1       1.298   9.110  19.735  0.00  0.00    +0.000 C 
BRANCH  13  14
ATOM     14  C   UNL     1       0.372  10.194  19.283  0.00  0.00    +0.000 A 
ATOM     15  N   UNL     1      -0.914  10.039  19.031  0.00  0.00    +0.000 NA
ATOM     16  N   UNL     1      -1.460  11.269  18.789  0.00  0.00    +0.000 NA
ATOM     17  C   UNL     1      -0.510  12.174  18.897  0.00  0.00    +0.000 A 
ATOM     18  N   UNL     1       0.681  11.532  19.154  0.00  0.00    +0.000 N 
ATOM     19  C   UNL     1       1.985  12.145  19.309  0.00  0.00    +0.000 C 
ATOM     20  C   UNL     1       2.240  13.306  18.352  0.00  0.00    +0.000 C 
ATOM     21  C   UNL     1       1.622  14.631  18.803  0.00  0.00    +0.000 C 
ATOM     22  C   UNL     1       0.267  14.522  19.500  0.00  0.00    +0.000 C 
ATOM     23  C   UNL     1      -0.729  13.645  18.754  0.00  0.00    +0.000 C 
ENDBRANCH  13  14
ENDBRANCH  11  13
ENDBRANCH   1   9
BRANCH   1  24
ATOM     24  C   UNL     1       3.034   5.234  17.472  0.00  0.00    +0.000 C 
BRANCH  24  25
ATOM     25  C   UNL     1       3.538   4.272  18.513  0.00  0.00    +0.000 A 
ATOM     26  C   UNL     1       4.795   3.698  18.547  0.00  0.00    +0.000 A 
ATOM     27  N   UNL     1       4.827   2.792  19.571  0.00  0.00    +0.000 N 
ATOM     28  C   UNL     1       3.626   2.787  20.241  0.00  0.00    +0.000 A 
ATOM     29  C   UNL     1       3.208   2.015  21.331  0.00  0.00    +0.000 A 
ATOM     30  C   UNL     1       1.917   2.231  21.821  0.00  0.00    +0.000 A 
ATOM     31  C   UNL     1       1.084   3.188  21.245  0.00  0.00    +0.000 A 
ATOM     32  C   UNL     1       1.516   3.944  20.149  0.00  0.00    +0.000 A 
ATOM     33  C   UNL     1       2.809   3.736  19.625  0.00  0.00    +0.000 A 
ATOM     34  H   UNL     1       5.610   2.196  19.797  0.00  0.00    +0.000 HD
ENDBRANCH  24  25
ENDBRANCH   1  24
TORSDOF 7
ENDMDL
MODEL 7
REMARK VINA RESULT:      -7.7      0.926      1.100
REMARK  Name = 
REMARK  10 active torsions:
REMARK  status: ('A' for Active; 'I' for Inactive)
REMARK    1  A    between atoms: C_1  and  C_2
REMARK    2  A    between atoms: C_2  and  C_3
REMARK    3  A    between atoms: C_2  and  C_4
REMARK    4  A    between atoms: N_6  and  C_7
REMARK    5  A    between atoms: C_7  and  C_8
REMARK    6  A    between atoms: C_7  and  C_18
REMARK    7  A    between atoms: C_8  and  C_9
REMARK    8  A    between atoms: N_20  and  C_21
REMARK    9  A    between atoms: N_20  and  C_22
REMARK   10  A    between atoms: C_22  and  C_23
REMARK                            x       y       z     vdW  Elec       q    Type
REMARK                         _______ _______ _______ _____ _____    ______ ____
ROOT
ATOM      1  C   UNL     1       3.438   5.365  18.026  0.00  0.00    +0.000 C 
ENDROOT
BRANCH   1   4
ATOM      2  C   UNL     1       2.577   3.863  19.805  0.00  0.00    +0.000 C 
ATOM      3  O   UNL     1       3.248   4.419  20.673  0.00  0.00    +0.000 OA
ATOM      4  N   UNL     1       2.631   4.236  18.487  0.00  0.00    +0.000 N 
ATOM      5  H   UNL     1       2.202   3.670  17.761  0.00  0.00    +0.000 HD
BRANCH   2   7
ATOM      6  C   UNL     1       1.153   2.718  21.525  0.00  0.00    +0.000 C 
ATOM      7  C   UNL     1       1.657   2.677  20.084  0.00  0.00    +0.000 C 
ATOM      8  C   UNL     1       0.475   2.660  19.115  0.00  0.00    +0.000 C 
ENDBRANCH   2   7
ENDBRANCH   1   4
BRANCH   1   9
ATOM      9  C   UNL     1       4.843   4.832  17.654  0.00  0.00    +0.000 C 
ATOM     10  O   UNL     1       5.290   3.818  18.211  0.00  0.00    +0.000 OA
ATOM     11  N   UNL     1       5.610   5.525  16.726  0.00  0.00    +0.000 N 
ATOM     12  C   UNL     1       5.144   6.637  15.902  0.00  0.00    +0.000 C 
BRANCH  11  13
ATOM     13  C   UNL     1       6.951   5.019  16.426  0.00  0.00    +0.000 C 
BRANCH  13  14
ATOM     14  C   UNL     1       7.281   5.147  14.973  0.00  0.00    +0.000 A 
ATOM     15  N   UNL     1       8.224   5.923  14.473  0.00  0.00    +0.000 NA
ATOM     16  N   UNL     1       8.332   5.666  13.134  0.00  0.00    +0.000 NA
ATOM     17  C   UNL     1       7.460   4.732  12.819  0.00  0.00    +0.000 A 
ATOM     18  N   UNL     1       6.731   4.412  13.943  0.00  0.00    +0.000 N 
ATOM     19  C   UNL     1       5.643   3.459  14.034  0.00  0.00    +0.000 C 
ATOM     20  C   UNL     1       4.716   3.462  12.822  0.00  0.00    +0.000 C 
ATOM     21  C   UNL     1       5.246   2.663  11.631  0.00  0.00    +0.000 C 
ATOM     22  C   UNL     1       6.757   2.727  11.414  0.00  0.00    +0.000 C 
ATOM     23  C   UNL     1       7.314   4.144  11.453  0.00  0.00    +0.000 C 
ENDBRANCH  13  14
ENDBRANCH  11  13
ENDBRANCH   1   9
BRANCH   1  24
ATOM     24  C   UNL     1       3.503   6.497  19.072  0.00  0.00    +0.000 C 
BRANCH  24  25
ATOM     25  C   UNL     1       2.543   7.621  18.799  0.00  0.00    +0.000 A 
ATOM     26  C   UNL     1       2.412   8.305  17.605  0.00  0.00    +0.000 A 
ATOM     27  N   UNL     1       1.526   9.330  17.791  0.00  0.00    +0.000 N 
ATOM     28  C   UNL     1       1.036   9.311  19.075  0.00  0.00    +0.000 A 
ATOM     29  C   UNL     1       0.128  10.170  19.706  0.00  0.00    +0.000 A 
ATOM     30  C   UNL     1      -0.202   9.901  21.036  0.00  0.00    +0.000 A 
ATOM     31  C   UNL     1       0.349   8.810  21.704  0.00  0.00    +0.000 A 
ATOM     32  C   UNL     1       1.262   7.966  21.061  0.00  0.00    +0.000 A 
ATOM     33  C   UNL     1       1.625   8.223  19.722  0.00  0.00    +0.000 A 
ATOM     34  H   UNL     1       1.276  10.018  17.094  0.00  0.00    +0.000 HD
ENDBRANCH  24  25
ENDBRANCH   1  24
TORSDOF 7
ENDMDL
MODEL 8
REMARK VINA RESULT:      -7.6      1.191      1.343
REMARK  Name = 
REMARK  10 active torsions:
REMARK  status: ('A' for Active; 'I' for Inactive)
REMARK    1  A    between atoms: C_1  and  C_2
REMARK    2  A    between atoms: C_2  and  C_3
REMARK    3  A    between atoms: C_2  and  C_4
REMARK    4  A    between atoms: N_6  and  C_7
REMARK    5  A    between atoms: C_7  and  C_8
REMARK    6  A    between atoms: C_7  and  C_18
REMARK    7  A    between atoms: C_8  and  C_9
REMARK    8  A    between atoms: N_20  and  C_21
REMARK    9  A    between atoms: N_20  and  C_22
REMARK   10  A    between atoms: C_22  and  C_23
REMARK                            x       y       z     vdW  Elec       q    Type
REMARK                         _______ _______ _______ _____ _____    ______ ____
ROOT
ATOM      1  C   UNL     1       2.836   6.012  18.476  0.00  0.00    +0.000 C 
ENDROOT
BRANCH   1   4
ATOM      2  C   UNL     1       1.830   4.592  20.245  0.00  0.00    +0.000 C 
ATOM      3  O   UNL     1       2.385   5.224  21.143  0.00  0.00    +0.000 OA
ATOM      4  N   UNL     1       2.017   4.885  18.919  0.00  0.00    +0.000 N 
ATOM      5  H   UNL     1       1.686   4.262  18.190  0.00  0.00    +0.000 HD
BRANCH   2   7
ATOM      6  C   UNL     1       0.721   2.589  19.217  0.00  0.00    +0.000 C 
ATOM      7  C   UNL     1       0.919   3.394  20.501  0.00  0.00    +0.000 C 
ATOM      8  C   UNL     1       1.486   2.497  21.600  0.00  0.00    +0.000 C 
ENDBRANCH   2   7
ENDBRANCH   1   4
BRANCH   1   9
ATOM      9  C   UNL     1       4.281   5.500  18.260  0.00  0.00    +0.000 C 
ATOM     10  O   UNL     1       5.230   6.061  18.827  0.00  0.00    +0.000 OA
ATOM     11  N   UNL     1       4.503   4.438  17.392  0.00  0.00    +0.000 N 
ATOM     12  C   UNL     1       3.467   3.609  16.784  0.00  0.00    +0.000 C 
BRANCH  11  13
ATOM     13  C   UNL     1       5.885   4.003  17.176  0.00  0.00    +0.000 C 
BRANCH  13  14
ATOM     14  C   UNL     1       6.491   4.656  15.976  0.00  0.00    +0.000 A 
ATOM     15  N   UNL     1       7.344   5.663  16.007  0.00  0.00    +0.000 NA
ATOM     16  N   UNL     1       7.793   5.892  14.735  0.00  0.00    +0.000 NA
ATOM     17  C   UNL     1       7.217   5.024  13.930  0.00  0.00    +0.000 A 
ATOM     18  N   UNL     1       6.340   4.256  14.664  0.00  0.00    +0.000 N 
ATOM     19  C   UNL     1       5.474   3.206  14.165  0.00  0.00    +0.000 C 
ATOM     20  C   UNL     1       4.853   3.511  12.805  0.00  0.00    +0.000 C 
ATOM     21  C   UNL     1       5.781   3.234  11.622  0.00  0.00    +0.000 C 
ATOM     22  C   UNL     1       7.258   3.549  11.855  0.00  0.00    +0.000 C 
ATOM     23  C   UNL     1       7.495   4.924  12.465  0.00  0.00    +0.000 C 
ENDBRANCH  13  14
ENDBRANCH  11  13
ENDBRANCH   1   9
BRANCH   1  24
ATOM     24  C   UNL     1       2.780   7.195  19.464  0.00  0.00    +0.000 C 
BRANCH  24  25
ATOM     25  C   UNL     1       1.929   8.339  18.982  0.00  0.00    +0.000 A 
ATOM     26  C   UNL     1       1.922   8.861  17.703  0.00  0.00    +0.000 A 
ATOM     27  N   UNL     1       1.111   9.963  17.693  0.00  0.00    +0.000 N 
ATOM     28  C   UNL     1       0.549  10.153  18.933  0.00  0.00    +0.000 A 
ATOM     29  C   UNL     1      -0.321  11.153  19.383  0.00  0.00    +0.000 A 
ATOM     30  C   UNL     1      -0.747  11.092  20.713  0.00  0.00    +0.000 A 
ATOM     31  C   UNL     1      -0.323  10.065  21.553  0.00  0.00    +0.000 A 
ATOM     32  C   UNL     1       0.554   9.078  21.089  0.00  0.00    +0.000 A 
ATOM     33  C   UNL     1       1.012   9.125  19.754  0.00  0.00    +0.000 A 
ATOM     34  H   UNL     1       0.957  10.566  16.897  0.00  0.00    +0.000 HD
ENDBRANCH  24  25
ENDBRANCH   1  24
TORSDOF 7
ENDMDL
MODEL 9
REMARK VINA RESULT:      -7.6      3.287      6.122
REMARK  Name = 
REMARK  10 active torsions:
REMARK  status: ('A' for Active; 'I' for Inactive)
REMARK    1  A    between atoms: C_1  and  C_2
REMARK    2  A    between atoms: C_2  and  C_3
REMARK    3  A    between atoms: C_2  and  C_4
REMARK    4  A    between atoms: N_6  and  C_7
REMARK    5  A    between atoms: C_7  and  C_8
REMARK    6  A    between atoms: C_7  and  C_18
REMARK    7  A    between atoms: C_8  and  C_9
REMARK    8  A    between atoms: N_20  and  C_21
REMARK    9  A    between atoms: N_20  and  C_22
REMARK   10  A    between atoms: C_22  and  C_23
REMARK                            x       y       z     vdW  Elec       q    Type
REMARK                         _______ _______ _______ _____ _____    ______ ____
ROOT
ATOM      1  C   UNL     1       0.813   9.935  19.971  0.00  0.00    +0.000 C 
ENDROOT
BRANCH   1   4
ATOM      2  C   UNL     1      -1.090  10.577  18.513  0.00  0.00    +0.000 C 
ATOM      3  O   UNL     1      -0.414  11.402  17.901  0.00  0.00    +0.000 OA
ATOM      4  N   UNL     1      -0.586   9.842  19.554  0.00  0.00    +0.000 N 
ATOM      5  H   UNL     1      -1.192   9.288  20.151  0.00  0.00    +0.000 HD
BRANCH   2   7
ATOM      6  C   UNL     1      -3.396  11.570  18.486  0.00  0.00    +0.000 C 
ATOM      7  C   UNL     1      -2.566  10.315  18.218  0.00  0.00    +0.000 C 
ATOM      8  C   UNL     1      -2.764   9.853  16.775  0.00  0.00    +0.000 C 
ENDBRANCH   2   7
ENDBRANCH   1   4
BRANCH   1   9
ATOM      9  C   UNL     1       1.266   8.533  20.447  0.00  0.00    +0.000 C 
ATOM     10  O   UNL     1       0.954   8.131  21.578  0.00  0.00    +0.000 OA
ATOM     11  N   UNL     1       2.060   7.756  19.614  0.00  0.00    +0.000 N 
ATOM     12  C   UNL     1       2.371   8.053  18.219  0.00  0.00    +0.000 C 
BRANCH  11  13
ATOM     13  C   UNL     1       2.508   6.452  20.109  0.00  0.00    +0.000 C 
BRANCH  13  14
ATOM     14  C   UNL     1       2.775   5.495  18.992  0.00  0.00    +0.000 A 
ATOM     15  N   UNL     1       1.855   4.809  18.341  0.00  0.00    +0.000 NA
ATOM     16  N   UNL     1       2.454   4.161  17.297  0.00  0.00    +0.000 NA
ATOM     17  C   UNL     1       3.738   4.453  17.308  0.00  0.00    +0.000 A 
ATOM     18  N   UNL     1       3.998   5.253  18.399  0.00  0.00    +0.000 N 
ATOM     19  C   UNL     1       5.286   5.774  18.809  0.00  0.00    +0.000 C 
ATOM     20  C   UNL     1       6.438   4.791  18.625  0.00  0.00    +0.000 C 
ATOM     21  C   UNL     1       6.979   4.727  17.196  0.00  0.00    +0.000 C 
ATOM     22  C   UNL     1       5.935   4.869  16.089  0.00  0.00    +0.000 C 
ATOM     23  C   UNL     1       4.718   3.975  16.287  0.00  0.00    +0.000 C 
ENDBRANCH  13  14
ENDBRANCH  11  13
ENDBRANCH   1   9
BRANCH   1  24
ATOM     24  C   UNL     1       1.026  11.014  21.052  0.00  0.00    +0.000 C 
BRANCH  24  25
ATOM     25  C   UNL     1      -0.219  11.333  21.833  0.00  0.00    +0.000 A 
ATOM     26  C   UNL     1      -0.725  10.598  22.888  0.00  0.00    +0.000 A 
ATOM     27  N   UNL     1      -1.928  11.139  23.252  0.00  0.00    +0.000 N 
ATOM     28  C   UNL     1      -2.206  12.244  22.484  0.00  0.00    +0.000 A 
ATOM     29  C   UNL     1      -3.320  13.091  22.494  0.00  0.00    +0.000 A 
ATOM     30  C   UNL     1      -3.331  14.161  21.595  0.00  0.00    +0.000 A 
ATOM     31  C   UNL     1      -2.264  14.376  20.727  0.00  0.00    +0.000 A 
ATOM     32  C   UNL     1      -1.161  13.513  20.722  0.00  0.00    +0.000 A 
ATOM     33  C   UNL     1      -1.131  12.417  21.610  0.00  0.00    +0.000 A 
ATOM     34  H   UNL     1      -2.539  10.773  23.969  0.00  0.00    +0.000 HD
ENDBRANCH  24  25
ENDBRANCH   1  24
TORSDOF 7
ENDMDL
