MODEL 1
REMARK VINA RESULT:      -8.4      0.000      0.000
REMARK  Name = 
REMARK  10 active torsions:
REMARK  status: ('A' for Active; 'I' for Inactive)
REMARK    1  A    between atoms: C_1  and  O_2
REMARK    2  A    between atoms: O_2  and  C_3
REMARK    3  A    between atoms: C_5  and  C_6
REMARK    4  A    between atoms: C_6  and  C_7
REMARK    5  A    between atoms: C_7  and  C_8
REMARK    6  A    between atoms: C_12  and  O_13
REMARK    7  A    between atoms: C_16  and  O_17
REMARK    8  A    between atoms: C_18  and  C_19
REMARK    9  A    between atoms: C_19  and  C_20
REMARK   10  A    between atoms: C_23  and  O_24
REMARK                            x       y       z     vdW  Elec       q    Type
REMARK                         _______ _______ _______ _____ _____    ______ ____
ROOT
ATOM      1  C   UNL     1       5.053   6.473  17.266  0.00  0.00    +0.000 A 
ATOM      2  C   UNL     1       5.852   7.631  17.376  0.00  0.00    +0.000 A 
ATOM      3  C   UNL     1       7.235   7.597  17.602  0.00  0.00    +0.000 A 
ATOM      4  C   UNL     1       7.824   6.349  17.778  0.00  0.00    +0.000 A 
ATOM      5  C   UNL     1       7.047   5.189  17.660  0.00  0.00    +0.000 A 
ATOM      6  C   UNL     1       5.658   5.213  17.377  0.00  0.00    +0.000 A 
ENDROOT
BRANCH   1   8
ATOM      7  C   UNL     1       2.888   7.274  18.038  0.00  0.00    +0.000 C 
ATOM      8  O   UNL     1       3.760   6.832  17.018  0.00  0.00    +0.000 OA
ENDBRANCH   1   8
BRANCH   5   9
ATOM      9  O   UNL     1       7.665   3.972  17.809  0.00  0.00    +0.000 OA
ATOM     10  H   UNL     1       7.508   3.433  17.017  0.00  0.00    +0.000 HD
ENDBRANCH   5   9
BRANCH   3  11
ATOM     11  C   UNL     1       7.981   8.907  17.723  0.00  0.00    +0.000 C 
BRANCH  11  12
ATOM     12  C   UNL     1       8.893   9.067  18.946  0.00  0.00    +0.000 C 
BRANCH  12  13
ATOM     13  C   UNL     1       9.317  10.506  19.131  0.00  0.00    +0.000 A 
ATOM     14  C   UNL     1       9.587  11.021  20.407  0.00  0.00    +0.000 A 
ATOM     15  C   UNL     1       9.995  12.349  20.563  0.00  0.00    +0.000 A 
ATOM     16  C   UNL     1      10.151  13.172  19.449  0.00  0.00    +0.000 A 
ATOM     17  C   UNL     1       9.891  12.660  18.183  0.00  0.00    +0.000 A 
ATOM     18  C   UNL     1       9.481  11.341  18.016  0.00  0.00    +0.000 A 
BRANCH  17  19
ATOM     19  O   UNL     1      10.028  13.428  17.065  0.00  0.00    +0.000 OA
ATOM     20  H   UNL     1      10.136  14.353  17.337  0.00  0.00    +0.000 HD
ENDBRANCH  17  19
ENDBRANCH  12  13
ENDBRANCH  11  12
ENDBRANCH   3  11
BRANCH   6  21
ATOM     21  C   UNL     1       4.967   3.879  17.162  0.00  0.00    +0.000 C 
BRANCH  21  22
ATOM     22  C   UNL     1       3.745   3.554  18.008  0.00  0.00    +0.000 A 
ATOM     23  C   UNL     1       2.439   3.481  17.499  0.00  0.00    +0.000 A 
ATOM     24  C   UNL     1       1.348   3.310  18.355  0.00  0.00    +0.000 A 
ATOM     25  C   UNL     1       1.558   3.186  19.725  0.00  0.00    +0.000 A 
ATOM     26  C   UNL     1       2.844   3.166  20.242  0.00  0.00    +0.000 A 
ATOM     27  C   UNL     1       3.933   3.347  19.386  0.00  0.00    +0.000 A 
BRANCH  25  28
ATOM     28  O   UNL     1       0.513   3.113  20.598  0.00  0.00    +0.000 OA
ATOM     29  H   UNL     1      -0.108   2.446  20.261  0.00  0.00    +0.000 HD
ENDBRANCH  25  28
ENDBRANCH  21  22
ENDBRANCH   6  21
TORSDOF 9
ENDMDL
MODEL 2
REMARK VINA RESULT:      -8.3      1.574      1.954
REMARK  Name = 
REMARK  10 active torsions:
REMARK  status: ('A' for Active; 'I' for Inactive)
REMARK    1  A    between atoms: C_1  and  O_2
REMARK    2  A    between atoms: O_2  and  C_3
REMARK    3  A    between atoms: C_5  and  C_6
REMARK    4  A    between atoms: C_6  and  C_7
REMARK    5  A    between atoms: C_7  and  C_8
REMARK    6  A    between atoms: C_12  and  O_13
REMARK    7  A    between atoms: C_16  and  O_17
REMARK    8  A    between atoms: C_18  and  C_19
REMARK    9  A    between atoms: C_19  and  C_20
REMARK   10  A    between atoms: C_23  and  O_24
REMARK                            x       y       z     vdW  Elec       q    Type
REMARK                         _______ _______ _______ _____ _____    ______ ____
ROOT
ATOM      1  C   UNL     1       6.318   6.588  17.274  0.00  0.00    +0.000 A 
ATOM      2  C   UNL     1       7.005   7.817  17.180  0.00  0.00    +0.000 A 
ATOM      3  C   UNL     1       8.042   8.190  18.047  0.00  0.00    +0.000 A 
ATOM      4  C   UNL     1       8.359   7.315  19.081  0.00  0.00    +0.000 A 
ATOM      5  C   UNL     1       7.694   6.086  19.181  0.00  0.00    +0.000 A 
ATOM      6  C   UNL     1       6.682   5.676  18.276  0.00  0.00    +0.000 A 
ENDROOT
BRANCH   1   8
ATOM      7  C   UNL     1       5.512   5.597  15.202  0.00  0.00    +0.000 C 
ATOM      8  O   UNL     1       5.390   6.506  16.276  0.00  0.00    +0.000 OA
ENDBRANCH   1   8
BRANCH   5   9
ATOM      9  O   UNL     1       8.051   5.231  20.195  0.00  0.00    +0.000 OA
ATOM     10  H   UNL     1       8.750   5.641  20.729  0.00  0.00    +0.000 HD
ENDBRANCH   5   9
BRANCH   3  11
ATOM     11  C   UNL     1       8.690   9.544  17.859  0.00  0.00    +0.000 C 
BRANCH  11  12
ATOM     12  C   UNL     1       9.129  10.277  19.133  0.00  0.00    +0.000 C 
BRANCH  12  13
ATOM     13  C   UNL     1      10.231  11.270  18.843  0.00  0.00    +0.000 A 
ATOM     14  C   UNL     1      11.172  11.612  19.824  0.00  0.00    +0.000 A 
ATOM     15  C   UNL     1      12.197  12.519  19.538  0.00  0.00    +0.000 A 
ATOM     16  C   UNL     1      12.303  13.082  18.267  0.00  0.00    +0.000 A 
ATOM     17  C   UNL     1      11.374  12.738  17.291  0.00  0.00    +0.000 A 
ATOM     18  C   UNL     1      10.348  11.839  17.566  0.00  0.00    +0.000 A 
BRANCH  17  19
ATOM     19  O   UNL     1      11.436  13.265  16.035  0.00  0.00    +0.000 OA
ATOM     20  H   UNL     1      10.778  12.819  15.480  0.00  0.00    +0.000 HD
ENDBRANCH  17  19
ENDBRANCH  12  13
ENDBRANCH  11  12
ENDBRANCH   3  11
BRANCH   6  21
ATOM     21  C   UNL     1       6.130   4.272  18.435  0.00  0.00    +0.000 C 
BRANCH  21  22
ATOM     22  C   UNL     1       4.822   4.092  19.192  0.00  0.00    +0.000 A 
ATOM     23  C   UNL     1       4.385   2.865  19.714  0.00  0.00    +0.000 A 
ATOM     24  C   UNL     1       3.113   2.743  20.280  0.00  0.00    +0.000 A 
ATOM     25  C   UNL     1       2.279   3.855  20.350  0.00  0.00    +0.000 A 
ATOM     26  C   UNL     1       2.722   5.096  19.922  0.00  0.00    +0.000 A 
ATOM     27  C   UNL     1       3.990   5.214  19.347  0.00  0.00    +0.000 A 
BRANCH  25  28
ATOM     28  O   UNL     1       0.999   3.752  20.808  0.00  0.00    +0.000 OA
ATOM     29  H   UNL     1       0.461   4.409  20.336  0.00  0.00    +0.000 HD
ENDBRANCH  25  28
ENDBRANCH  21  22
ENDBRANCH   6  21
TORSDOF 9
ENDMDL
MODEL 3
REMARK VINA RESULT:      -8.3      1.459      2.003
REMARK  Name = 
REMARK  10 active torsions:
REMARK  status: ('A' for Active; 'I' for Inactive)
REMARK    1  A    between atoms: C_1  and  O_2
REMARK    2  A    between atoms: O_2  and  C_3
REMARK    3  A    between atoms: C_5  and  C_6
REMARK    4  A    between atoms: C_6  and  C_7
REMARK    5  A    between atoms: C_7  and  C_8
REMARK    6  A    between atoms: C_12  and  O_13
REMARK    7  A    between atoms: C_16  and  O_17
REMARK    8  A    between atoms: C_18  and  C_19
REMARK    9  A    between atoms: C_19  and  C_20
REMARK   10  A    between atoms: C_23  and  O_24
REMARK                            x       y       z     vdW  Elec       q    Type
REMARK                         _______ _______ _______ _____ _____    ______ ____
ROOT
ATOM      1  C   UNL     1       6.477   6.817  17.111  0.00  0.00    +0.000 A 
ATOM      2  C   UNL     1       7.125   8.069  17.169  0.00  0.00    +0.000 A 
ATOM      3  C   UNL     1       8.128   8.378  18.097  0.00  0.00    +0.000 A 
ATOM      4  C   UNL     1       8.452   7.407  19.038  0.00  0.00    +0.000 A 
ATOM      5  C   UNL     1       7.827   6.153  18.988  0.00  0.00    +0.000 A 
ATOM      6  C   UNL     1       6.850   5.813  18.018  0.00  0.00    +0.000 A 
ENDROOT
BRANCH   1   8
ATOM      7  C   UNL     1       5.598   5.845  15.061  0.00  0.00    +0.000 C 
ATOM      8  O   UNL     1       5.575   6.815  16.088  0.00  0.00    +0.000 OA
ENDBRANCH   1   8
BRANCH   5   9
ATOM      9  O   UNL     1       8.191   5.205  19.912  0.00  0.00    +0.000 OA
ATOM     10  H   UNL     1       8.621   5.640  20.666  0.00  0.00    +0.000 HD
ENDBRANCH   5   9
BRANCH   3  11
ATOM     11  C   UNL     1       8.734   9.765  18.073  0.00  0.00    +0.000 C 
BRANCH  11  12
ATOM     12  C   UNL     1       9.477  10.210  19.340  0.00  0.00    +0.000 C 
BRANCH  12  13
ATOM     13  C   UNL     1      10.393  11.378  19.056  0.00  0.00    +0.000 A 
ATOM     14  C   UNL     1      10.925  12.149  20.099  0.00  0.00    +0.000 A 
ATOM     15  C   UNL     1      11.786  13.216  19.824  0.00  0.00    +0.000 A 
ATOM     16  C   UNL     1      12.137  13.516  18.509  0.00  0.00    +0.000 A 
ATOM     17  C   UNL     1      11.616  12.747  17.474  0.00  0.00    +0.000 A 
ATOM     18  C   UNL     1      10.756  11.685  17.736  0.00  0.00    +0.000 A 
BRANCH  17  19
ATOM     19  O   UNL     1      11.928  13.005  16.172  0.00  0.00    +0.000 OA
ATOM     20  H   UNL     1      11.322  13.685  15.838  0.00  0.00    +0.000 HD
ENDBRANCH  17  19
ENDBRANCH  12  13
ENDBRANCH  11  12
ENDBRANCH   3  11
BRANCH   6  21
ATOM     21  C   UNL     1       6.343   4.383  18.010  0.00  0.00    +0.000 C 
BRANCH  21  22
ATOM     22  C   UNL     1       4.861   4.141  18.258  0.00  0.00    +0.000 A 
ATOM     23  C   UNL     1       4.188   4.543  19.422  0.00  0.00    +0.000 A 
ATOM     24  C   UNL     1       2.858   4.172  19.642  0.00  0.00    +0.000 A 
ATOM     25  C   UNL     1       2.186   3.417  18.686  0.00  0.00    +0.000 A 
ATOM     26  C   UNL     1       2.801   3.084  17.489  0.00  0.00    +0.000 A 
ATOM     27  C   UNL     1       4.133   3.447  17.275  0.00  0.00    +0.000 A 
BRANCH  25  28
ATOM     28  O   UNL     1       0.922   2.957  18.908  0.00  0.00    +0.000 OA
ATOM     29  H   UNL     1       0.499   3.550  19.552  0.00  0.00    +0.000 HD
ENDBRANCH  25  28
ENDBRANCH  21  22
ENDBRANCH   6  21
TORSDOF 9
ENDMDL
MODEL 4
REMARK VINA RESULT:      -8.3      1.168      1.361
REMARK  Name = 
REMARK  10 active torsions:
REMARK  status: ('A' for Active; 'I' for Inactive)
REMARK    1  A    between atoms: C_1  and  O_2
REMARK    2  A    between atoms: O_2  and  C_3
REMARK    3  A    between atoms: C_5  and  C_6
REMARK    4  A    between atoms: C_6  and  C_7
REMARK    5  A    between atoms: C_7  and  C_8
REMARK    6  A    between atoms: C_12  and  O_13
REMARK    7  A    between atoms: C_16  and  O_17
REMARK    8  A    between atoms: C_18  and  C_19
REMARK    9  A    between atoms: C_19  and  C_20
REMARK   10  A    between atoms: C_23  and  O_24
REMARK                            x       y       z     vdW  Elec       q    Type
REMARK                         _______ _______ _______ _____ _____    ______ ____
ROOT
ATOM      1  C   UNL     1       4.397   6.289  17.795  0.00  0.00    +0.000 A 
ATOM      2  C   UNL     1       5.460   7.214  17.715  0.00  0.00    +0.000 A 
ATOM      3  C   UNL     1       6.709   6.910  17.156  0.00  0.00    +0.000 A 
ATOM      4  C   UNL     1       6.913   5.607  16.713  0.00  0.00    +0.000 A 
ATOM      5  C   UNL     1       5.864   4.679  16.774  0.00  0.00    +0.000 A 
ATOM      6  C   UNL     1       4.580   4.994  17.287  0.00  0.00    +0.000 A 
ENDROOT
BRANCH   1   8
ATOM      7  C   UNL     1       2.742   8.072  17.836  0.00  0.00    +0.000 C 
ATOM      8  O   UNL     1       3.310   6.889  18.359  0.00  0.00    +0.000 OA
ENDBRANCH   1   8
BRANCH   5   9
ATOM      9  O   UNL     1       6.088   3.410  16.300  0.00  0.00    +0.000 OA
ATOM     10  H   UNL     1       5.927   2.769  17.011  0.00  0.00    +0.000 HD
ENDBRANCH   5   9
BRANCH   3  11
ATOM     11  C   UNL     1       7.777   7.981  17.146  0.00  0.00    +0.000 C 
BRANCH  11  12
ATOM     12  C   UNL     1       8.400   8.341  18.501  0.00  0.00    +0.000 C 
BRANCH  12  13
ATOM     13  C   UNL     1       8.757   9.808  18.569  0.00  0.00    +0.000 A 
ATOM     14  C   UNL     1       9.729  10.274  19.465  0.00  0.00    +0.000 A 
ATOM     15  C   UNL     1      10.062  11.631  19.506  0.00  0.00    +0.000 A 
ATOM     16  C   UNL     1       9.441  12.535  18.645  0.00  0.00    +0.000 A 
ATOM     17  C   UNL     1       8.482  12.072  17.751  0.00  0.00    +0.000 A 
ATOM     18  C   UNL     1       8.140  10.724  17.704  0.00  0.00    +0.000 A 
BRANCH  17  19
ATOM     19  O   UNL     1       7.846  12.918  16.892  0.00  0.00    +0.000 OA
ATOM     20  H   UNL     1       8.479  13.592  16.597  0.00  0.00    +0.000 HD
ENDBRANCH  17  19
ENDBRANCH  12  13
ENDBRANCH  11  12
ENDBRANCH   3  11
BRANCH   6  21
ATOM     21  C   UNL     1       3.507   3.926  17.186  0.00  0.00    +0.000 C 
BRANCH  21  22
ATOM     22  C   UNL     1       2.833   3.456  18.467  0.00  0.00    +0.000 A 
ATOM     23  C   UNL     1       1.445   3.485  18.674  0.00  0.00    +0.000 A 
ATOM     24  C   UNL     1       0.904   3.164  19.922  0.00  0.00    +0.000 A 
ATOM     25  C   UNL     1       1.746   2.787  20.963  0.00  0.00    +0.000 A 
ATOM     26  C   UNL     1       3.111   2.663  20.758  0.00  0.00    +0.000 A 
ATOM     27  C   UNL     1       3.652   2.995  19.513  0.00  0.00    +0.000 A 
BRANCH  25  28
ATOM     28  O   UNL     1       1.263   2.558  22.218  0.00  0.00    +0.000 OA
ATOM     29  H   UNL     1       0.293   2.620  22.178  0.00  0.00    +0.000 HD
ENDBRANCH  25  28
ENDBRANCH  21  22
ENDBRANCH   6  21
TORSDOF 9
ENDMDL
MODEL 5
REMARK VINA RESULT:      -8.1      4.392      7.499
REMARK  Name = 
REMARK  10 active torsions:
REMARK  status: ('A' for Active; 'I' for Inactive)
REMARK    1  A    between atoms: C_1  and  O_2
REMARK    2  A    between atoms: O_2  and  C_3
REMARK    3  A    between atoms: C_5  and  C_6
REMARK    4  A    between atoms: C_6  and  C_7
REMARK    5  A    between atoms: C_7  and  C_8
REMARK    6  A    between atoms: C_12  and  O_13
REMARK    7  A    between atoms: C_16  and  O_17
REMARK    8  A    between atoms: C_18  and  C_19
REMARK    9  A    between atoms: C_19  and  C_20
REMARK   10  A    between atoms: C_23  and  O_24
REMARK                            x       y       z     vdW  Elec       q    Type
REMARK                         _______ _______ _______ _____ _____    ______ ____
ROOT
ATOM      1  C   UNL     1       1.325   8.522  20.459  0.00  0.00    +0.000 A 
ATOM      2  C   UNL     1       1.916   7.259  20.243  0.00  0.00    +0.000 A 
ATOM      3  C   UNL     1       2.545   6.896  19.044  0.00  0.00    +0.000 A 
ATOM      4  C   UNL     1       2.527   7.820  18.005  0.00  0.00    +0.000 A 
ATOM      5  C   UNL     1       1.954   9.083  18.207  0.00  0.00    +0.000 A 
ATOM      6  C   UNL     1       1.365   9.479  19.434  0.00  0.00    +0.000 A 
ENDROOT
BRANCH   1   8
ATOM      7  C   UNL     1      -0.561   8.646  21.992  0.00  0.00    +0.000 C 
ATOM      8  O   UNL     1       0.825   8.581  21.727  0.00  0.00    +0.000 OA
ENDBRANCH   1   8
BRANCH   5   9
ATOM      9  O   UNL     1       1.980   9.985  17.171  0.00  0.00    +0.000 OA
ATOM     10  H   UNL     1       2.879  10.339  17.076  0.00  0.00    +0.000 HD
ENDBRANCH   5   9
BRANCH   3  11
ATOM     11  C   UNL     1       3.125   5.503  18.924  0.00  0.00    +0.000 C 
BRANCH  11  12
ATOM     12  C   UNL     1       4.065   5.252  17.738  0.00  0.00    +0.000 C 
BRANCH  12  13
ATOM     13  C   UNL     1       5.459   5.763  18.024  0.00  0.00    +0.000 A 
ATOM     14  C   UNL     1       6.061   6.720  17.195  0.00  0.00    +0.000 A 
ATOM     15  C   UNL     1       7.344   7.198  17.480  0.00  0.00    +0.000 A 
ATOM     16  C   UNL     1       8.032   6.738  18.602  0.00  0.00    +0.000 A 
ATOM     17  C   UNL     1       7.432   5.795  19.430  0.00  0.00    +0.000 A 
ATOM     18  C   UNL     1       6.158   5.311  19.153  0.00  0.00    +0.000 A 
BRANCH  17  19
ATOM     19  O   UNL     1       8.068   5.315  20.536  0.00  0.00    +0.000 OA
ATOM     20  H   UNL     1       8.334   4.398  20.366  0.00  0.00    +0.000 HD
ENDBRANCH  17  19
ENDBRANCH  12  13
ENDBRANCH  11  12
ENDBRANCH   3  11
BRANCH   6  21
ATOM     21  C   UNL     1       0.888  10.915  19.548  0.00  0.00    +0.000 C 
BRANCH  21  22
ATOM     22  C   UNL     1      -0.567  11.220  19.222  0.00  0.00    +0.000 A 
ATOM     23  C   UNL     1      -1.342  12.161  19.917  0.00  0.00    +0.000 A 
ATOM     24  C   UNL     1      -2.708  12.296  19.652  0.00  0.00    +0.000 A 
ATOM     25  C   UNL     1      -3.302  11.507  18.671  0.00  0.00    +0.000 A 
ATOM     26  C   UNL     1      -2.540  10.635  17.910  0.00  0.00    +0.000 A 
ATOM     27  C   UNL     1      -1.177  10.494  18.183  0.00  0.00    +0.000 A 
BRANCH  25  28
ATOM     28  O   UNL     1      -4.647  11.544  18.452  0.00  0.00    +0.000 OA
ATOM     29  H   UNL     1      -4.806  11.256  17.537  0.00  0.00    +0.000 HD
ENDBRANCH  25  28
ENDBRANCH  21  22
ENDBRANCH   6  21
TORSDOF 9
ENDMDL
MODEL 6
REMARK VINA RESULT:      -8.1      1.033      1.398
REMARK  Name = 
REMARK  10 active torsions:
REMARK  status: ('A' for Active; 'I' for Inactive)
REMARK    1  A    between atoms: C_1  and  O_2
REMARK    2  A    between atoms: O_2  and  C_3
REMARK    3  A    between atoms: C_5  and  C_6
REMARK    4  A    between atoms: C_6  and  C_7
REMARK    5  A    between atoms: C_7  and  C_8
REMARK    6  A    between atoms: C_12  and  O_13
REMARK    7  A    between atoms: C_16  and  O_17
REMARK    8  A    between atoms: C_18  and  C_19
REMARK    9  A    between atoms: C_19  and  C_20
REMARK   10  A    between atoms: C_23  and  O_24
REMARK                            x       y       z     vdW  Elec       q    Type
REMARK                         _______ _______ _______ _____ _____    ______ ____
ROOT
ATOM      1  C   UNL     1       4.931   6.373  17.289  0.00  0.00    +0.000 A 
ATOM      2  C   UNL     1       5.726   7.536  17.378  0.00  0.00    +0.000 A 
ATOM      3  C   UNL     1       7.116   7.510  17.558  0.00  0.00    +0.000 A 
ATOM      4  C   UNL     1       7.719   6.266  17.709  0.00  0.00    +0.000 A 
ATOM      5  C   UNL     1       6.946   5.101  17.612  0.00  0.00    +0.000 A 
ATOM      6  C   UNL     1       5.548   5.116  17.376  0.00  0.00    +0.000 A 
ENDROOT
BRANCH   1   8
ATOM      7  C   UNL     1       2.811   7.233  18.120  0.00  0.00    +0.000 C 
ATOM      8  O   UNL     1       3.628   6.725  17.086  0.00  0.00    +0.000 OA
ENDBRANCH   1   8
BRANCH   5   9
ATOM      9  O   UNL     1       7.576   3.887  17.735  0.00  0.00    +0.000 OA
ATOM     10  H   UNL     1       8.379   3.995  18.271  0.00  0.00    +0.000 HD
ENDBRANCH   5   9
BRANCH   3  11
ATOM     11  C   UNL     1       7.857   8.825  17.659  0.00  0.00    +0.000 C 
BRANCH  11  12
ATOM     12  C   UNL     1       8.909   8.935  18.770  0.00  0.00    +0.000 C 
BRANCH  12  13
ATOM     13  C   UNL     1       9.200  10.379  19.110  0.00  0.00    +0.000 A 
ATOM     14  C   UNL     1       9.265  11.357  18.107  0.00  0.00    +0.000 A 
ATOM     15  C   UNL     1       9.518  12.692  18.436  0.00  0.00    +0.000 A 
ATOM     16  C   UNL     1       9.693  13.068  19.767  0.00  0.00    +0.000 A 
ATOM     17  C   UNL     1       9.621  12.100  20.762  0.00  0.00    +0.000 A 
ATOM     18  C   UNL     1       9.374  10.768  20.446  0.00  0.00    +0.000 A 
BRANCH  17  19
ATOM     19  O   UNL     1       9.788  12.420  22.077  0.00  0.00    +0.000 OA
ATOM     20  H   UNL     1      10.722  12.638  22.225  0.00  0.00    +0.000 HD
ENDBRANCH  17  19
ENDBRANCH  12  13
ENDBRANCH  11  12
ENDBRANCH   3  11
BRANCH   6  21
ATOM     21  C   UNL     1       4.859   3.779  17.178  0.00  0.00    +0.000 C 
BRANCH  21  22
ATOM     22  C   UNL     1       3.672   3.440  18.068  0.00  0.00    +0.000 A 
ATOM     23  C   UNL     1       2.341   3.426  17.624  0.00  0.00    +0.000 A 
ATOM     24  C   UNL     1       1.290   3.237  18.525  0.00  0.00    +0.000 A 
ATOM     25  C   UNL     1       1.566   3.034  19.874  0.00  0.00    +0.000 A 
ATOM     26  C   UNL     1       2.874   2.954  20.322  0.00  0.00    +0.000 A 
ATOM     27  C   UNL     1       3.924   3.154  19.422  0.00  0.00    +0.000 A 
BRANCH  25  28
ATOM     28  O   UNL     1       0.564   2.940  20.795  0.00  0.00    +0.000 OA
ATOM     29  H   UNL     1       0.482   3.804  21.233  0.00  0.00    +0.000 HD
ENDBRANCH  25  28
ENDBRANCH  21  22
ENDBRANCH   6  21
TORSDOF 9
ENDMDL
MODEL 7
REMARK VINA RESULT:      -8.0      4.587      7.943
REMARK  Name = 
REMARK  10 active torsions:
REMARK  status: ('A' for Active; 'I' for Inactive)
REMARK    1  A    between atoms: C_1  and  O_2
REMARK    2  A    between atoms: O_2  and  C_3
REMARK    3  A    between atoms: C_5  and  C_6
REMARK    4  A    between atoms: C_6  and  C_7
REMARK    5  A    between atoms: C_7  and  C_8
REMARK    6  A    between atoms: C_12  and  O_13
REMARK    7  A    between atoms: C_16  and  O_17
REMARK    8  A    between atoms: C_18  and  C_19
REMARK    9  A    between atoms: C_19  and  C_20
REMARK   10  A    between atoms: C_23  and  O_24
REMARK                            x       y       z     vdW  Elec       q    Type
REMARK                         _______ _______ _______ _____ _____    ______ ____
ROOT
ATOM      1  C   UNL     1       0.694   8.778  20.532  0.00  0.00    +0.000 A 
ATOM      2  C   UNL     1       1.422   7.569  20.575  0.00  0.00    +0.000 A 
ATOM      3  C   UNL     1       2.311   7.166  19.568  0.00  0.00    +0.000 A 
ATOM      4  C   UNL     1       2.428   7.986  18.451  0.00  0.00    +0.000 A 
ATOM      5  C   UNL     1       1.722   9.195  18.398  0.00  0.00    +0.000 A 
ATOM      6  C   UNL     1       0.862   9.637  19.436  0.00  0.00    +0.000 A 
ENDROOT
BRANCH   1   8
ATOM      7  C   UNL     1       0.454   9.459  22.856  0.00  0.00    +0.000 C 
ATOM      8  O   UNL     1      -0.057   8.899  21.664  0.00  0.00    +0.000 OA
ENDBRANCH   1   8
BRANCH   5   9
ATOM      9  O   UNL     1       1.882   9.997  17.295  0.00  0.00    +0.000 OA
ATOM     10  H   UNL     1       1.364  10.809  17.410  0.00  0.00    +0.000 HD
ENDBRANCH   5   9
BRANCH   3  11
ATOM     11  C   UNL     1       3.018   5.837  19.718  0.00  0.00    +0.000 C 
BRANCH  11  12
ATOM     12  C   UNL     1       3.391   5.109  18.420  0.00  0.00    +0.000 C 
BRANCH  12  13
ATOM     13  C   UNL     1       4.891   5.030  18.246  0.00  0.00    +0.000 A 
ATOM     14  C   UNL     1       5.457   4.706  17.005  0.00  0.00    +0.000 A 
ATOM     15  C   UNL     1       6.846   4.653  16.854  0.00  0.00    +0.000 A 
ATOM     16  C   UNL     1       7.683   4.936  17.932  0.00  0.00    +0.000 A 
ATOM     17  C   UNL     1       7.121   5.265  19.161  0.00  0.00    +0.000 A 
ATOM     18  C   UNL     1       5.741   5.317  19.324  0.00  0.00    +0.000 A 
BRANCH  17  19
ATOM     19  O   UNL     1       7.900   5.546  20.244  0.00  0.00    +0.000 OA
ATOM     20  H   UNL     1       7.329   5.870  20.959  0.00  0.00    +0.000 HD
ENDBRANCH  17  19
ENDBRANCH  12  13
ENDBRANCH  11  12
ENDBRANCH   3  11
BRANCH   6  21
ATOM     21  C   UNL     1       0.253  11.020  19.297  0.00  0.00    +0.000 C 
BRANCH  21  22
ATOM     22  C   UNL     1      -1.186  11.129  18.813  0.00  0.00    +0.000 A 
ATOM     23  C   UNL     1      -2.113  12.052  19.322  0.00  0.00    +0.000 A 
ATOM     24  C   UNL     1      -3.453  12.008  18.928  0.00  0.00    +0.000 A 
ATOM     25  C   UNL     1      -3.869  11.057  18.002  0.00  0.00    +0.000 A 
ATOM     26  C   UNL     1      -2.956  10.194  17.418  0.00  0.00    +0.000 A 
ATOM     27  C   UNL     1      -1.619  10.231  17.821  0.00  0.00    +0.000 A 
BRANCH  25  28
ATOM     28  O   UNL     1      -5.184  10.924  17.666  0.00  0.00    +0.000 OA
ATOM     29  H   UNL     1      -5.225  10.602  16.750  0.00  0.00    +0.000 HD
ENDBRANCH  25  28
ENDBRANCH  21  22
ENDBRANCH   6  21
TORSDOF 9
ENDMDL
MODEL 8
REMARK VINA RESULT:      -8.0      1.034      1.362
REMARK  Name = 
REMARK  10 active torsions:
REMARK  status: ('A' for Active; 'I' for Inactive)
REMARK    1  A    between atoms: C_1  and  O_2
REMARK    2  A    between atoms: O_2  and  C_3
REMARK    3  A    between atoms: C_5  and  C_6
REMARK    4  A    between atoms: C_6  and  C_7
REMARK    5  A    between atoms: C_7  and  C_8
REMARK    6  A    between atoms: C_12  and  O_13
REMARK    7  A    between atoms: C_16  and  O_17
REMARK    8  A    between atoms: C_18  and  C_19
REMARK    9  A    between atoms: C_19  and  C_20
REMARK   10  A    between atoms: C_23  and  O_24
REMARK                            x       y       z     vdW  Elec       q    Type
REMARK                         _______ _______ _______ _____ _____    ______ ____
ROOT
ATOM      1  C   UNL     1       5.363   6.701  17.260  0.00  0.00    +0.000 A 
ATOM      2  C   UNL     1       6.296   7.720  17.546  0.00  0.00    +0.000 A 
ATOM      3  C   UNL     1       7.617   7.469  17.944  0.00  0.00    +0.000 A 
ATOM      4  C   UNL     1       7.993   6.141  18.113  0.00  0.00    +0.000 A 
ATOM      5  C   UNL     1       7.082   5.116  17.821  0.00  0.00    +0.000 A 
ATOM      6  C   UNL     1       5.762   5.360  17.366  0.00  0.00    +0.000 A 
ENDROOT
BRANCH   1   8
ATOM      7  C   UNL     1       3.135   7.529  17.784  0.00  0.00    +0.000 C 
ATOM      8  O   UNL     1       4.180   7.260  16.873  0.00  0.00    +0.000 OA
ENDBRANCH   1   8
BRANCH   5   9
ATOM      9  O   UNL     1       7.494   3.815  17.969  0.00  0.00    +0.000 OA
ATOM     10  H   UNL     1       8.256   3.785  18.571  0.00  0.00    +0.000 HD
ENDBRANCH   5   9
BRANCH   3  11
ATOM     11  C   UNL     1       8.519   8.646  18.244  0.00  0.00    +0.000 C 
BRANCH  11  12
ATOM     12  C   UNL     1       7.972  10.035  17.889  0.00  0.00    +0.000 C 
BRANCH  12  13
ATOM     13  C   UNL     1       8.978  11.118  18.207  0.00  0.00    +0.000 A 
ATOM     14  C   UNL     1       8.865  12.396  17.642  0.00  0.00    +0.000 A 
ATOM     15  C   UNL     1       9.792  13.394  17.957  0.00  0.00    +0.000 A 
ATOM     16  C   UNL     1      10.831  13.133  18.849  0.00  0.00    +0.000 A 
ATOM     17  C   UNL     1      10.939  11.868  19.416  0.00  0.00    +0.000 A 
ATOM     18  C   UNL     1      10.024  10.866  19.106  0.00  0.00    +0.000 A 
BRANCH  17  19
ATOM     19  O   UNL     1      11.940  11.565  20.291  0.00  0.00    +0.000 OA
ATOM     20  H   UNL     1      12.701  12.135  20.098  0.00  0.00    +0.000 HD
ENDBRANCH  17  19
ENDBRANCH  12  13
ENDBRANCH  11  12
ENDBRANCH   3  11
BRANCH   6  21
ATOM     21  C   UNL     1       4.924   4.157  16.978  0.00  0.00    +0.000 C 
BRANCH  21  22
ATOM     22  C   UNL     1       3.733   3.793  17.854  0.00  0.00    +0.000 A 
ATOM     23  C   UNL     1       2.410   3.741  17.390  0.00  0.00    +0.000 A 
ATOM     24  C   UNL     1       1.350   3.531  18.277  0.00  0.00    +0.000 A 
ATOM     25  C   UNL     1       1.611   3.347  19.632  0.00  0.00    +0.000 A 
ATOM     26  C   UNL     1       2.915   3.306  20.100  0.00  0.00    +0.000 A 
ATOM     27  C   UNL     1       3.972   3.526  19.214  0.00  0.00    +0.000 A 
BRANCH  25  28
ATOM     28  O   UNL     1       0.599   3.235  20.538  0.00  0.00    +0.000 OA
ATOM     29  H   UNL     1       0.877   3.689  21.351  0.00  0.00    +0.000 HD
ENDBRANCH  25  28
ENDBRANCH  21  22
ENDBRANCH   6  21
TORSDOF 9
ENDMDL
MODEL 9
REMARK VINA RESULT:      -8.0      1.709      2.035
REMARK  Name = 
REMARK  10 active torsions:
REMARK  status: ('A' for Active; 'I' for Inactive)
REMARK    1  A    between atoms: C_1  and  O_2
REMARK    2  A    between atoms: O_2  and  C_3
REMARK    3  A    between atoms: C_5  and  C_6
REMARK    4  A    between atoms: C_6  and  C_7
REMARK    5  A    between atoms: C_7  and  C_8
REMARK    6  A    between atoms: C_12  and  O_13
REMARK    7  A    between atoms: C_16  and  O_17
REMARK    8  A    between atoms: C_18  and  C_19
REMARK    9  A    between atoms: C_19  and  C_20
REMARK   10  A    between atoms: C_23  and  O_24
REMARK                            x       y       z     vdW  Elec       q    Type
REMARK                         _______ _______ _______ _____ _____    ______ ____
ROOT
ATOM      1  C   UNL     1       6.193   5.897  16.439  0.00  0.00    +0.000 A 
ATOM      2  C   UNL     1       7.082   6.860  16.964  0.00  0.00    +0.000 A 
ATOM      3  C   UNL     1       7.611   6.797  18.261  0.00  0.00    +0.000 A 
ATOM      4  C   UNL     1       7.185   5.754  19.077  0.00  0.00    +0.000 A 
ATOM      5  C   UNL     1       6.312   4.783  18.567  0.00  0.00    +0.000 A 
ATOM      6  C   UNL     1       5.815   4.809  17.239  0.00  0.00    +0.000 A 
ENDROOT
BRANCH   1   8
ATOM      7  C   UNL     1       4.728   6.958  14.812  0.00  0.00    +0.000 C 
ATOM      8  O   UNL     1       5.882   6.218  15.150  0.00  0.00    +0.000 OA
ENDBRANCH   1   8
BRANCH   5   9
ATOM      9  O   UNL     1       5.935   3.749  19.389  0.00  0.00    +0.000 OA
ATOM     10  H   UNL     1       4.976   3.789  19.534  0.00  0.00    +0.000 HD
ENDBRANCH   5   9
BRANCH   3  11
ATOM     11  C   UNL     1       8.539   7.901  18.717  0.00  0.00    +0.000 C 
BRANCH  11  12
ATOM     12  C   UNL     1       8.314   9.286  18.097  0.00  0.00    +0.000 C 
BRANCH  12  13
ATOM     13  C   UNL     1       9.258  10.310  18.684  0.00  0.00    +0.000 A 
ATOM     14  C   UNL     1      10.191  10.976  17.877  0.00  0.00    +0.000 A 
ATOM     15  C   UNL     1      11.048  11.935  18.429  0.00  0.00    +0.000 A 
ATOM     16  C   UNL     1      10.972  12.248  19.785  0.00  0.00    +0.000 A 
ATOM     17  C   UNL     1      10.042  11.593  20.584  0.00  0.00    +0.000 A 
ATOM     18  C   UNL     1       9.187  10.636  20.046  0.00  0.00    +0.000 A 
BRANCH  17  19
ATOM     19  O   UNL     1       9.934  11.865  21.915  0.00  0.00    +0.000 OA
ATOM     20  H   UNL     1      10.417  12.685  22.103  0.00  0.00    +0.000 HD
ENDBRANCH  17  19
ENDBRANCH  12  13
ENDBRANCH  11  12
ENDBRANCH   3  11
BRANCH   6  21
ATOM     21  C   UNL     1       4.971   3.632  16.787  0.00  0.00    +0.000 C 
BRANCH  21  22
ATOM     22  C   UNL     1       3.595   3.448  17.410  0.00  0.00    +0.000 A 
ATOM     23  C   UNL     1       2.680   4.494  17.603  0.00  0.00    +0.000 A 
ATOM     24  C   UNL     1       1.488   4.280  18.301  0.00  0.00    +0.000 A 
ATOM     25  C   UNL     1       1.193   3.011  18.790  0.00  0.00    +0.000 A 
ATOM     26  C   UNL     1       2.038   1.943  18.534  0.00  0.00    +0.000 A 
ATOM     27  C   UNL     1       3.233   2.161  17.845  0.00  0.00    +0.000 A 
BRANCH  25  28
ATOM     28  O   UNL     1       0.087   2.787  19.555  0.00  0.00    +0.000 OA
ATOM     29  H   UNL     1      -0.636   2.523  18.962  0.00  0.00    +0.000 HD
ENDBRANCH  25  28
ENDBRANCH  21  22
ENDBRANCH   6  21
TORSDOF 9
ENDMDL
