MODEL 1
REMARK VINA RESULT:      -5.4      0.000      0.000
REMARK  Name = 
REMARK  2 active torsions:
REMARK  status: ('A' for Active; 'I' for Inactive)
REMARK    1  A    between atoms: C_2  and  C_3
REMARK    2  A    between atoms: N_5  and  C_6
REMARK                            x       y       z     vdW  Elec       q    Type
REMARK                         _______ _______ _______ _____ _____    ______ ____
ROOT
ATOM      1  N   UNL     1       6.282   4.215  18.753  0.00  0.00    +0.000 NA
ATOM      2  C   UNL     1       6.109   4.241  17.477  0.00  0.00    +0.000 C 
ATOM      3  N   UNL     1       5.031   3.533  16.857  0.00  0.00    +0.000 N 
ATOM      4  H   UNL     1       5.674   3.669  19.381  0.00  0.00    +0.000 HD
ATOM      5  H   UNL     1       5.170   3.185  15.895  0.00  0.00    +0.000 HD
ENDROOT
BRANCH   3   6
ATOM      6  C   UNL     1       3.750   3.343  17.459  0.00  0.00    +0.000 A 
ATOM      7  C   UNL     1       2.790   4.374  17.477  0.00  0.00    +0.000 A 
ATOM      8  C   UNL     1       1.527   4.163  18.032  0.00  0.00    +0.000 A 
ATOM      9  C   UNL     1       1.206   2.923  18.585  0.00  0.00    +0.000 A 
ATOM     10  C   UNL     1       2.146   1.886  18.569  0.00  0.00    +0.000 A 
ATOM     11  C   UNL     1       3.406   2.092  17.999  0.00  0.00    +0.000 A 
ENDBRANCH   3   6
BRANCH   2  12
ATOM     12  C   UNL     1       7.091   4.996  16.624  0.00  0.00    +0.000 C 
ATOM     13  F   UNL     1       7.659   6.042  17.329  0.00  0.00    +0.000 F 
ENDBRANCH   2  12
TORSDOF 2
ENDMDL
MODEL 2
REMARK VINA RESULT:      -5.4      1.811      1.827
REMARK  Name = 
REMARK  2 active torsions:
REMARK  status: ('A' for Active; 'I' for Inactive)
REMARK    1  A    between atoms: C_2  and  C_3
REMARK    2  A    between atoms: N_5  and  C_6
REMARK                            x       y       z     vdW  Elec       q    Type
REMARK                         _______ _______ _______ _____ _____    ______ ____
ROOT
ATOM      1  N   UNL     1       6.157   5.089  19.597  0.00  0.00    +0.000 NA
ATOM      2  C   UNL     1       5.904   4.407  18.534  0.00  0.00    +0.000 C 
ATOM      3  N   UNL     1       4.893   3.395  18.522  0.00  0.00    +0.000 N 
ATOM      4  H   UNL     1       5.666   4.925  20.488  0.00  0.00    +0.000 HD
ATOM      5  H   UNL     1       5.017   2.594  17.883  0.00  0.00    +0.000 HD
ENDROOT
BRANCH   3   6
ATOM      6  C   UNL     1       3.687   3.462  19.286  0.00  0.00    +0.000 A 
ATOM      7  C   UNL     1       2.583   4.216  18.845  0.00  0.00    +0.000 A 
ATOM      8  C   UNL     1       1.396   4.241  19.579  0.00  0.00    +0.000 A 
ATOM      9  C   UNL     1       1.297   3.520  20.770  0.00  0.00    +0.000 A 
ATOM     10  C   UNL     1       2.384   2.760  21.218  0.00  0.00    +0.000 A 
ATOM     11  C   UNL     1       3.567   2.722  20.475  0.00  0.00    +0.000 A 
ENDBRANCH   3   6
BRANCH   2  12
ATOM     12  C   UNL     1       6.723   4.654  17.297  0.00  0.00    +0.000 C 
ATOM     13  F   UNL     1       8.039   4.274  17.491  0.00  0.00    +0.000 F 
ENDBRANCH   2  12
TORSDOF 2
ENDMDL
MODEL 3
REMARK VINA RESULT:      -5.3      2.991      4.758
REMARK  Name = 
REMARK  2 active torsions:
REMARK  status: ('A' for Active; 'I' for Inactive)
REMARK    1  A    between atoms: C_2  and  C_3
REMARK    2  A    between atoms: N_5  and  C_6
REMARK                            x       y       z     vdW  Elec       q    Type
REMARK                         _______ _______ _______ _____ _____    ______ ____
ROOT
ATOM      1  N   UNL     1       4.933   1.925  19.836  0.00  0.00    +0.000 NA
ATOM      2  C   UNL     1       4.081   2.890  19.819  0.00  0.00    +0.000 C 
ATOM      3  N   UNL     1       4.392   4.147  19.209  0.00  0.00    +0.000 N 
ATOM      4  H   UNL     1       5.879   2.016  19.436  0.00  0.00    +0.000 HD
ATOM      5  H   UNL     1       3.944   4.995  19.591  0.00  0.00    +0.000 HD
ENDROOT
BRANCH   3   6
ATOM      6  C   UNL     1       5.225   4.290  18.057  0.00  0.00    +0.000 A 
ATOM      7  C   UNL     1       6.571   4.687  18.173  0.00  0.00    +0.000 A 
ATOM      8  C   UNL     1       7.386   4.785  17.045  0.00  0.00    +0.000 A 
ATOM      9  C   UNL     1       6.867   4.495  15.782  0.00  0.00    +0.000 A 
ATOM     10  C   UNL     1       5.533   4.092  15.650  0.00  0.00    +0.000 A 
ATOM     11  C   UNL     1       4.720   3.980  16.782  0.00  0.00    +0.000 A 
ENDBRANCH   3   6
BRANCH   2  12
ATOM     12  C   UNL     1       2.753   2.702  20.498  0.00  0.00    +0.000 C 
ATOM     13  F   UNL     1       2.919   2.426  21.844  0.00  0.00    +0.000 F 
ENDBRANCH   2  12
TORSDOF 2
ENDMDL
MODEL 4
REMARK VINA RESULT:      -5.3      0.711      1.623
REMARK  Name = 
REMARK  2 active torsions:
REMARK  status: ('A' for Active; 'I' for Inactive)
REMARK    1  A    between atoms: C_2  and  C_3
REMARK    2  A    between atoms: N_5  and  C_6
REMARK                            x       y       z     vdW  Elec       q    Type
REMARK                         _______ _______ _______ _____ _____    ______ ____
ROOT
ATOM      1  N   UNL     1       6.242   4.233  18.617  0.00  0.00    +0.000 NA
ATOM      2  C   UNL     1       6.022   4.210  17.348  0.00  0.00    +0.000 C 
ATOM      3  N   UNL     1       4.929   3.469  16.796  0.00  0.00    +0.000 N 
ATOM      4  H   UNL     1       5.664   3.705  19.287  0.00  0.00    +0.000 HD
ATOM      5  H   UNL     1       5.036   3.086  15.843  0.00  0.00    +0.000 HD
ENDROOT
BRANCH   3   6
ATOM      6  C   UNL     1       3.673   3.290  17.452  0.00  0.00    +0.000 A 
ATOM      7  C   UNL     1       3.330   2.063  18.051  0.00  0.00    +0.000 A 
ATOM      8  C   UNL     1       2.116   1.912  18.725  0.00  0.00    +0.000 A 
ATOM      9  C   UNL     1       1.225   2.983  18.804  0.00  0.00    +0.000 A 
ATOM     10  C   UNL     1       1.555   4.212  18.221  0.00  0.00    +0.000 A 
ATOM     11  C   UNL     1       2.776   4.367  17.558  0.00  0.00    +0.000 A 
ENDBRANCH   3   6
BRANCH   2  12
ATOM     12  C   UNL     1       6.963   4.940  16.431  0.00  0.00    +0.000 C 
ATOM     13  F   UNL     1       6.268   5.718  15.523  0.00  0.00    +0.000 F 
ENDBRANCH   2  12
TORSDOF 2
ENDMDL
MODEL 5
REMARK VINA RESULT:      -5.3      1.381      1.693
REMARK  Name = 
REMARK  2 active torsions:
REMARK  status: ('A' for Active; 'I' for Inactive)
REMARK    1  A    between atoms: C_2  and  C_3
REMARK    2  A    between atoms: N_5  and  C_6
REMARK                            x       y       z     vdW  Elec       q    Type
REMARK                         _______ _______ _______ _____ _____    ______ ____
ROOT
ATOM      1  N   UNL     1       5.267   5.752  18.175  0.00  0.00    +0.000 NA
ATOM      2  C   UNL     1       6.013   4.717  18.356  0.00  0.00    +0.000 C 
ATOM      3  N   UNL     1       5.530   3.565  19.053  0.00  0.00    +0.000 N 
ATOM      4  H   UNL     1       4.305   5.810  18.540  0.00  0.00    +0.000 HD
ATOM      5  H   UNL     1       6.212   2.994  19.577  0.00  0.00    +0.000 HD
ENDROOT
BRANCH   3   6
ATOM      6  C   UNL     1       4.175   3.114  19.008  0.00  0.00    +0.000 A 
ATOM      7  C   UNL     1       3.339   3.199  20.138  0.00  0.00    +0.000 A 
ATOM      8  C   UNL     1       2.004   2.793  20.071  0.00  0.00    +0.000 A 
ATOM      9  C   UNL     1       1.488   2.289  18.877  0.00  0.00    +0.000 A 
ATOM     10  C   UNL     1       2.305   2.206  17.742  0.00  0.00    +0.000 A 
ATOM     11  C   UNL     1       3.636   2.626  17.806  0.00  0.00    +0.000 A 
ENDBRANCH   3   6
BRANCH   2  12
ATOM     12  C   UNL     1       7.433   4.747  17.863  0.00  0.00    +0.000 C 
ATOM     13  F   UNL     1       7.988   6.003  18.025  0.00  0.00    +0.000 F 
ENDBRANCH   2  12
TORSDOF 2
ENDMDL
MODEL 6
REMARK VINA RESULT:      -5.3      1.687      1.922
REMARK  Name = 
REMARK  2 active torsions:
REMARK  status: ('A' for Active; 'I' for Inactive)
REMARK    1  A    between atoms: C_2  and  C_3
REMARK    2  A    between atoms: N_5  and  C_6
REMARK                            x       y       z     vdW  Elec       q    Type
REMARK                         _______ _______ _______ _____ _____    ______ ____
ROOT
ATOM      1  N   UNL     1       5.999   3.939  18.610  0.00  0.00    +0.000 NA
ATOM      2  C   UNL     1       5.642   5.090  18.156  0.00  0.00    +0.000 C 
ATOM      3  N   UNL     1       4.268   5.391  17.888  0.00  0.00    +0.000 N 
ATOM      4  H   UNL     1       5.325   3.178  18.779  0.00  0.00    +0.000 HD
ATOM      5  H   UNL     1       4.058   6.065  17.136  0.00  0.00    +0.000 HD
ENDROOT
BRANCH   3   6
ATOM      6  C   UNL     1       3.175   4.871  18.647  0.00  0.00    +0.000 A 
ATOM      7  C   UNL     1       2.910   5.325  19.953  0.00  0.00    +0.000 A 
ATOM      8  C   UNL     1       1.815   4.839  20.669  0.00  0.00    +0.000 A 
ATOM      9  C   UNL     1       0.973   3.886  20.094  0.00  0.00    +0.000 A 
ATOM     10  C   UNL     1       1.219   3.429  18.794  0.00  0.00    +0.000 A 
ATOM     11  C   UNL     1       2.307   3.927  18.071  0.00  0.00    +0.000 A 
ENDBRANCH   3   6
BRANCH   2  12
ATOM     12  C   UNL     1       6.699   6.116  17.858  0.00  0.00    +0.000 C 
ATOM     13  F   UNL     1       7.919   5.740  18.391  0.00  0.00    +0.000 F 
ENDBRANCH   2  12
TORSDOF 2
ENDMDL
MODEL 7
REMARK VINA RESULT:      -5.3      1.679      1.875
REMARK  Name = 
REMARK  2 active torsions:
REMARK  status: ('A' for Active; 'I' for Inactive)
REMARK    1  A    between atoms: C_2  and  C_3
REMARK    2  A    between atoms: N_5  and  C_6
REMARK                            x       y       z     vdW  Elec       q    Type
REMARK                         _______ _______ _______ _____ _____    ______ ____
ROOT
ATOM      1  N   UNL     1       5.708   3.799  18.734  0.00  0.00    +0.000 NA
ATOM      2  C   UNL     1       5.199   4.803  18.108  0.00  0.00    +0.000 C 
ATOM      3  N   UNL     1       3.808   4.848  17.779  0.00  0.00    +0.000 N 
ATOM      4  H   UNL     1       5.149   2.976  19.003  0.00  0.00    +0.000 HD
ATOM      5  H   UNL     1       3.527   5.367  16.932  0.00  0.00    +0.000 HD
ENDROOT
BRANCH   3   6
ATOM      6  C   UNL     1       2.777   4.281  18.589  0.00  0.00    +0.000 A 
ATOM      7  C   UNL     1       2.429   4.846  19.831  0.00  0.00    +0.000 A 
ATOM      8  C   UNL     1       1.392   4.308  20.595  0.00  0.00    +0.000 A 
ATOM      9  C   UNL     1       0.693   3.191  20.135  0.00  0.00    +0.000 A 
ATOM     10  C   UNL     1       1.022   2.622  18.898  0.00  0.00    +0.000 A 
ATOM     11  C   UNL     1       2.050   3.171  18.126  0.00  0.00    +0.000 A 
ENDBRANCH   3   6
BRANCH   2  12
ATOM     12  C   UNL     1       6.101   5.927  17.679  0.00  0.00    +0.000 C 
ATOM     13  F   UNL     1       5.382   7.091  17.479  0.00  0.00    +0.000 F 
ENDBRANCH   2  12
TORSDOF 2
ENDMDL
MODEL 8
REMARK VINA RESULT:      -5.3      1.450      1.764
REMARK  Name = 
REMARK  2 active torsions:
REMARK  status: ('A' for Active; 'I' for Inactive)
REMARK    1  A    between atoms: C_2  and  C_3
REMARK    2  A    between atoms: N_5  and  C_6
REMARK                            x       y       z     vdW  Elec       q    Type
REMARK                         _______ _______ _______ _____ _____    ______ ____
ROOT
ATOM      1  N   UNL     1       5.257   5.789  18.362  0.00  0.00    +0.000 NA
ATOM      2  C   UNL     1       5.998   4.739  18.455  0.00  0.00    +0.000 C 
ATOM      3  N   UNL     1       5.518   3.542  19.074  0.00  0.00    +0.000 N 
ATOM      4  H   UNL     1       4.301   5.826  18.746  0.00  0.00    +0.000 HD
ATOM      5  H   UNL     1       6.205   2.931  19.543  0.00  0.00    +0.000 HD
ENDROOT
BRANCH   3   6
ATOM      6  C   UNL     1       4.159   3.104  19.019  0.00  0.00    +0.000 A 
ATOM      7  C   UNL     1       3.573   2.692  17.807  0.00  0.00    +0.000 A 
ATOM      8  C   UNL     1       2.257   2.227  17.772  0.00  0.00    +0.000 A 
ATOM      9  C   UNL     1       1.504   2.176  18.947  0.00  0.00    +0.000 A 
ATOM     10  C   UNL     1       2.076   2.576  20.161  0.00  0.00    +0.000 A 
ATOM     11  C   UNL     1       3.398   3.027  20.198  0.00  0.00    +0.000 A 
ENDBRANCH   3   6
BRANCH   2  12
ATOM     12  C   UNL     1       7.410   4.797  17.942  0.00  0.00    +0.000 C 
ATOM     13  F   UNL     1       8.172   5.681  18.684  0.00  0.00    +0.000 F 
ENDBRANCH   2  12
TORSDOF 2
ENDMDL
MODEL 9
REMARK VINA RESULT:      -5.2      1.522      1.957
REMARK  Name = 
REMARK  2 active torsions:
REMARK  status: ('A' for Active; 'I' for Inactive)
REMARK    1  A    between atoms: C_2  and  C_3
REMARK    2  A    between atoms: N_5  and  C_6
REMARK                            x       y       z     vdW  Elec       q    Type
REMARK                         _______ _______ _______ _____ _____    ______ ____
ROOT
ATOM      1  N   UNL     1       5.770   3.707  18.801  0.00  0.00    +0.000 NA
ATOM      2  C   UNL     1       5.380   4.836  18.319  0.00  0.00    +0.000 C 
ATOM      3  N   UNL     1       4.020   5.051  17.932  0.00  0.00    +0.000 N 
ATOM      4  H   UNL     1       5.133   2.903  18.907  0.00  0.00    +0.000 HD
ATOM      5  H   UNL     1       3.833   5.717  17.165  0.00  0.00    +0.000 HD
ENDROOT
BRANCH   3   6
ATOM      6  C   UNL     1       2.899   4.456  18.589  0.00  0.00    +0.000 A 
ATOM      7  C   UNL     1       2.172   3.409  17.990  0.00  0.00    +0.000 A 
ATOM      8  C   UNL     1       1.104   2.808  18.659  0.00  0.00    +0.000 A 
ATOM      9  C   UNL     1       0.742   3.249  19.933  0.00  0.00    +0.000 A 
ATOM     10  C   UNL     1       1.460   4.284  20.545  0.00  0.00    +0.000 A 
ATOM     11  C   UNL     1       2.539   4.876  19.881  0.00  0.00    +0.000 A 
ENDBRANCH   3   6
BRANCH   2  12
ATOM     12  C   UNL     1       6.391   5.930  18.119  0.00  0.00    +0.000 C 
ATOM     13  F   UNL     1       7.543   5.440  17.530  0.00  0.00    +0.000 F 
ENDBRANCH   2  12
TORSDOF 2
ENDMDL
