MODEL 1
REMARK VINA RESULT:      -8.9      0.000      0.000
REMARK  Name = 
REMARK  6 active torsions:
REMARK  status: ('A' for Active; 'I' for Inactive)
REMARK    1  A    between atoms: C_1  and  N_2
REMARK    2  A    between atoms: N_2  and  C_3
REMARK    3  A    between atoms: N_2  and  C_4
REMARK    4  A    between atoms: C_7  and  N_8
REMARK    5  A    between atoms: C_9  and  C_11
REMARK    6  A    between atoms: C_13  and  C_14
REMARK                            x       y       z     vdW  Elec       q    Type
REMARK                         _______ _______ _______ _____ _____    ______ ____
ROOT
ATOM      1  C   UNL     1       2.214   6.311  18.208  0.00  0.00    +0.000 A 
ATOM      2  C   UNL     1       3.025   6.619  19.246  0.00  0.00    +0.000 A 
ATOM      3  C   UNL     1       4.241   6.043  19.182  0.00  0.00    +0.000 A 
ATOM      4  N   UNL     1       4.192   4.892  19.790  0.00  0.00    +0.000 NA
ATOM      5  C   UNL     1       3.445   4.096  19.084  0.00  0.00    +0.000 A 
ATOM      6  C   UNL     1       4.047   2.829  18.931  0.00  0.00    +0.000 A 
ATOM      7  C   UNL     1       3.520   1.844  18.137  0.00  0.00    +0.000 A 
ATOM      8  C   UNL     1       2.218   2.069  17.764  0.00  0.00    +0.000 A 
ATOM      9  C   UNL     1       1.628   3.412  17.889  0.00  0.00    +0.000 A 
ATOM     10  C   UNL     1       2.329   4.664  18.354  0.00  0.00    +0.000 A 
ENDROOT
BRANCH   3  11
ATOM     11  C   UNL     1       5.153   5.910  17.994  0.00  0.00    +0.000 A 
ATOM     12  C   UNL     1       6.422   5.517  18.383  0.00  0.00    +0.000 A 
ATOM     13  C   UNL     1       7.149   4.724  17.528  0.00  0.00    +0.000 A 
ATOM     14  N   UNL     1       6.733   4.323  16.307  0.00  0.00    +0.000 NA
ATOM     15  C   UNL     1       5.536   4.774  15.894  0.00  0.00    +0.000 A 
ATOM     16  C   UNL     1       4.743   5.614  16.659  0.00  0.00    +0.000 A 
ENDBRANCH   3  11
BRANCH   1  18
ATOM     17  N   UNL     1       1.435   9.136  19.022  0.00  0.00    +0.000 N 
ATOM     18  C   UNL     1       2.153   8.090  18.092  0.00  0.00    +0.000 C 
ATOM     19  O   UNL     1       2.779   8.551  17.134  0.00  0.00    +0.000 OA
ATOM     20  H   UNL     1       0.999   8.798  19.881  0.00  0.00    +0.000 HD
BRANCH  17  24
ATOM     21  C   UNL     1       0.930  13.876  18.762  0.00  0.00    +0.000 A 
ATOM     22  C   UNL     1       2.019  13.158  18.229  0.00  0.00    +0.000 A 
ATOM     23  C   UNL     1       2.206  11.654  18.295  0.00  0.00    +0.000 A 
ATOM     24  C   UNL     1       1.305  10.738  18.887  0.00  0.00    +0.000 A 
ATOM     25  C   UNL     1       0.194  11.475  19.411  0.00  0.00    +0.000 A 
ATOM     26  C   UNL     1       0.028  12.972  19.355  0.00  0.00    +0.000 A 
BRANCH  21  28
ATOM     27  C   UNL     1       1.897  16.227  18.593  0.00  0.00    +0.000 C 
ATOM     28  N   UNL     1       0.767  15.279  18.724  0.00  0.00    +0.000 N 
ATOM     29  C   UNL     1      -0.492  15.961  19.109  0.00  0.00    +0.000 C 
ENDBRANCH  21  28
ENDBRANCH  17  24
ENDBRANCH   1  18
TORSDOF 4
ENDMDL
MODEL 2
REMARK VINA RESULT:      -8.7      2.580      4.245
REMARK  Name = 
REMARK  6 active torsions:
REMARK  status: ('A' for Active; 'I' for Inactive)
REMARK    1  A    between atoms: C_1  and  N_2
REMARK    2  A    between atoms: N_2  and  C_3
REMARK    3  A    between atoms: N_2  and  C_4
REMARK    4  A    between atoms: C_7  and  N_8
REMARK    5  A    between atoms: C_9  and  C_11
REMARK    6  A    between atoms: C_13  and  C_14
REMARK                            x       y       z     vdW  Elec       q    Type
REMARK                         _______ _______ _______ _____ _____    ______ ____
ROOT
ATOM      1  C   UNL     1       3.575   7.548  18.044  0.00  0.00    +0.000 A 
ATOM      2  C   UNL     1       2.659   6.714  17.499  0.00  0.00    +0.000 A 
ATOM      3  C   UNL     1       2.798   5.428  17.875  0.00  0.00    +0.000 A 
ATOM      4  N   UNL     1       3.589   4.827  17.033  0.00  0.00    +0.000 NA
ATOM      5  C   UNL     1       4.784   5.315  17.186  0.00  0.00    +0.000 A 
ATOM      6  C   UNL     1       5.753   4.290  17.241  0.00  0.00    +0.000 A 
ATOM      7  C   UNL     1       7.075   4.528  17.510  0.00  0.00    +0.000 A 
ATOM      8  C   UNL     1       7.434   5.850  17.406  0.00  0.00    +0.000 A 
ATOM      9  C   UNL     1       6.406   6.903  17.400  0.00  0.00    +0.000 A 
ATOM     10  C   UNL     1       4.918   6.710  17.555  0.00  0.00    +0.000 A 
ENDROOT
BRANCH   3  11
ATOM     11  C   UNL     1       3.066   4.876  19.248  0.00  0.00    +0.000 A 
ATOM     12  C   UNL     1       2.006   5.127  20.101  0.00  0.00    +0.000 A 
ATOM     13  C   UNL     1       1.731   4.209  21.086  0.00  0.00    +0.000 A 
ATOM     14  N   UNL     1       2.446   3.085  21.314  0.00  0.00    +0.000 NA
ATOM     15  C   UNL     1       3.526   2.885  20.540  0.00  0.00    +0.000 A 
ATOM     16  C   UNL     1       3.918   3.771  19.549  0.00  0.00    +0.000 A 
ENDBRANCH   3  11
BRANCH   1  18
ATOM     17  N   UNL     1       1.104   9.294  17.731  0.00  0.00    +0.000 N 
ATOM     18  C   UNL     1       2.087   8.388  18.559  0.00  0.00    +0.000 C 
ATOM     19  O   UNL     1       1.801   8.216  19.747  0.00  0.00    +0.000 OA
ATOM     20  H   UNL     1       1.252   9.371  16.724  0.00  0.00    +0.000 HD
BRANCH  17  24
ATOM     21  C   UNL     1      -2.855  11.630  19.021  0.00  0.00    +0.000 A 
ATOM     22  C   UNL     1      -1.623  11.708  19.702  0.00  0.00    +0.000 A 
ATOM     23  C   UNL     1      -0.349  10.980  19.314  0.00  0.00    +0.000 A 
ATOM     24  C   UNL     1      -0.198  10.123  18.200  0.00  0.00    +0.000 A 
ATOM     25  C   UNL     1      -1.450  10.062  17.506  0.00  0.00    +0.000 A 
ATOM     26  C   UNL     1      -2.714  10.777  17.910  0.00  0.00    +0.000 A 
BRANCH  21  28
ATOM     27  C   UNL     1      -4.193  13.061  20.650  0.00  0.00    +0.000 C 
ATOM     28  N   UNL     1      -4.048  12.288  19.396  0.00  0.00    +0.000 N 
ATOM     29  C   UNL     1      -5.354  12.032  18.742  0.00  0.00    +0.000 C 
ENDBRANCH  21  28
ENDBRANCH  17  24
ENDBRANCH   1  18
TORSDOF 4
ENDMDL
MODEL 3
REMARK VINA RESULT:      -8.3      0.726      1.390
REMARK  Name = 
REMARK  6 active torsions:
REMARK  status: ('A' for Active; 'I' for Inactive)
REMARK    1  A    between atoms: C_1  and  N_2
REMARK    2  A    between atoms: N_2  and  C_3
REMARK    3  A    between atoms: N_2  and  C_4
REMARK    4  A    between atoms: C_7  and  N_8
REMARK    5  A    between atoms: C_9  and  C_11
REMARK    6  A    between atoms: C_13  and  C_14
REMARK                            x       y       z     vdW  Elec       q    Type
REMARK                         _______ _______ _______ _____ _____    ______ ____
ROOT
ATOM      1  C   UNL     1       2.116   6.274  18.332  0.00  0.00    +0.000 A 
ATOM      2  C   UNL     1       3.009   6.560  19.309  0.00  0.00    +0.000 A 
ATOM      3  C   UNL     1       4.215   5.985  19.134  0.00  0.00    +0.000 A 
ATOM      4  N   UNL     1       4.213   4.821  19.717  0.00  0.00    +0.000 NA
ATOM      5  C   UNL     1       3.411   4.041  19.056  0.00  0.00    +0.000 A 
ATOM      6  C   UNL     1       3.997   2.778  18.826  0.00  0.00    +0.000 A 
ATOM      7  C   UNL     1       3.406   1.811  18.055  0.00  0.00    +0.000 A 
ATOM      8  C   UNL     1       2.078   2.045  17.792  0.00  0.00    +0.000 A 
ATOM      9  C   UNL     1       1.503   3.384  17.995  0.00  0.00    +0.000 A 
ATOM     10  C   UNL     1       2.240   4.625  18.431  0.00  0.00    +0.000 A 
ENDROOT
BRANCH   3  11
ATOM     11  C   UNL     1       5.028   5.879  17.874  0.00  0.00    +0.000 A 
ATOM     12  C   UNL     1       5.525   7.115  17.498  0.00  0.00    +0.000 A 
ATOM     13  C   UNL     1       6.745   7.161  16.865  0.00  0.00    +0.000 A 
ATOM     14  N   UNL     1       7.488   6.080  16.544  0.00  0.00    +0.000 NA
ATOM     15  C   UNL     1       6.966   4.876  16.833  0.00  0.00    +0.000 A 
ATOM     16  C   UNL     1       5.725   4.716  17.429  0.00  0.00    +0.000 A 
ENDBRANCH   3  11
BRANCH   1  18
ATOM     17  N   UNL     1       1.449   9.082  19.292  0.00  0.00    +0.000 N 
ATOM     18  C   UNL     1       2.049   8.056  18.263  0.00  0.00    +0.000 C 
ATOM     19  O   UNL     1       2.561   8.537  17.248  0.00  0.00    +0.000 OA
ATOM     20  H   UNL     1       1.114   8.726  20.189  0.00  0.00    +0.000 HD
BRANCH  17  24
ATOM     21  C   UNL     1       1.131  13.828  18.882  0.00  0.00    +0.000 A 
ATOM     22  C   UNL     1       0.282  13.036  19.681  0.00  0.00    +0.000 A 
ATOM     23  C   UNL     1       0.360  11.529  19.832  0.00  0.00    +0.000 A 
ATOM     24  C   UNL     1       1.309  10.687  19.207  0.00  0.00    +0.000 A 
ATOM     25  C   UNL     1       2.177  11.502  18.411  0.00  0.00    +0.000 A 
ATOM     26  C   UNL     1       2.080  12.998  18.254  0.00  0.00    +0.000 A 
BRANCH  21  28
ATOM     27  C   UNL     1      -0.241  15.963  18.652  0.00  0.00    +0.000 C 
ATOM     28  N   UNL     1       1.044  15.229  18.720  0.00  0.00    +0.000 N 
ATOM     29  C   UNL     1       2.191  16.071  18.303  0.00  0.00    +0.000 C 
ENDBRANCH  21  28
ENDBRANCH  17  24
ENDBRANCH   1  18
TORSDOF 4
ENDMDL
MODEL 4
REMARK VINA RESULT:      -8.2      2.772      4.264
REMARK  Name = 
REMARK  6 active torsions:
REMARK  status: ('A' for Active; 'I' for Inactive)
REMARK    1  A    between atoms: C_1  and  N_2
REMARK    2  A    between atoms: N_2  and  C_3
REMARK    3  A    between atoms: N_2  and  C_4
REMARK    4  A    between atoms: C_7  and  N_8
REMARK    5  A    between atoms: C_9  and  C_11
REMARK    6  A    between atoms: C_13  and  C_14
REMARK                            x       y       z     vdW  Elec       q    Type
REMARK                         _______ _______ _______ _____ _____    ______ ____
ROOT
ATOM      1  C   UNL     1       3.269   6.959  17.971  0.00  0.00    +0.000 A 
ATOM      2  C   UNL     1       2.066   6.343  17.914  0.00  0.00    +0.000 A 
ATOM      3  C   UNL     1       2.074   5.080  18.381  0.00  0.00    +0.000 A 
ATOM      4  N   UNL     1       2.339   4.270  17.396  0.00  0.00    +0.000 NA
ATOM      5  C   UNL     1       3.572   4.465  17.036  0.00  0.00    +0.000 A 
ATOM      6  C   UNL     1       4.258   3.243  16.869  0.00  0.00    +0.000 A 
ATOM      7  C   UNL     1       5.600   3.170  16.603  0.00  0.00    +0.000 A 
ATOM      8  C   UNL     1       6.151   4.363  16.200  0.00  0.00    +0.000 A 
ATOM      9  C   UNL     1       5.437   5.629  16.430  0.00  0.00    +0.000 A 
ATOM     10  C   UNL     1       4.119   5.804  17.141  0.00  0.00    +0.000 A 
ENDROOT
BRANCH   3  11
ATOM     11  C   UNL     1       2.733   4.544  19.621  0.00  0.00    +0.000 A 
ATOM     12  C   UNL     1       1.910   4.688  20.724  0.00  0.00    +0.000 A 
ATOM     13  C   UNL     1       1.979   3.739  21.716  0.00  0.00    +0.000 A 
ATOM     14  N   UNL     1       2.823   2.684  21.718  0.00  0.00    +0.000 NA
ATOM     15  C   UNL     1       3.682   2.592  20.688  0.00  0.00    +0.000 A 
ATOM     16  C   UNL     1       3.727   3.519  19.659  0.00  0.00    +0.000 A 
ENDBRANCH   3  11
BRANCH   1  18
ATOM     17  N   UNL     1       1.916   8.190  20.402  0.00  0.00    +0.000 N 
ATOM     18  C   UNL     1       2.299   8.153  18.877  0.00  0.00    +0.000 C 
ATOM     19  O   UNL     1       1.879   9.085  18.186  0.00  0.00    +0.000 OA
ATOM     20  H   UNL     1       2.334   7.494  21.021  0.00  0.00    +0.000 HD
BRANCH  17  24
ATOM     21  C   UNL     1      -0.885  11.326  22.662  0.00  0.00    +0.000 A 
ATOM     22  C   UNL     1      -0.617  10.020  23.119  0.00  0.00    +0.000 A 
ATOM     23  C   UNL     1       0.269   9.003  22.423  0.00  0.00    +0.000 A 
ATOM     24  C   UNL     1       0.977   9.217  21.218  0.00  0.00    +0.000 A 
ATOM     25  C   UNL     1       0.712  10.551  20.771  0.00  0.00    +0.000 A 
ATOM     26  C   UNL     1      -0.184  11.547  21.461  0.00  0.00    +0.000 A 
BRANCH  21  28
ATOM     27  C   UNL     1      -3.169  12.024  23.551  0.00  0.00    +0.000 C 
ATOM     28  N   UNL     1      -1.730  12.265  23.295  0.00  0.00    +0.000 N 
ATOM     29  C   UNL     1      -1.357  13.686  23.496  0.00  0.00    +0.000 C 
ENDBRANCH  21  28
ENDBRANCH  17  24
ENDBRANCH   1  18
TORSDOF 4
ENDMDL
MODEL 5
REMARK VINA RESULT:      -8.2      2.660      4.102
REMARK  Name = 
REMARK  6 active torsions:
REMARK  status: ('A' for Active; 'I' for Inactive)
REMARK    1  A    between atoms: C_1  and  N_2
REMARK    2  A    between atoms: N_2  and  C_3
REMARK    3  A    between atoms: N_2  and  C_4
REMARK    4  A    between atoms: C_7  and  N_8
REMARK    5  A    between atoms: C_9  and  C_11
REMARK    6  A    between atoms: C_13  and  C_14
REMARK                            x       y       z     vdW  Elec       q    Type
REMARK                         _______ _______ _______ _____ _____    ______ ____
ROOT
ATOM      1  C   UNL     1       3.312   7.216  18.288  0.00  0.00    +0.000 A 
ATOM      2  C   UNL     1       2.222   6.462  18.016  0.00  0.00    +0.000 A 
ATOM      3  C   UNL     1       2.370   5.156  18.311  0.00  0.00    +0.000 A 
ATOM      4  N   UNL     1       2.842   4.541  17.264  0.00  0.00    +0.000 NA
ATOM      5  C   UNL     1       4.062   4.947  17.075  0.00  0.00    +0.000 A 
ATOM      6  C   UNL     1       4.930   3.862  16.828  0.00  0.00    +0.000 A 
ATOM      7  C   UNL     1       6.288   4.006  16.707  0.00  0.00    +0.000 A 
ATOM      8  C   UNL     1       6.694   5.307  16.529  0.00  0.00    +0.000 A 
ATOM      9  C   UNL     1       5.785   6.421  16.840  0.00  0.00    +0.000 A 
ATOM     10  C   UNL     1       4.395   6.316  17.415  0.00  0.00    +0.000 A 
ENDROOT
BRANCH   3  11
ATOM     11  C   UNL     1       2.982   4.537  19.537  0.00  0.00    +0.000 A 
ATOM     12  C   UNL     1       2.140   4.659  20.628  0.00  0.00    +0.000 A 
ATOM     13  C   UNL     1       2.152   3.661  21.574  0.00  0.00    +0.000 A 
ATOM     14  N   UNL     1       2.958   2.577  21.541  0.00  0.00    +0.000 NA
ATOM     15  C   UNL     1       3.835   2.502  20.525  0.00  0.00    +0.000 A 
ATOM     16  C   UNL     1       3.937   3.475  19.544  0.00  0.00    +0.000 A 
ENDBRANCH   3  11
BRANCH   1  18
ATOM     17  N   UNL     1       1.158   9.307  18.782  0.00  0.00    +0.000 N 
ATOM     18  C   UNL     1       2.098   8.127  19.227  0.00  0.00    +0.000 C 
ATOM     19  O   UNL     1       1.992   7.757  20.400  0.00  0.00    +0.000 OA
ATOM     20  H   UNL     1       1.144   9.566  17.795  0.00  0.00    +0.000 HD
BRANCH  17  24
ATOM     21  C   UNL     1      -1.811  11.919  21.456  0.00  0.00    +0.000 A 
ATOM     22  C   UNL     1      -1.851  11.854  20.049  0.00  0.00    +0.000 A 
ATOM     23  C   UNL     1      -0.923  11.032  19.174  0.00  0.00    +0.000 A 
ATOM     24  C   UNL     1       0.115  10.191  19.638  0.00  0.00    +0.000 A 
ATOM     25  C   UNL     1       0.137  10.251  21.068  0.00  0.00    +0.000 A 
ATOM     26  C   UNL     1      -0.779  11.085  21.927  0.00  0.00    +0.000 A 
BRANCH  21  28
ATOM     27  C   UNL     1      -3.165  12.256  23.588  0.00  0.00    +0.000 C 
ATOM     28  N   UNL     1      -2.658  12.704  22.271  0.00  0.00    +0.000 N 
ATOM     29  C   UNL     1      -3.369  13.908  21.778  0.00  0.00    +0.000 C 
ENDBRANCH  21  28
ENDBRANCH  17  24
ENDBRANCH   1  18
TORSDOF 4
ENDMDL
MODEL 6
REMARK VINA RESULT:      -8.1      2.685      4.105
REMARK  Name = 
REMARK  6 active torsions:
REMARK  status: ('A' for Active; 'I' for Inactive)
REMARK    1  A    between atoms: C_1  and  N_2
REMARK    2  A    between atoms: N_2  and  C_3
REMARK    3  A    between atoms: N_2  and  C_4
REMARK    4  A    between atoms: C_7  and  N_8
REMARK    5  A    between atoms: C_9  and  C_11
REMARK    6  A    between atoms: C_13  and  C_14
REMARK                            x       y       z     vdW  Elec       q    Type
REMARK                         _______ _______ _______ _____ _____    ______ ____
ROOT
ATOM      1  C   UNL     1       3.236   7.207  18.316  0.00  0.00    +0.000 A 
ATOM      2  C   UNL     1       2.126   6.466  18.096  0.00  0.00    +0.000 A 
ATOM      3  C   UNL     1       2.277   5.156  18.372  0.00  0.00    +0.000 A 
ATOM      4  N   UNL     1       2.686   4.545  17.298  0.00  0.00    +0.000 NA
ATOM      5  C   UNL     1       3.898   4.941  17.047  0.00  0.00    +0.000 A 
ATOM      6  C   UNL     1       4.742   3.850  16.746  0.00  0.00    +0.000 A 
ATOM      7  C   UNL     1       6.093   3.983  16.554  0.00  0.00    +0.000 A 
ATOM      8  C   UNL     1       6.502   5.280  16.365  0.00  0.00    +0.000 A 
ATOM      9  C   UNL     1       5.621   6.401  16.733  0.00  0.00    +0.000 A 
ATOM     10  C   UNL     1       4.262   6.304  17.380  0.00  0.00    +0.000 A 
ENDROOT
BRANCH   3  11
ATOM     11  C   UNL     1       2.947   4.521  19.559  0.00  0.00    +0.000 A 
ATOM     12  C   UNL     1       2.171   4.654  20.698  0.00  0.00    +0.000 A 
ATOM     13  C   UNL     1       2.219   3.652  21.638  0.00  0.00    +0.000 A 
ATOM     14  N   UNL     1       3.002   2.554  21.556  0.00  0.00    +0.000 NA
ATOM     15  C   UNL     1       3.818   2.467  20.492  0.00  0.00    +0.000 A 
ATOM     16  C   UNL     1       3.880   3.442  19.509  0.00  0.00    +0.000 A 
ENDBRANCH   3  11
BRANCH   1  18
ATOM     17  N   UNL     1       1.173   9.350  18.954  0.00  0.00    +0.000 N 
ATOM     18  C   UNL     1       2.082   8.122  19.325  0.00  0.00    +0.000 C 
ATOM     19  O   UNL     1       1.996   7.709  20.485  0.00  0.00    +0.000 OA
ATOM     20  H   UNL     1       1.141   9.649  17.978  0.00  0.00    +0.000 HD
BRANCH  17  24
ATOM     21  C   UNL     1      -1.868  11.972  21.536  0.00  0.00    +0.000 A 
ATOM     22  C   UNL     1      -0.819  11.201  22.077  0.00  0.00    +0.000 A 
ATOM     23  C   UNL     1       0.163  10.360  21.282  0.00  0.00    +0.000 A 
ATOM     24  C   UNL     1       0.187  10.235  19.873  0.00  0.00    +0.000 A 
ATOM     25  C   UNL     1      -0.872  11.034  19.333  0.00  0.00    +0.000 A 
ATOM     26  C   UNL     1      -1.852  11.852  20.133  0.00  0.00    +0.000 A 
BRANCH  21  28
ATOM     27  C   UNL     1      -4.161  13.054  21.792  0.00  0.00    +0.000 C 
ATOM     28  N   UNL     1      -2.798  12.735  22.277  0.00  0.00    +0.000 N 
ATOM     29  C   UNL     1      -2.423  13.543  23.462  0.00  0.00    +0.000 C 
ENDBRANCH  21  28
ENDBRANCH  17  24
ENDBRANCH   1  18
TORSDOF 4
ENDMDL
MODEL 7
REMARK VINA RESULT:      -8.0      1.351      1.599
REMARK  Name = 
REMARK  6 active torsions:
REMARK  status: ('A' for Active; 'I' for Inactive)
REMARK    1  A    between atoms: C_1  and  N_2
REMARK    2  A    between atoms: N_2  and  C_3
REMARK    3  A    between atoms: N_2  and  C_4
REMARK    4  A    between atoms: C_7  and  N_8
REMARK    5  A    between atoms: C_9  and  C_11
REMARK    6  A    between atoms: C_13  and  C_14
REMARK                            x       y       z     vdW  Elec       q    Type
REMARK                         _______ _______ _______ _____ _____    ______ ____
ROOT
ATOM      1  C   UNL     1       1.866   5.914  19.555  0.00  0.00    +0.000 A 
ATOM      2  C   UNL     1       3.125   6.229  19.939  0.00  0.00    +0.000 A 
ATOM      3  C   UNL     1       4.084   5.721  19.141  0.00  0.00    +0.000 A 
ATOM      4  N   UNL     1       4.427   4.549  19.591  0.00  0.00    +0.000 NA
ATOM      5  C   UNL     1       3.427   3.740  19.409  0.00  0.00    +0.000 A 
ATOM      6  C   UNL     1       3.853   2.513  18.855  0.00  0.00    +0.000 A 
ATOM      7  C   UNL     1       2.983   1.530  18.461  0.00  0.00    +0.000 A 
ATOM      8  C   UNL     1       1.705   1.698  18.935  0.00  0.00    +0.000 A 
ATOM      9  C   UNL     1       1.270   3.001  19.462  0.00  0.00    +0.000 A 
ATOM     10  C   UNL     1       2.082   4.272  19.505  0.00  0.00    +0.000 A 
ENDROOT
BRANCH   3  11
ATOM     11  C   UNL     1       4.129   5.681  17.639  0.00  0.00    +0.000 A 
ATOM     12  C   UNL     1       4.309   6.948  17.112  0.00  0.00    +0.000 A 
ATOM     13  C   UNL     1       5.020   7.071  15.942  0.00  0.00    +0.000 A 
ATOM     14  N   UNL     1       5.529   6.037  15.236  0.00  0.00    +0.000 NA
ATOM     15  C   UNL     1       5.281   4.801  15.703  0.00  0.00    +0.000 A 
ATOM     16  C   UNL     1       4.537   4.564  16.848  0.00  0.00    +0.000 A 
ENDBRANCH   3  11
BRANCH   1  18
ATOM     17  N   UNL     1       1.612   8.727  18.427  0.00  0.00    +0.000 N 
ATOM     18  C   UNL     1       1.708   7.691  19.606  0.00  0.00    +0.000 C 
ATOM     19  O   UNL     1       1.665   8.157  20.748  0.00  0.00    +0.000 OA
ATOM     20  H   UNL     1       1.538   8.368  17.474  0.00  0.00    +0.000 HD
BRANCH  17  24
ATOM     21  C   UNL     1       1.302  13.486  18.650  0.00  0.00    +0.000 A 
ATOM     22  C   UNL     1       2.375  12.781  18.067  0.00  0.00    +0.000 A 
ATOM     23  C   UNL     1       2.499  11.272  17.981  0.00  0.00    +0.000 A 
ATOM     24  C   UNL     1       1.549  10.339  18.456  0.00  0.00    +0.000 A 
ATOM     25  C   UNL     1       0.455  11.064  19.031  0.00  0.00    +0.000 A 
ATOM     26  C   UNL     1       0.350  12.564  19.127  0.00  0.00    +0.000 A 
BRANCH  21  28
ATOM     27  C   UNL     1      -0.096  15.606  18.859  0.00  0.00    +0.000 C 
ATOM     28  N   UNL     1       1.196  14.891  18.754  0.00  0.00    +0.000 N 
ATOM     29  C   UNL     1       2.323  15.812  18.469  0.00  0.00    +0.000 C 
ENDBRANCH  21  28
ENDBRANCH  17  24
ENDBRANCH   1  18
TORSDOF 4
ENDMDL
MODEL 8
REMARK VINA RESULT:      -7.9      2.132      9.727
REMARK  Name = 
REMARK  6 active torsions:
REMARK  status: ('A' for Active; 'I' for Inactive)
REMARK    1  A    between atoms: C_1  and  N_2
REMARK    2  A    between atoms: N_2  and  C_3
REMARK    3  A    between atoms: N_2  and  C_4
REMARK    4  A    between atoms: C_7  and  N_8
REMARK    5  A    between atoms: C_9  and  C_11
REMARK    6  A    between atoms: C_13  and  C_14
REMARK                            x       y       z     vdW  Elec       q    Type
REMARK                         _______ _______ _______ _____ _____    ______ ____
ROOT
ATOM      1  C   UNL     1       1.307  11.634  18.907  0.00  0.00    +0.000 A 
ATOM      2  C   UNL     1       0.647  11.103  19.961  0.00  0.00    +0.000 A 
ATOM      3  C   UNL     1      -0.659  11.432  20.012  0.00  0.00    +0.000 A 
ATOM      4  N   UNL     1      -0.789  12.527  20.705  0.00  0.00    +0.000 NA
ATOM      5  C   UNL     1      -0.261  13.499  20.024  0.00  0.00    +0.000 A 
ATOM      6  C   UNL     1      -1.105  14.630  20.006  0.00  0.00    +0.000 A 
ATOM      7  C   UNL     1      -0.836  15.751  19.264  0.00  0.00    +0.000 A 
ATOM      8  C   UNL     1       0.456  15.812  18.800  0.00  0.00    +0.000 A 
ATOM      9  C   UNL     1       1.300  14.606  18.785  0.00  0.00    +0.000 A 
ATOM     10  C   UNL     1       0.888  13.213  19.189  0.00  0.00    +0.000 A 
ENDROOT
BRANCH   3  11
ATOM     11  C   UNL     1      -1.662  11.462  18.893  0.00  0.00    +0.000 A 
ATOM     12  C   UNL     1      -1.452  10.417  18.009  0.00  0.00    +0.000 A 
ATOM     13  C   UNL     1      -2.543   9.869  17.379  0.00  0.00    +0.000 A 
ATOM     14  N   UNL     1      -3.816  10.299  17.526  0.00  0.00    +0.000 NA
ATOM     15  C   UNL     1      -4.008  11.368  18.318  0.00  0.00    +0.000 A 
ATOM     16  C   UNL     1      -2.973  12.022  18.964  0.00  0.00    +0.000 A 
ENDBRANCH   3  11
BRANCH   1  18
ATOM     17  N   UNL     1       1.809   8.737  19.686  0.00  0.00    +0.000 N 
ATOM     18  C   UNL     1       1.701   9.913  18.647  0.00  0.00    +0.000 C 
ATOM     19  O   UNL     1       1.913   9.621  17.467  0.00  0.00    +0.000 OA
ATOM     20  H   UNL     1       1.537   8.921  20.653  0.00  0.00    +0.000 HD
BRANCH  17  24
ATOM     21  C   UNL     1       2.945   4.128  19.181  0.00  0.00    +0.000 A 
ATOM     22  C   UNL     1       3.349   5.152  18.300  0.00  0.00    +0.000 A 
ATOM     23  C   UNL     1       3.005   6.623  18.436  0.00  0.00    +0.000 A 
ATOM     24  C   UNL     1       2.240   7.197  19.478  0.00  0.00    +0.000 A 
ATOM     25  C   UNL     1       1.849   6.152  20.376  0.00  0.00    +0.000 A 
ATOM     26  C   UNL     1       2.182   4.690  20.222  0.00  0.00    +0.000 A 
BRANCH  21  28
ATOM     27  C   UNL     1       4.304   2.068  19.815  0.00  0.00    +0.000 C 
ATOM     28  N   UNL     1       3.244   2.754  19.042  0.00  0.00    +0.000 N 
ATOM     29  C   UNL     1       2.751   1.927  17.914  0.00  0.00    +0.000 C 
ENDBRANCH  21  28
ENDBRANCH  17  24
ENDBRANCH   1  18
TORSDOF 4
ENDMDL
MODEL 9
REMARK VINA RESULT:      -7.9      2.143      9.783
REMARK  Name = 
REMARK  6 active torsions:
REMARK  status: ('A' for Active; 'I' for Inactive)
REMARK    1  A    between atoms: C_1  and  N_2
REMARK    2  A    between atoms: N_2  and  C_3
REMARK    3  A    between atoms: N_2  and  C_4
REMARK    4  A    between atoms: C_7  and  N_8
REMARK    5  A    between atoms: C_9  and  C_11
REMARK    6  A    between atoms: C_13  and  C_14
REMARK                            x       y       z     vdW  Elec       q    Type
REMARK                         _______ _______ _______ _____ _____    ______ ____
ROOT
ATOM      1  C   UNL     1       1.298  11.540  18.971  0.00  0.00    +0.000 A 
ATOM      2  C   UNL     1       0.614  11.050  20.030  0.00  0.00    +0.000 A 
ATOM      3  C   UNL     1      -0.681  11.420  20.065  0.00  0.00    +0.000 A 
ATOM      4  N   UNL     1      -0.781  12.532  20.737  0.00  0.00    +0.000 NA
ATOM      5  C   UNL     1      -0.218  13.474  20.042  0.00  0.00    +0.000 A 
ATOM      6  C   UNL     1      -1.025  14.630  19.996  0.00  0.00    +0.000 A 
ATOM      7  C   UNL     1      -0.715  15.728  19.236  0.00  0.00    +0.000 A 
ATOM      8  C   UNL     1       0.581  15.739  18.781  0.00  0.00    +0.000 A 
ATOM      9  C   UNL     1       1.386  14.508  18.794  0.00  0.00    +0.000 A 
ATOM     10  C   UNL     1       0.928  13.136  19.221  0.00  0.00    +0.000 A 
ENDROOT
BRANCH   3  11
ATOM     11  C   UNL     1      -1.675  11.461  18.938  0.00  0.00    +0.000 A 
ATOM     12  C   UNL     1      -1.518  10.372  18.098  0.00  0.00    +0.000 A 
ATOM     13  C   UNL     1      -2.635   9.860  17.482  0.00  0.00    +0.000 A 
ATOM     14  N   UNL     1      -3.882  10.365  17.602  0.00  0.00    +0.000 NA
ATOM     15  C   UNL     1      -4.020  11.473  18.350  0.00  0.00    +0.000 A 
ATOM     16  C   UNL     1      -2.953  12.095  18.978  0.00  0.00    +0.000 A 
ENDBRANCH   3  11
BRANCH   1  18
ATOM     17  N   UNL     1       1.817   8.664  19.817  0.00  0.00    +0.000 N 
ATOM     18  C   UNL     1       1.639   9.803  18.746  0.00  0.00    +0.000 C 
ATOM     19  O   UNL     1       1.743   9.462  17.565  0.00  0.00    +0.000 OA
ATOM     20  H   UNL     1       1.633   8.890  20.795  0.00  0.00    +0.000 HD
BRANCH  17  24
ATOM     21  C   UNL     1       3.106   4.113  19.175  0.00  0.00    +0.000 A 
ATOM     22  C   UNL     1       2.250   4.564  20.200  0.00  0.00    +0.000 A 
ATOM     23  C   UNL     1       1.823   6.002  20.427  0.00  0.00    +0.000 A 
ATOM     24  C   UNL     1       2.203   7.109  19.634  0.00  0.00    +0.000 A 
ATOM     25  C   UNL     1       3.058   6.638  18.585  0.00  0.00    +0.000 A 
ATOM     26  C   UNL     1       3.490   5.210  18.379  0.00  0.00    +0.000 A 
BRANCH  21  28
ATOM     27  C   UNL     1       2.923   1.875  17.970  0.00  0.00    +0.000 C 
ATOM     28  N   UNL     1       3.525   2.778  18.977  0.00  0.00    +0.000 N 
ATOM     29  C   UNL     1       4.387   2.048  19.938  0.00  0.00    +0.000 C 
ENDBRANCH  21  28
ENDBRANCH  17  24
ENDBRANCH   1  18
TORSDOF 4
ENDMDL
