MODEL 1
REMARK VINA RESULT:      -7.2      0.000      0.000
REMARK  Name = 
REMARK  8 active torsions:
REMARK  status: ('A' for Active; 'I' for Inactive)
REMARK    1  A    between atoms: C_1  and  C_2
REMARK    2  A    between atoms: C_4  and  C_5
REMARK    3  A    between atoms: C_5  and  C_6
REMARK    4  A    between atoms: C_6  and  N_7
REMARK    5  A    between atoms: N_7  and  C_8
REMARK    6  A    between atoms: C_8  and  C_9
REMARK    7  A    between atoms: C_9  and  N_10
REMARK    8  A    between atoms: C_17  and  C_18
REMARK                            x       y       z     vdW  Elec       q    Type
REMARK                         _______ _______ _______ _____ _____    ______ ____
ROOT
ATOM      1  C   UNL     1       2.882   8.128  17.549  0.00  0.00    +0.000 C 
ATOM      2  C   UNL     1       2.306   7.732  18.872  0.00  0.00    +0.000 A 
ATOM      3  N   UNL     1       2.466   6.454  19.257  0.00  0.00    +0.000 NA
ATOM      4  C   UNL     1       1.930   6.096  20.439  0.00  0.00    +0.000 A 
ATOM      5  C   UNL     1       1.248   6.992  21.239  0.00  0.00    +0.000 A 
ATOM      6  C   UNL     1       1.114   8.279  20.755  0.00  0.00    +0.000 A 
ATOM      7  N   UNL     1       1.654   8.671  19.581  0.00  0.00    +0.000 NA
ENDROOT
BRANCH   6   8
ATOM      8  C   UNL     1       0.374   9.332  21.469  0.00  0.00    +0.000 A 
ATOM      9  C   UNL     1      -0.340   9.238  22.652  0.00  0.00    +0.000 A 
ATOM     10  C   UNL     1      -0.902  10.483  23.063  0.00  0.00    +0.000 A 
ATOM     11  C   UNL     1      -0.592  11.499  22.191  0.00  0.00    +0.000 A 
ATOM     12  S   UNL     1       0.362  10.952  20.886  0.00  0.00    +0.000 S 
ENDBRANCH   6   8
BRANCH   4  13
ATOM     13  C   UNL     1       2.185   4.685  20.903  0.00  0.00    +0.000 C 
BRANCH  13  14
ATOM     14  C   UNL     1       3.050   3.970  19.866  0.00  0.00    +0.000 C 
BRANCH  14  15
ATOM     15  N   UNL     1       2.272   3.520  18.706  0.00  0.00    +0.000 NA
ATOM     16  H   UNL     1       1.502   4.173  18.549  0.00  0.00    +0.000 HD
BRANCH  15  17
ATOM     17  C   UNL     1       3.096   3.466  17.481  0.00  0.00    +0.000 C 
BRANCH  17  18
ATOM     18  C   UNL     1       4.569   3.848  17.752  0.00  0.00    +0.000 C 
BRANCH  18  19
ATOM     19  N   UNL     1       5.063   5.109  17.171  0.00  0.00    +0.000 NA
ATOM     20  C   UNL     1       5.417   5.008  15.741  0.00  0.00    +0.000 C 
ATOM     21  C   UNL     1       6.651   4.133  15.470  0.00  0.00    +0.000 C 
ATOM     22  O   UNL     1       7.792   4.594  16.209  0.00  0.00    +0.000 OA
ATOM     23  C   UNL     1       7.514   4.656  17.612  0.00  0.00    +0.000 C 
ATOM     24  C   UNL     1       6.285   5.537  17.904  0.00  0.00    +0.000 C 
ENDBRANCH  18  19
ENDBRANCH  17  18
ENDBRANCH  15  17
ENDBRANCH  14  15
ENDBRANCH  13  14
ENDBRANCH   4  13
TORSDOF 7
ENDMDL
MODEL 2
REMARK VINA RESULT:      -7.2      5.306      7.825
REMARK  Name = 
REMARK  8 active torsions:
REMARK  status: ('A' for Active; 'I' for Inactive)
REMARK    1  A    between atoms: C_1  and  C_2
REMARK    2  A    between atoms: C_4  and  C_5
REMARK    3  A    between atoms: C_5  and  C_6
REMARK    4  A    between atoms: C_6  and  N_7
REMARK    5  A    between atoms: N_7  and  C_8
REMARK    6  A    between atoms: C_8  and  C_9
REMARK    7  A    between atoms: C_9  and  N_10
REMARK    8  A    between atoms: C_17  and  C_18
REMARK                            x       y       z     vdW  Elec       q    Type
REMARK                         _______ _______ _______ _____ _____    ______ ____
ROOT
ATOM      1  C   UNL     1       6.292   4.018  13.943  0.00  0.00    +0.000 C 
ATOM      2  C   UNL     1       5.914   4.623  15.258  0.00  0.00    +0.000 A 
ATOM      3  N   UNL     1       6.661   5.650  15.702  0.00  0.00    +0.000 NA
ATOM      4  C   UNL     1       6.330   6.179  16.895  0.00  0.00    +0.000 A 
ATOM      5  C   UNL     1       5.269   5.706  17.642  0.00  0.00    +0.000 A 
ATOM      6  C   UNL     1       4.571   4.636  17.118  0.00  0.00    +0.000 A 
ATOM      7  N   UNL     1       4.868   4.093  15.917  0.00  0.00    +0.000 NA
ENDROOT
BRANCH   6   8
ATOM      8  C   UNL     1       3.447   3.991  17.818  0.00  0.00    +0.000 A 
ATOM      9  C   UNL     1       2.088   4.169  17.620  0.00  0.00    +0.000 A 
ATOM     10  C   UNL     1       1.290   3.342  18.466  0.00  0.00    +0.000 A 
ATOM     11  C   UNL     1       2.060   2.546  19.280  0.00  0.00    +0.000 A 
ATOM     12  S   UNL     1       3.728   2.799  19.029  0.00  0.00    +0.000 S 
ENDBRANCH   6   8
BRANCH   4  13
ATOM     13  C   UNL     1       7.118   7.382  17.348  0.00  0.00    +0.000 C 
BRANCH  13  14
ATOM     14  C   UNL     1       7.990   6.984  18.538  0.00  0.00    +0.000 C 
BRANCH  14  15
ATOM     15  N   UNL     1       8.836   8.089  19.003  0.00  0.00    +0.000 NA
ATOM     16  H   UNL     1       9.816   7.848  18.841  0.00  0.00    +0.000 HD
BRANCH  15  17
ATOM     17  C   UNL     1       8.538   9.346  18.285  0.00  0.00    +0.000 C 
BRANCH  17  18
ATOM     18  C   UNL     1       9.198  10.572  18.956  0.00  0.00    +0.000 C 
BRANCH  18  19
ATOM     19  N   UNL     1      10.083  11.408  18.126  0.00  0.00    +0.000 NA
ATOM     20  C   UNL     1      11.493  11.400  18.563  0.00  0.00    +0.000 C 
ATOM     21  C   UNL     1      11.726  12.094  19.915  0.00  0.00    +0.000 C 
ATOM     22  O   UNL     1      11.242  13.446  19.899  0.00  0.00    +0.000 OA
ATOM     23  C   UNL     1       9.859  13.500  19.534  0.00  0.00    +0.000 C 
ATOM     24  C   UNL     1       9.608  12.818  18.176  0.00  0.00    +0.000 C 
ENDBRANCH  18  19
ENDBRANCH  17  18
ENDBRANCH  15  17
ENDBRANCH  14  15
ENDBRANCH  13  14
ENDBRANCH   4  13
TORSDOF 7
ENDMDL
MODEL 3
REMARK VINA RESULT:      -6.8      4.826      6.749
REMARK  Name = 
REMARK  8 active torsions:
REMARK  status: ('A' for Active; 'I' for Inactive)
REMARK    1  A    between atoms: C_1  and  C_2
REMARK    2  A    between atoms: C_4  and  C_5
REMARK    3  A    between atoms: C_5  and  C_6
REMARK    4  A    between atoms: C_6  and  N_7
REMARK    5  A    between atoms: N_7  and  C_8
REMARK    6  A    between atoms: C_8  and  C_9
REMARK    7  A    between atoms: C_9  and  N_10
REMARK    8  A    between atoms: C_17  and  C_18
REMARK                            x       y       z     vdW  Elec       q    Type
REMARK                         _______ _______ _______ _____ _____    ______ ____
ROOT
ATOM      1  C   UNL     1       2.227   8.676  17.740  0.00  0.00    +0.000 C 
ATOM      2  C   UNL     1       3.039   7.434  17.929  0.00  0.00    +0.000 A 
ATOM      3  N   UNL     1       4.159   7.313  17.195  0.00  0.00    +0.000 NA
ATOM      4  C   UNL     1       4.877   6.186  17.353  0.00  0.00    +0.000 A 
ATOM      5  C   UNL     1       4.500   5.188  18.231  0.00  0.00    +0.000 A 
ATOM      6  C   UNL     1       3.325   5.389  18.928  0.00  0.00    +0.000 A 
ATOM      7  N   UNL     1       2.590   6.516  18.803  0.00  0.00    +0.000 NA
ENDROOT
BRANCH   6   8
ATOM      8  C   UNL     1       2.767   4.398  19.863  0.00  0.00    +0.000 A 
ATOM      9  C   UNL     1       1.635   4.496  20.655  0.00  0.00    +0.000 A 
ATOM     10  C   UNL     1       1.383   3.314  21.413  0.00  0.00    +0.000 A 
ATOM     11  C   UNL     1       2.322   2.340  21.174  0.00  0.00    +0.000 A 
ATOM     12  S   UNL     1       3.499   2.849  20.048  0.00  0.00    +0.000 S 
ENDBRANCH   6   8
BRANCH   4  13
ATOM     13  C   UNL     1       6.175   6.092  16.591  0.00  0.00    +0.000 C 
BRANCH  13  14
ATOM     14  C   UNL     1       7.292   6.698  17.440  0.00  0.00    +0.000 C 
BRANCH  14  15
ATOM     15  N   UNL     1       7.438   8.143  17.222  0.00  0.00    +0.000 NA
ATOM     16  H   UNL     1       6.522   8.587  17.321  0.00  0.00    +0.000 HD
BRANCH  15  17
ATOM     17  C   UNL     1       8.362   8.753  18.199  0.00  0.00    +0.000 C 
BRANCH  17  18
ATOM     18  C   UNL     1       8.357  10.297  18.122  0.00  0.00    +0.000 C 
BRANCH  18  19
ATOM     19  N   UNL     1       9.661  10.983  18.144  0.00  0.00    +0.000 NA
ATOM     20  C   UNL     1      10.280  11.042  19.484  0.00  0.00    +0.000 C 
ATOM     21  C   UNL     1       9.529  11.946  20.474  0.00  0.00    +0.000 C 
ATOM     22  O   UNL     1       9.385  13.279  19.960  0.00  0.00    +0.000 OA
ATOM     23  C   UNL     1       8.736  13.277  18.684  0.00  0.00    +0.000 C 
ATOM     24  C   UNL     1       9.481  12.384  17.675  0.00  0.00    +0.000 C 
ENDBRANCH  18  19
ENDBRANCH  17  18
ENDBRANCH  15  17
ENDBRANCH  14  15
ENDBRANCH  13  14
ENDBRANCH   4  13
TORSDOF 7
ENDMDL
MODEL 4
REMARK VINA RESULT:      -6.8      0.923      1.073
REMARK  Name = 
REMARK  8 active torsions:
REMARK  status: ('A' for Active; 'I' for Inactive)
REMARK    1  A    between atoms: C_1  and  C_2
REMARK    2  A    between atoms: C_4  and  C_5
REMARK    3  A    between atoms: C_5  and  C_6
REMARK    4  A    between atoms: C_6  and  N_7
REMARK    5  A    between atoms: N_7  and  C_8
REMARK    6  A    between atoms: C_8  and  C_9
REMARK    7  A    between atoms: C_9  and  N_10
REMARK    8  A    between atoms: C_17  and  C_18
REMARK                            x       y       z     vdW  Elec       q    Type
REMARK                         _______ _______ _______ _____ _____    ______ ____
ROOT
ATOM      1  C   UNL     1       2.723   8.411  17.428  0.00  0.00    +0.000 C 
ATOM      2  C   UNL     1       2.169   8.022  18.762  0.00  0.00    +0.000 A 
ATOM      3  N   UNL     1       2.363   6.753  19.165  0.00  0.00    +0.000 NA
ATOM      4  C   UNL     1       1.847   6.401  20.357  0.00  0.00    +0.000 A 
ATOM      5  C   UNL     1       1.152   7.292  21.151  0.00  0.00    +0.000 A 
ATOM      6  C   UNL     1       0.984   8.568  20.649  0.00  0.00    +0.000 A 
ATOM      7  N   UNL     1       1.503   8.956  19.464  0.00  0.00    +0.000 NA
ENDROOT
BRANCH   6   8
ATOM      8  C   UNL     1       0.226   9.614  21.355  0.00  0.00    +0.000 A 
ATOM      9  C   UNL     1      -0.308  10.788  20.848  0.00  0.00    +0.000 A 
ATOM     10  C   UNL     1      -1.014  11.547  21.829  0.00  0.00    +0.000 A 
ATOM     11  C   UNL     1      -1.010  10.929  23.057  0.00  0.00    +0.000 A 
ATOM     12  S   UNL     1      -0.159   9.451  23.026  0.00  0.00    +0.000 S 
ENDBRANCH   6   8
BRANCH   4  13
ATOM     13  C   UNL     1       2.139   5.003  20.840  0.00  0.00    +0.000 C 
BRANCH  13  14
ATOM     14  C   UNL     1       3.235   4.396  19.964  0.00  0.00    +0.000 C 
BRANCH  14  15
ATOM     15  N   UNL     1       2.694   3.751  18.762  0.00  0.00    +0.000 NA
ATOM     16  H   UNL     1       2.057   4.400  18.295  0.00  0.00    +0.000 HD
BRANCH  15  17
ATOM     17  C   UNL     1       3.763   3.381  17.812  0.00  0.00    +0.000 C 
BRANCH  17  18
ATOM     18  C   UNL     1       4.911   4.416  17.792  0.00  0.00    +0.000 C 
BRANCH  18  19
ATOM     19  N   UNL     1       4.877   5.450  16.743  0.00  0.00    +0.000 NA
ATOM     20  C   UNL     1       5.361   4.982  15.429  0.00  0.00    +0.000 C 
ATOM     21  C   UNL     1       6.867   4.675  15.398  0.00  0.00    +0.000 C 
ATOM     22  O   UNL     1       7.641   5.811  15.811  0.00  0.00    +0.000 OA
ATOM     23  C   UNL     1       7.244   6.268  17.108  0.00  0.00    +0.000 C 
ATOM     24  C   UNL     1       5.739   6.591  17.155  0.00  0.00    +0.000 C 
ENDBRANCH  18  19
ENDBRANCH  17  18
ENDBRANCH  15  17
ENDBRANCH  14  15
ENDBRANCH  13  14
ENDBRANCH   4  13
TORSDOF 7
ENDMDL
MODEL 5
REMARK VINA RESULT:      -6.7      4.034      7.599
REMARK  Name = 
REMARK  8 active torsions:
REMARK  status: ('A' for Active; 'I' for Inactive)
REMARK    1  A    between atoms: C_1  and  C_2
REMARK    2  A    between atoms: C_4  and  C_5
REMARK    3  A    between atoms: C_5  and  C_6
REMARK    4  A    between atoms: C_6  and  N_7
REMARK    5  A    between atoms: N_7  and  C_8
REMARK    6  A    between atoms: C_8  and  C_9
REMARK    7  A    between atoms: C_9  and  N_10
REMARK    8  A    between atoms: C_17  and  C_18
REMARK                            x       y       z     vdW  Elec       q    Type
REMARK                         _______ _______ _______ _____ _____    ______ ____
ROOT
ATOM      1  C   UNL     1       7.996   5.066  18.795  0.00  0.00    +0.000 C 
ATOM      2  C   UNL     1       6.953   5.393  17.773  0.00  0.00    +0.000 A 
ATOM      3  N   UNL     1       5.899   6.124  18.179  0.00  0.00    +0.000 NA
ATOM      4  C   UNL     1       4.954   6.400  17.263  0.00  0.00    +0.000 A 
ATOM      5  C   UNL     1       5.047   5.968  15.954  0.00  0.00    +0.000 A 
ATOM      6  C   UNL     1       6.154   5.206  15.631  0.00  0.00    +0.000 A 
ATOM      7  N   UNL     1       7.127   4.925  16.525  0.00  0.00    +0.000 NA
ENDROOT
BRANCH   6   8
ATOM      8  C   UNL     1       6.370   4.633  14.293  0.00  0.00    +0.000 A 
ATOM      9  C   UNL     1       5.574   3.740  13.594  0.00  0.00    +0.000 A 
ATOM     10  C   UNL     1       6.088   3.431  12.299  0.00  0.00    +0.000 A 
ATOM     11  C   UNL     1       7.257   4.104  12.038  0.00  0.00    +0.000 A 
ATOM     12  S   UNL     1       7.732   5.093  13.344  0.00  0.00    +0.000 S 
ENDBRANCH   6   8
BRANCH   4  13
ATOM     13  C   UNL     1       3.818   7.289  17.702  0.00  0.00    +0.000 C 
BRANCH  13  14
ATOM     14  C   UNL     1       2.716   6.421  18.309  0.00  0.00    +0.000 C 
BRANCH  14  15
ATOM     15  N   UNL     1       2.699   6.486  19.775  0.00  0.00    +0.000 NA
ATOM     16  H   UNL     1       2.039   7.210  20.067  0.00  0.00    +0.000 HD
BRANCH  15  17
ATOM     17  C   UNL     1       2.280   5.203  20.374  0.00  0.00    +0.000 C 
BRANCH  17  18
ATOM     18  C   UNL     1       3.390   4.130  20.292  0.00  0.00    +0.000 C 
BRANCH  18  19
ATOM     19  N   UNL     1       2.970   2.719  20.244  0.00  0.00    +0.000 NA
ATOM     20  C   UNL     1       3.765   1.892  19.315  0.00  0.00    +0.000 C 
ATOM     21  C   UNL     1       3.550   2.243  17.834  0.00  0.00    +0.000 C 
ATOM     22  O   UNL     1       2.163   2.162  17.473  0.00  0.00    +0.000 OA
ATOM     23  C   UNL     1       1.356   2.993  18.314  0.00  0.00    +0.000 C 
ATOM     24  C   UNL     1       1.551   2.648  19.802  0.00  0.00    +0.000 C 
ENDBRANCH  18  19
ENDBRANCH  17  18
ENDBRANCH  15  17
ENDBRANCH  14  15
ENDBRANCH  13  14
ENDBRANCH   4  13
TORSDOF 7
ENDMDL
MODEL 6
REMARK VINA RESULT:      -6.7      5.520      7.979
REMARK  Name = 
REMARK  8 active torsions:
REMARK  status: ('A' for Active; 'I' for Inactive)
REMARK    1  A    between atoms: C_1  and  C_2
REMARK    2  A    between atoms: C_4  and  C_5
REMARK    3  A    between atoms: C_5  and  C_6
REMARK    4  A    between atoms: C_6  and  N_7
REMARK    5  A    between atoms: N_7  and  C_8
REMARK    6  A    between atoms: C_8  and  C_9
REMARK    7  A    between atoms: C_9  and  N_10
REMARK    8  A    between atoms: C_17  and  C_18
REMARK                            x       y       z     vdW  Elec       q    Type
REMARK                         _______ _______ _______ _____ _____    ______ ____
ROOT
ATOM      1  C   UNL     1       6.617   4.451  14.692  0.00  0.00    +0.000 C 
ATOM      2  C   UNL     1       6.370   4.651  16.154  0.00  0.00    +0.000 A 
ATOM      3  N   UNL     1       7.265   5.389  16.835  0.00  0.00    +0.000 NA
ATOM      4  C   UNL     1       7.051   5.550  18.154  0.00  0.00    +0.000 A 
ATOM      5  C   UNL     1       5.961   4.996  18.797  0.00  0.00    +0.000 A 
ATOM      6  C   UNL     1       5.105   4.236  18.023  0.00  0.00    +0.000 A 
ATOM      7  N   UNL     1       5.285   4.069  16.695  0.00  0.00    +0.000 NA
ENDROOT
BRANCH   6   8
ATOM      8  C   UNL     1       3.929   3.543  18.572  0.00  0.00    +0.000 A 
ATOM      9  C   UNL     1       3.543   3.409  19.895  0.00  0.00    +0.000 A 
ATOM     10  C   UNL     1       2.317   2.694  20.047  0.00  0.00    +0.000 A 
ATOM     11  C   UNL     1       1.793   2.310  18.836  0.00  0.00    +0.000 A 
ATOM     12  S   UNL     1       2.774   2.803  17.530  0.00  0.00    +0.000 S 
ENDBRANCH   6   8
BRANCH   4  13
ATOM     13  C   UNL     1       8.010   6.447  18.895  0.00  0.00    +0.000 C 
BRANCH  13  14
ATOM     14  C   UNL     1       8.083   7.794  18.177  0.00  0.00    +0.000 C 
BRANCH  14  15
ATOM     15  N   UNL     1       8.869   8.782  18.926  0.00  0.00    +0.000 NA
ATOM     16  H   UNL     1       9.828   8.442  19.019  0.00  0.00    +0.000 HD
BRANCH  15  17
ATOM     17  C   UNL     1       8.902  10.089  18.238  0.00  0.00    +0.000 C 
BRANCH  17  18
ATOM     18  C   UNL     1       9.078  11.265  19.225  0.00  0.00    +0.000 C 
BRANCH  18  19
ATOM     19  N   UNL     1       9.321  12.602  18.656  0.00  0.00    +0.000 NA
ATOM     20  C   UNL     1      10.281  12.606  17.534  0.00  0.00    +0.000 C 
ATOM     21  C   UNL     1      11.722  12.271  17.951  0.00  0.00    +0.000 C 
ATOM     22  O   UNL     1      12.190  13.158  18.977  0.00  0.00    +0.000 OA
ATOM     23  C   UNL     1      11.318  13.145  20.113  0.00  0.00    +0.000 C 
ATOM     24  C   UNL     1       9.871  13.490  19.716  0.00  0.00    +0.000 C 
ENDBRANCH  18  19
ENDBRANCH  17  18
ENDBRANCH  15  17
ENDBRANCH  14  15
ENDBRANCH  13  14
ENDBRANCH   4  13
TORSDOF 7
ENDMDL
MODEL 7
REMARK VINA RESULT:      -6.7      3.453      5.044
REMARK  Name = 
REMARK  8 active torsions:
REMARK  status: ('A' for Active; 'I' for Inactive)
REMARK    1  A    between atoms: C_1  and  C_2
REMARK    2  A    between atoms: C_4  and  C_5
REMARK    3  A    between atoms: C_5  and  C_6
REMARK    4  A    between atoms: C_6  and  N_7
REMARK    5  A    between atoms: N_7  and  C_8
REMARK    6  A    between atoms: C_8  and  C_9
REMARK    7  A    between atoms: C_9  and  N_10
REMARK    8  A    between atoms: C_17  and  C_18
REMARK                            x       y       z     vdW  Elec       q    Type
REMARK                         _______ _______ _______ _____ _____    ______ ____
ROOT
ATOM      1  C   UNL     1      -0.064  10.867  21.581  0.00  0.00    +0.000 C 
ATOM      2  C   UNL     1       0.010  10.359  20.176  0.00  0.00    +0.000 A 
ATOM      3  N   UNL     1       1.146   9.744  19.801  0.00  0.00    +0.000 NA
ATOM      4  C   UNL     1       1.216   9.304  18.531  0.00  0.00    +0.000 A 
ATOM      5  C   UNL     1       0.175   9.462  17.638  0.00  0.00    +0.000 A 
ATOM      6  C   UNL     1      -0.946  10.123  18.103  0.00  0.00    +0.000 A 
ATOM      7  N   UNL     1      -1.053  10.562  19.376  0.00  0.00    +0.000 NA
ENDROOT
BRANCH   6   8
ATOM      8  C   UNL     1      -2.116  10.410  17.258  0.00  0.00    +0.000 A 
ATOM      9  C   UNL     1      -2.370   9.997  15.961  0.00  0.00    +0.000 A 
ATOM     10  C   UNL     1      -3.634  10.444  15.472  0.00  0.00    +0.000 A 
ATOM     11  C   UNL     1      -4.318  11.177  16.411  0.00  0.00    +0.000 A 
ATOM     12  S   UNL     1      -3.440  11.329  17.867  0.00  0.00    +0.000 S 
ENDBRANCH   6   8
BRANCH   4  13
ATOM     13  C   UNL     1       2.458   8.542  18.142  0.00  0.00    +0.000 C 
BRANCH  13  14
ATOM     14  C   UNL     1       2.331   7.102  18.639  0.00  0.00    +0.000 C 
BRANCH  14  15
ATOM     15  N   UNL     1       2.170   7.027  20.096  0.00  0.00    +0.000 NA
ATOM     16  H   UNL     1       1.254   7.403  20.348  0.00  0.00    +0.000 HD
BRANCH  15  17
ATOM     17  C   UNL     1       2.256   5.636  20.584  0.00  0.00    +0.000 C 
BRANCH  17  18
ATOM     18  C   UNL     1       1.712   4.621  19.553  0.00  0.00    +0.000 C 
BRANCH  18  19
ATOM     19  N   UNL     1       1.647   3.206  19.959  0.00  0.00    +0.000 NA
ATOM     20  C   UNL     1       2.910   2.690  20.525  0.00  0.00    +0.000 C 
ATOM     21  C   UNL     1       4.049   2.580  19.500  0.00  0.00    +0.000 C 
ATOM     22  O   UNL     1       3.667   1.771  18.378  0.00  0.00    +0.000 OA
ATOM     23  C   UNL     1       2.475   2.266  17.759  0.00  0.00    +0.000 C 
ATOM     24  C   UNL     1       1.319   2.373  18.771  0.00  0.00    +0.000 C 
ENDBRANCH  18  19
ENDBRANCH  17  18
ENDBRANCH  15  17
ENDBRANCH  14  15
ENDBRANCH  13  14
ENDBRANCH   4  13
TORSDOF 7
ENDMDL
MODEL 8
REMARK VINA RESULT:      -6.7      0.798      1.097
REMARK  Name = 
REMARK  8 active torsions:
REMARK  status: ('A' for Active; 'I' for Inactive)
REMARK    1  A    between atoms: C_1  and  C_2
REMARK    2  A    between atoms: C_4  and  C_5
REMARK    3  A    between atoms: C_5  and  C_6
REMARK    4  A    between atoms: C_6  and  N_7
REMARK    5  A    between atoms: N_7  and  C_8
REMARK    6  A    between atoms: C_8  and  C_9
REMARK    7  A    between atoms: C_9  and  N_10
REMARK    8  A    between atoms: C_17  and  C_18
REMARK                            x       y       z     vdW  Elec       q    Type
REMARK                         _______ _______ _______ _____ _____    ______ ____
ROOT
ATOM      1  C   UNL     1       2.580   8.488  17.563  0.00  0.00    +0.000 C 
ATOM      2  C   UNL     1       2.068   8.075  18.906  0.00  0.00    +0.000 A 
ATOM      3  N   UNL     1       2.271   6.799  19.278  0.00  0.00    +0.000 NA
ATOM      4  C   UNL     1       1.792   6.425  20.479  0.00  0.00    +0.000 A 
ATOM      5  C   UNL     1       1.125   7.302  21.311  0.00  0.00    +0.000 A 
ATOM      6  C   UNL     1       0.944   8.588  20.839  0.00  0.00    +0.000 A 
ATOM      7  N   UNL     1       1.426   8.997  19.646  0.00  0.00    +0.000 NA
ENDROOT
BRANCH   6   8
ATOM      8  C   UNL     1       0.211   9.622  21.588  0.00  0.00    +0.000 A 
ATOM      9  C   UNL     1      -0.550   9.483  22.737  0.00  0.00    +0.000 A 
ATOM     10  C   UNL     1      -1.086  10.721  23.202  0.00  0.00    +0.000 A 
ATOM     11  C   UNL     1      -0.712  11.775  22.403  0.00  0.00    +0.000 A 
ATOM     12  S   UNL     1       0.272  11.274  21.102  0.00  0.00    +0.000 S 
ENDBRANCH   6   8
BRANCH   4  13
ATOM     13  C   UNL     1       2.096   5.018  20.926  0.00  0.00    +0.000 C 
BRANCH  13  14
ATOM     14  C   UNL     1       1.889   4.068  19.746  0.00  0.00    +0.000 C 
BRANCH  14  15
ATOM     15  N   UNL     1       3.157   3.547  19.221  0.00  0.00    +0.000 NA
ATOM     16  H   UNL     1       3.216   2.548  19.429  0.00  0.00    +0.000 HD
BRANCH  15  17
ATOM     17  C   UNL     1       3.257   3.727  17.758  0.00  0.00    +0.000 C 
BRANCH  17  18
ATOM     18  C   UNL     1       4.712   3.593  17.252  0.00  0.00    +0.000 C 
BRANCH  18  19
ATOM     19  N   UNL     1       5.665   4.649  17.634  0.00  0.00    +0.000 NA
ATOM     20  C   UNL     1       5.237   6.007  17.245  0.00  0.00    +0.000 C 
ATOM     21  C   UNL     1       5.231   6.244  15.727  0.00  0.00    +0.000 C 
ATOM     22  O   UNL     1       6.516   5.969  15.149  0.00  0.00    +0.000 OA
ATOM     23  C   UNL     1       6.950   4.639  15.452  0.00  0.00    +0.000 C 
ATOM     24  C   UNL     1       6.972   4.387  16.971  0.00  0.00    +0.000 C 
ENDBRANCH  18  19
ENDBRANCH  17  18
ENDBRANCH  15  17
ENDBRANCH  14  15
ENDBRANCH  13  14
ENDBRANCH   4  13
TORSDOF 7
ENDMDL
MODEL 9
REMARK VINA RESULT:      -6.6      0.914      1.489
REMARK  Name = 
REMARK  8 active torsions:
REMARK  status: ('A' for Active; 'I' for Inactive)
REMARK    1  A    between atoms: C_1  and  C_2
REMARK    2  A    between atoms: C_4  and  C_5
REMARK    3  A    between atoms: C_5  and  C_6
REMARK    4  A    between atoms: C_6  and  N_7
REMARK    5  A    between atoms: N_7  and  C_8
REMARK    6  A    between atoms: C_8  and  C_9
REMARK    7  A    between atoms: C_9  and  N_10
REMARK    8  A    between atoms: C_17  and  C_18
REMARK                            x       y       z     vdW  Elec       q    Type
REMARK                         _______ _______ _______ _____ _____    ______ ____
ROOT
ATOM      1  C   UNL     1       2.685   8.503  17.560  0.00  0.00    +0.000 C 
ATOM      2  C   UNL     1       2.146   8.047  18.878  0.00  0.00    +0.000 A 
ATOM      3  N   UNL     1       2.374   6.768  19.229  0.00  0.00    +0.000 NA
ATOM      4  C   UNL     1       1.872   6.356  20.408  0.00  0.00    +0.000 A 
ATOM      5  C   UNL     1       1.156   7.196  21.238  0.00  0.00    +0.000 A 
ATOM      6  C   UNL     1       0.953   8.486  20.788  0.00  0.00    +0.000 A 
ATOM      7  N   UNL     1       1.458   8.934  19.618  0.00  0.00    +0.000 NA
ENDROOT
BRANCH   6   8
ATOM      8  C   UNL     1       0.171   9.483  21.537  0.00  0.00    +0.000 A 
ATOM      9  C   UNL     1      -0.350   9.392  22.817  0.00  0.00    +0.000 A 
ATOM     10  C   UNL     1      -1.028  10.578  23.229  0.00  0.00    +0.000 A 
ATOM     11  C   UNL     1      -0.998  11.549  22.257  0.00  0.00    +0.000 A 
ATOM     12  S   UNL     1      -0.166  11.031  20.860  0.00  0.00    +0.000 S 
ENDBRANCH   6   8
BRANCH   4  13
ATOM     13  C   UNL     1       2.202   4.948  20.834  0.00  0.00    +0.000 C 
BRANCH  13  14
ATOM     14  C   UNL     1       2.295   4.063  19.590  0.00  0.00    +0.000 C 
BRANCH  14  15
ATOM     15  N   UNL     1       3.284   2.990  19.742  0.00  0.00    +0.000 NA
ATOM     16  H   UNL     1       2.955   2.162  19.241  0.00  0.00    +0.000 HD
BRANCH  15  17
ATOM     17  C   UNL     1       4.600   3.377  19.193  0.00  0.00    +0.000 C 
BRANCH  17  18
ATOM     18  C   UNL     1       4.476   4.080  17.822  0.00  0.00    +0.000 C 
BRANCH  18  19
ATOM     19  N   UNL     1       5.666   4.090  16.953  0.00  0.00    +0.000 NA
ATOM     20  C   UNL     1       6.847   4.730  17.566  0.00  0.00    +0.000 C 
ATOM     21  C   UNL     1       6.696   6.246  17.765  0.00  0.00    +0.000 C 
ATOM     22  O   UNL     1       6.388   6.908  16.529  0.00  0.00    +0.000 OA
ATOM     23  C   UNL     1       5.214   6.357  15.922  0.00  0.00    +0.000 C 
ATOM     24  C   UNL     1       5.351   4.839  15.706  0.00  0.00    +0.000 C 
ENDBRANCH  18  19
ENDBRANCH  17  18
ENDBRANCH  15  17
ENDBRANCH  14  15
ENDBRANCH  13  14
ENDBRANCH   4  13
TORSDOF 7
ENDMDL
