MODEL 1
REMARK VINA RESULT:      -6.3      0.000      0.000
REMARK  Name = 
REMARK  8 active torsions:
REMARK  status: ('A' for Active; 'I' for Inactive)
REMARK    1  A    between atoms: C_2  and  C_3
REMARK    2  A    between atoms: C_3  and  N_4
REMARK    3  A    between atoms: C_5  and  O_6
REMARK    4  A    between atoms: C_11  and  S_12
REMARK    5  A    between atoms: S_12  and  C_13
REMARK    6  A    between atoms: C_13  and  C_14
REMARK    7  A    between atoms: C_14  and  C_15
REMARK    8  A    between atoms: C_15  and  C_16
REMARK                            x       y       z     vdW  Elec       q    Type
REMARK                         _______ _______ _______ _____ _____    ______ ____
ROOT
ATOM      1  N   UNL     1       5.911   4.877  16.833  0.00  0.00    +0.000 N 
ATOM      2  C   UNL     1       7.056   5.656  16.974  0.00  0.00    +0.000 A 
ATOM      3  C   UNL     1       7.613   5.882  18.161  0.00  0.00    +0.000 A 
ATOM      4  C   UNL     1       7.016   5.264  19.355  0.00  0.00    +0.000 A 
ATOM      5  O   UNL     1       7.540   5.460  20.445  0.00  0.00    +0.000 OA
ATOM      6  N   UNL     1       5.893   4.496  19.192  0.00  0.00    +0.000 NA
ATOM      7  C   UNL     1       5.387   4.333  18.013  0.00  0.00    +0.000 A 
ENDROOT
BRANCH   2   8
ATOM      8  O   UNL     1       7.651   6.219  15.867  0.00  0.00    +0.000 OA
ATOM      9  H   UNL     1       8.496   5.756  15.734  0.00  0.00    +0.000 HD
ENDBRANCH   2   8
BRANCH   1  10
ATOM     10  C   UNL     1       5.233   4.760  15.533  0.00  0.00    +0.000 C 
BRANCH  10  12
ATOM     11  C   UNL     1       6.203   3.851  13.377  0.00  0.00    +0.000 C 
ATOM     12  C   UNL     1       5.940   3.730  14.687  0.00  0.00    +0.000 C 
ENDBRANCH  10  12
ENDBRANCH   1  10
BRANCH   7  13
ATOM     13  S   UNL     1       3.931   3.322  17.944  0.00  0.00    +0.000 S 
BRANCH  13  14
ATOM     14  C   UNL     1       2.574   4.515  18.191  0.00  0.00    +0.000 C 
BRANCH  14  15
ATOM     15  C   UNL     1       1.518   4.027  19.189  0.00  0.00    +0.000 C 
BRANCH  15  16
ATOM     16  C   UNL     1       2.101   3.987  20.608  0.00  0.00    +0.000 C 
ATOM     17  C   UNL     1       1.531   2.851  21.444  0.00  0.00    +0.000 C 
ENDBRANCH  15  16
ENDBRANCH  14  15
ENDBRANCH  13  14
ENDBRANCH   7  13
TORSDOF 7
ENDMDL
MODEL 2
REMARK VINA RESULT:      -6.2      1.135      1.897
REMARK  Name = 
REMARK  8 active torsions:
REMARK  status: ('A' for Active; 'I' for Inactive)
REMARK    1  A    between atoms: C_2  and  C_3
REMARK    2  A    between atoms: C_3  and  N_4
REMARK    3  A    between atoms: C_5  and  O_6
REMARK    4  A    between atoms: C_11  and  S_12
REMARK    5  A    between atoms: S_12  and  C_13
REMARK    6  A    between atoms: C_13  and  C_14
REMARK    7  A    between atoms: C_14  and  C_15
REMARK    8  A    between atoms: C_15  and  C_16
REMARK                            x       y       z     vdW  Elec       q    Type
REMARK                         _______ _______ _______ _____ _____    ______ ____
ROOT
ATOM      1  N   UNL     1       5.926   4.896  16.959  0.00  0.00    +0.000 N 
ATOM      2  C   UNL     1       7.059   5.698  17.067  0.00  0.00    +0.000 A 
ATOM      3  C   UNL     1       7.647   5.931  18.238  0.00  0.00    +0.000 A 
ATOM      4  C   UNL     1       7.100   5.296  19.446  0.00  0.00    +0.000 A 
ATOM      5  O   UNL     1       7.654   5.498  20.521  0.00  0.00    +0.000 OA
ATOM      6  N   UNL     1       5.989   4.505  19.315  0.00  0.00    +0.000 NA
ATOM      7  C   UNL     1       5.450   4.337  18.151  0.00  0.00    +0.000 A 
ENDROOT
BRANCH   2   8
ATOM      8  O   UNL     1       7.608   6.278  15.945  0.00  0.00    +0.000 OA
ATOM      9  H   UNL     1       7.926   7.158  16.209  0.00  0.00    +0.000 HD
ENDBRANCH   2   8
BRANCH   1  10
ATOM     10  C   UNL     1       5.211   4.771  15.679  0.00  0.00    +0.000 C 
BRANCH  10  12
ATOM     11  C   UNL     1       6.178   3.874  13.516  0.00  0.00    +0.000 C 
ATOM     12  C   UNL     1       5.893   3.735  14.820  0.00  0.00    +0.000 C 
ENDBRANCH  10  12
ENDBRANCH   1  10
BRANCH   7  13
ATOM     13  S   UNL     1       4.013   3.296  18.122  0.00  0.00    +0.000 S 
BRANCH  13  14
ATOM     14  C   UNL     1       2.723   4.333  18.887  0.00  0.00    +0.000 C 
BRANCH  14  15
ATOM     15  C   UNL     1       2.348   5.552  18.037  0.00  0.00    +0.000 C 
BRANCH  15  16
ATOM     16  C   UNL     1       2.732   6.849  18.761  0.00  0.00    +0.000 C 
ATOM     17  C   UNL     1       2.405   8.093  17.948  0.00  0.00    +0.000 C 
ENDBRANCH  15  16
ENDBRANCH  14  15
ENDBRANCH  13  14
ENDBRANCH   7  13
TORSDOF 7
ENDMDL
MODEL 3
REMARK VINA RESULT:      -6.1      1.347      1.607
REMARK  Name = 
REMARK  8 active torsions:
REMARK  status: ('A' for Active; 'I' for Inactive)
REMARK    1  A    between atoms: C_2  and  C_3
REMARK    2  A    between atoms: C_3  and  N_4
REMARK    3  A    between atoms: C_5  and  O_6
REMARK    4  A    between atoms: C_11  and  S_12
REMARK    5  A    between atoms: S_12  and  C_13
REMARK    6  A    between atoms: C_13  and  C_14
REMARK    7  A    between atoms: C_14  and  C_15
REMARK    8  A    between atoms: C_15  and  C_16
REMARK                            x       y       z     vdW  Elec       q    Type
REMARK                         _______ _______ _______ _____ _____    ______ ____
ROOT
ATOM      1  N   UNL     1       5.918   6.108  17.478  0.00  0.00    +0.000 N 
ATOM      2  C   UNL     1       7.240   6.525  17.608  0.00  0.00    +0.000 A 
ATOM      3  C   UNL     1       7.959   6.259  18.695  0.00  0.00    +0.000 A 
ATOM      4  C   UNL     1       7.345   5.476  19.779  0.00  0.00    +0.000 A 
ATOM      5  O   UNL     1       8.014   5.218  20.772  0.00  0.00    +0.000 OA
ATOM      6  N   UNL     1       6.045   5.070  19.626  0.00  0.00    +0.000 NA
ATOM      7  C   UNL     1       5.393   5.380  18.553  0.00  0.00    +0.000 A 
ENDROOT
BRANCH   2   8
ATOM      8  O   UNL     1       7.845   7.233  16.594  0.00  0.00    +0.000 OA
ATOM      9  H   UNL     1       7.420   6.958  15.764  0.00  0.00    +0.000 HD
ENDBRANCH   2   8
BRANCH   1  10
ATOM     10  C   UNL     1       5.101   6.536  16.331  0.00  0.00    +0.000 C 
BRANCH  10  12
ATOM     11  C   UNL     1       5.483   4.327  15.151  0.00  0.00    +0.000 C 
ATOM     12  C   UNL     1       5.414   5.668  15.138  0.00  0.00    +0.000 C 
ENDBRANCH  10  12
ENDBRANCH   1  10
BRANCH   7  13
ATOM     13  S   UNL     1       3.718   4.798  18.487  0.00  0.00    +0.000 S 
BRANCH  13  14
ATOM     14  C   UNL     1       3.902   2.985  18.410  0.00  0.00    +0.000 C 
BRANCH  14  15
ATOM     15  C   UNL     1       2.682   2.282  17.805  0.00  0.00    +0.000 C 
BRANCH  15  16
ATOM     16  C   UNL     1       1.413   2.638  18.592  0.00  0.00    +0.000 C 
ATOM     17  C   UNL     1       1.545   2.348  20.079  0.00  0.00    +0.000 C 
ENDBRANCH  15  16
ENDBRANCH  14  15
ENDBRANCH  13  14
ENDBRANCH   7  13
TORSDOF 7
ENDMDL
MODEL 4
REMARK VINA RESULT:      -6.0      0.956      1.182
REMARK  Name = 
REMARK  8 active torsions:
REMARK  status: ('A' for Active; 'I' for Inactive)
REMARK    1  A    between atoms: C_2  and  C_3
REMARK    2  A    between atoms: C_3  and  N_4
REMARK    3  A    between atoms: C_5  and  O_6
REMARK    4  A    between atoms: C_11  and  S_12
REMARK    5  A    between atoms: S_12  and  C_13
REMARK    6  A    between atoms: C_13  and  C_14
REMARK    7  A    between atoms: C_14  and  C_15
REMARK    8  A    between atoms: C_15  and  C_16
REMARK                            x       y       z     vdW  Elec       q    Type
REMARK                         _______ _______ _______ _____ _____    ______ ____
ROOT
ATOM      1  N   UNL     1       5.998   5.279  17.331  0.00  0.00    +0.000 N 
ATOM      2  C   UNL     1       7.197   5.987  17.373  0.00  0.00    +0.000 A 
ATOM      3  C   UNL     1       7.908   6.102  18.492  0.00  0.00    +0.000 A 
ATOM      4  C   UNL     1       7.425   5.437  19.712  0.00  0.00    +0.000 A 
ATOM      5  O   UNL     1       8.090   5.530  20.736  0.00  0.00    +0.000 OA
ATOM      6  N   UNL     1       6.247   4.740  19.645  0.00  0.00    +0.000 NA
ATOM      7  C   UNL     1       5.591   4.684  18.532  0.00  0.00    +0.000 A 
ENDROOT
BRANCH   2   8
ATOM      8  O   UNL     1       7.684   6.592  16.236  0.00  0.00    +0.000 OA
ATOM      9  H   UNL     1       8.317   5.973  15.835  0.00  0.00    +0.000 HD
ENDBRANCH   2   8
BRANCH   1  10
ATOM     10  C   UNL     1       5.160   5.286  16.121  0.00  0.00    +0.000 C 
BRANCH  10  12
ATOM     11  C   UNL     1       6.118   4.202  14.042  0.00  0.00    +0.000 C 
ATOM     12  C   UNL     1       5.530   4.115  15.246  0.00  0.00    +0.000 C 
ENDBRANCH  10  12
ENDBRANCH   1  10
BRANCH   7  13
ATOM     13  S   UNL     1       4.080   3.756  18.585  0.00  0.00    +0.000 S 
BRANCH  13  14
ATOM     14  C   UNL     1       3.129   4.572  19.911  0.00  0.00    +0.000 C 
BRANCH  14  15
ATOM     15  C   UNL     1       1.614   4.399  19.757  0.00  0.00    +0.000 C 
BRANCH  15  16
ATOM     16  C   UNL     1       1.292   3.593  18.491  0.00  0.00    +0.000 C 
ATOM     17  C   UNL     1       0.684   2.234  18.800  0.00  0.00    +0.000 C 
ENDBRANCH  15  16
ENDBRANCH  14  15
ENDBRANCH  13  14
ENDBRANCH   7  13
TORSDOF 7
ENDMDL
MODEL 5
REMARK VINA RESULT:      -6.0      1.036      1.153
REMARK  Name = 
REMARK  8 active torsions:
REMARK  status: ('A' for Active; 'I' for Inactive)
REMARK    1  A    between atoms: C_2  and  C_3
REMARK    2  A    between atoms: C_3  and  N_4
REMARK    3  A    between atoms: C_5  and  O_6
REMARK    4  A    between atoms: C_11  and  S_12
REMARK    5  A    between atoms: S_12  and  C_13
REMARK    6  A    between atoms: C_13  and  C_14
REMARK    7  A    between atoms: C_14  and  C_15
REMARK    8  A    between atoms: C_15  and  C_16
REMARK                            x       y       z     vdW  Elec       q    Type
REMARK                         _______ _______ _______ _____ _____    ______ ____
ROOT
ATOM      1  N   UNL     1       5.751   4.876  16.349  0.00  0.00    +0.000 N 
ATOM      2  C   UNL     1       6.960   5.528  16.579  0.00  0.00    +0.000 A 
ATOM      3  C   UNL     1       7.423   5.740  17.808  0.00  0.00    +0.000 A 
ATOM      4  C   UNL     1       6.646   5.244  18.955  0.00  0.00    +0.000 A 
ATOM      5  O   UNL     1       7.083   5.426  20.085  0.00  0.00    +0.000 OA
ATOM      6  N   UNL     1       5.464   4.599  18.704  0.00  0.00    +0.000 NA
ATOM      7  C   UNL     1       5.058   4.444  17.486  0.00  0.00    +0.000 A 
ENDROOT
BRANCH   2   8
ATOM      8  O   UNL     1       7.719   5.974  15.520  0.00  0.00    +0.000 OA
ATOM      9  H   UNL     1       7.665   5.294  14.827  0.00  0.00    +0.000 HD
ENDBRANCH   2   8
BRANCH   1  10
ATOM     10  C   UNL     1       5.192   4.780  14.991  0.00  0.00    +0.000 C 
BRANCH  10  12
ATOM     11  C   UNL     1       5.975   3.654  12.862  0.00  0.00    +0.000 C 
ATOM     12  C   UNL     1       5.965   3.754  14.200  0.00  0.00    +0.000 C 
ENDBRANCH  10  12
ENDBRANCH   1  10
BRANCH   7  13
ATOM     13  S   UNL     1       3.508   3.599  17.303  0.00  0.00    +0.000 S 
BRANCH  13  14
ATOM     14  C   UNL     1       3.642   2.210  18.478  0.00  0.00    +0.000 C 
BRANCH  14  15
ATOM     15  C   UNL     1       2.893   2.459  19.791  0.00  0.00    +0.000 C 
BRANCH  15  16
ATOM     16  C   UNL     1       1.416   2.771  19.515  0.00  0.00    +0.000 C 
ATOM     17  C   UNL     1       0.924   3.993  20.276  0.00  0.00    +0.000 C 
ENDBRANCH  15  16
ENDBRANCH  14  15
ENDBRANCH  13  14
ENDBRANCH   7  13
TORSDOF 7
ENDMDL
MODEL 6
REMARK VINA RESULT:      -5.9      2.012      2.556
REMARK  Name = 
REMARK  8 active torsions:
REMARK  status: ('A' for Active; 'I' for Inactive)
REMARK    1  A    between atoms: C_2  and  C_3
REMARK    2  A    between atoms: C_3  and  N_4
REMARK    3  A    between atoms: C_5  and  O_6
REMARK    4  A    between atoms: C_11  and  S_12
REMARK    5  A    between atoms: S_12  and  C_13
REMARK    6  A    between atoms: C_13  and  C_14
REMARK    7  A    between atoms: C_14  and  C_15
REMARK    8  A    between atoms: C_15  and  C_16
REMARK                            x       y       z     vdW  Elec       q    Type
REMARK                         _______ _______ _______ _____ _____    ______ ____
ROOT
ATOM      1  N   UNL     1       5.586   6.116  17.771  0.00  0.00    +0.000 N 
ATOM      2  C   UNL     1       6.801   6.794  17.748  0.00  0.00    +0.000 A 
ATOM      3  C   UNL     1       7.783   6.508  18.600  0.00  0.00    +0.000 A 
ATOM      4  C   UNL     1       7.585   5.424  19.574  0.00  0.00    +0.000 A 
ATOM      5  O   UNL     1       8.497   5.151  20.346  0.00  0.00    +0.000 OA
ATOM      6  N   UNL     1       6.384   4.765  19.572  0.00  0.00    +0.000 NA
ATOM      7  C   UNL     1       5.461   5.106  18.733  0.00  0.00    +0.000 A 
ENDROOT
BRANCH   2   8
ATOM      8  O   UNL     1       7.021   7.792  16.826  0.00  0.00    +0.000 OA
ATOM      9  H   UNL     1       7.953   8.056  16.911  0.00  0.00    +0.000 HD
ENDBRANCH   2   8
BRANCH   1  10
ATOM     10  C   UNL     1       4.467   6.545  16.916  0.00  0.00    +0.000 C 
BRANCH  10  12
ATOM     11  C   UNL     1       2.345   7.599  17.813  0.00  0.00    +0.000 C 
ATOM     12  C   UNL     1       3.674   7.615  17.625  0.00  0.00    +0.000 C 
ENDBRANCH  10  12
ENDBRANCH   1  10
BRANCH   7  13
ATOM     13  S   UNL     1       3.952   4.178  18.843  0.00  0.00    +0.000 S 
BRANCH  13  14
ATOM     14  C   UNL     1       3.102   4.920  20.276  0.00  0.00    +0.000 C 
BRANCH  14  15
ATOM     15  C   UNL     1       1.575   4.830  20.182  0.00  0.00    +0.000 C 
BRANCH  15  16
ATOM     16  C   UNL     1       1.098   3.418  20.545  0.00  0.00    +0.000 C 
ATOM     17  C   UNL     1       1.872   2.819  21.709  0.00  0.00    +0.000 C 
ENDBRANCH  15  16
ENDBRANCH  14  15
ENDBRANCH  13  14
ENDBRANCH   7  13
TORSDOF 7
ENDMDL
MODEL 7
REMARK VINA RESULT:      -5.9      3.042      5.504
REMARK  Name = 
REMARK  8 active torsions:
REMARK  status: ('A' for Active; 'I' for Inactive)
REMARK    1  A    between atoms: C_2  and  C_3
REMARK    2  A    between atoms: C_3  and  N_4
REMARK    3  A    between atoms: C_5  and  O_6
REMARK    4  A    between atoms: C_11  and  S_12
REMARK    5  A    between atoms: S_12  and  C_13
REMARK    6  A    between atoms: C_13  and  C_14
REMARK    7  A    between atoms: C_14  and  C_15
REMARK    8  A    between atoms: C_15  and  C_16
REMARK                            x       y       z     vdW  Elec       q    Type
REMARK                         _______ _______ _______ _____ _____    ______ ____
ROOT
ATOM      1  N   UNL     1       3.087   4.385  18.913  0.00  0.00    +0.000 N 
ATOM      2  C   UNL     1       2.456   3.801  20.008  0.00  0.00    +0.000 A 
ATOM      3  C   UNL     1       3.051   2.868  20.748  0.00  0.00    +0.000 A 
ATOM      4  C   UNL     1       4.426   2.466  20.414  0.00  0.00    +0.000 A 
ATOM      5  O   UNL     1       4.977   1.620  21.107  0.00  0.00    +0.000 OA
ATOM      6  N   UNL     1       5.029   3.060  19.337  0.00  0.00    +0.000 NA
ATOM      7  C   UNL     1       4.388   3.944  18.643  0.00  0.00    +0.000 A 
ENDROOT
BRANCH   2   8
ATOM      8  O   UNL     1       1.181   4.183  20.359  0.00  0.00    +0.000 OA
ATOM      9  H   UNL     1       0.774   4.572  19.566  0.00  0.00    +0.000 HD
ENDBRANCH   2   8
BRANCH   1  10
ATOM     10  C   UNL     1       2.358   5.307  18.027  0.00  0.00    +0.000 C 
BRANCH  10  12
ATOM     11  C   UNL     1       2.940   7.765  17.837  0.00  0.00    +0.000 C 
ATOM     12  C   UNL     1       2.493   6.717  18.546  0.00  0.00    +0.000 C 
ENDBRANCH  10  12
ENDBRANCH   1  10
BRANCH   7  13
ATOM     13  S   UNL     1       5.282   4.628  17.272  0.00  0.00    +0.000 S 
BRANCH  13  14
ATOM     14  C   UNL     1       6.996   4.722  17.888  0.00  0.00    +0.000 C 
BRANCH  14  15
ATOM     15  C   UNL     1       7.346   6.088  18.488  0.00  0.00    +0.000 C 
BRANCH  15  16
ATOM     16  C   UNL     1       7.391   7.160  17.391  0.00  0.00    +0.000 C 
ATOM     17  C   UNL     1       8.044   8.451  17.860  0.00  0.00    +0.000 C 
ENDBRANCH  15  16
ENDBRANCH  14  15
ENDBRANCH  13  14
ENDBRANCH   7  13
TORSDOF 7
ENDMDL
MODEL 8
REMARK VINA RESULT:      -5.8      1.967      2.975
REMARK  Name = 
REMARK  8 active torsions:
REMARK  status: ('A' for Active; 'I' for Inactive)
REMARK    1  A    between atoms: C_2  and  C_3
REMARK    2  A    between atoms: C_3  and  N_4
REMARK    3  A    between atoms: C_5  and  O_6
REMARK    4  A    between atoms: C_11  and  S_12
REMARK    5  A    between atoms: S_12  and  C_13
REMARK    6  A    between atoms: C_13  and  C_14
REMARK    7  A    between atoms: C_14  and  C_15
REMARK    8  A    between atoms: C_15  and  C_16
REMARK                            x       y       z     vdW  Elec       q    Type
REMARK                         _______ _______ _______ _____ _____    ______ ____
ROOT
ATOM      1  N   UNL     1       4.548   5.481  17.423  0.00  0.00    +0.000 N 
ATOM      2  C   UNL     1       5.479   5.946  16.498  0.00  0.00    +0.000 A 
ATOM      3  C   UNL     1       6.751   5.558  16.522  0.00  0.00    +0.000 A 
ATOM      4  C   UNL     1       7.177   4.586  17.541  0.00  0.00    +0.000 A 
ATOM      5  O   UNL     1       8.346   4.217  17.551  0.00  0.00    +0.000 OA
ATOM      6  N   UNL     1       6.243   4.136  18.436  0.00  0.00    +0.000 NA
ATOM      7  C   UNL     1       5.026   4.570  18.373  0.00  0.00    +0.000 A 
ENDROOT
BRANCH   2   8
ATOM      8  O   UNL     1       5.096   6.833  15.516  0.00  0.00    +0.000 OA
ATOM      9  H   UNL     1       5.142   7.722  15.905  0.00  0.00    +0.000 HD
ENDBRANCH   2   8
BRANCH   1  10
ATOM     10  C   UNL     1       3.185   6.033  17.464  0.00  0.00    +0.000 C 
BRANCH  10  12
ATOM     11  C   UNL     1       2.296   8.372  17.858  0.00  0.00    +0.000 C 
ATOM     12  C   UNL     1       3.221   7.420  18.057  0.00  0.00    +0.000 C 
ENDBRANCH  10  12
ENDBRANCH   1  10
BRANCH   7  13
ATOM     13  S   UNL     1       3.920   3.914  19.596  0.00  0.00    +0.000 S 
BRANCH  13  14
ATOM     14  C   UNL     1       3.138   2.502  18.745  0.00  0.00    +0.000 C 
BRANCH  14  15
ATOM     15  C   UNL     1       1.714   2.220  19.235  0.00  0.00    +0.000 C 
BRANCH  15  16
ATOM     16  C   UNL     1       1.306   3.234  20.312  0.00  0.00    +0.000 C 
ATOM     17  C   UNL     1       1.321   2.639  21.712  0.00  0.00    +0.000 C 
ENDBRANCH  15  16
ENDBRANCH  14  15
ENDBRANCH  13  14
ENDBRANCH   7  13
TORSDOF 7
ENDMDL
MODEL 9
REMARK VINA RESULT:      -5.8      2.148      2.940
REMARK  Name = 
REMARK  8 active torsions:
REMARK  status: ('A' for Active; 'I' for Inactive)
REMARK    1  A    between atoms: C_2  and  C_3
REMARK    2  A    between atoms: C_3  and  N_4
REMARK    3  A    between atoms: C_5  and  O_6
REMARK    4  A    between atoms: C_11  and  S_12
REMARK    5  A    between atoms: S_12  and  C_13
REMARK    6  A    between atoms: C_13  and  C_14
REMARK    7  A    between atoms: C_14  and  C_15
REMARK    8  A    between atoms: C_15  and  C_16
REMARK                            x       y       z     vdW  Elec       q    Type
REMARK                         _______ _______ _______ _____ _____    ______ ____
ROOT
ATOM      1  N   UNL     1       4.684   4.590  16.839  0.00  0.00    +0.000 N 
ATOM      2  C   UNL     1       5.922   4.371  16.242  0.00  0.00    +0.000 A 
ATOM      3  C   UNL     1       6.862   5.312  16.204  0.00  0.00    +0.000 A 
ATOM      4  C   UNL     1       6.591   6.611  16.838  0.00  0.00    +0.000 A 
ATOM      5  O   UNL     1       7.464   7.471  16.816  0.00  0.00    +0.000 OA
ATOM      6  N   UNL     1       5.369   6.802  17.427  0.00  0.00    +0.000 NA
ATOM      7  C   UNL     1       4.489   5.854  17.410  0.00  0.00    +0.000 A 
ENDROOT
BRANCH   2   8
ATOM      8  O   UNL     1       6.209   3.152  15.668  0.00  0.00    +0.000 OA
ATOM      9  H   UNL     1       6.870   3.315  14.974  0.00  0.00    +0.000 HD
ENDBRANCH   2   8
BRANCH   1  10
ATOM     10  C   UNL     1       3.612   3.586  16.743  0.00  0.00    +0.000 C 
BRANCH  10  12
ATOM     11  C   UNL     1       2.789   1.729  18.257  0.00  0.00    +0.000 C 
ATOM     12  C   UNL     1       3.731   2.611  17.888  0.00  0.00    +0.000 C 
ENDBRANCH  10  12
ENDBRANCH   1  10
BRANCH   7  13
ATOM     13  S   UNL     1       2.947   6.234  18.200  0.00  0.00    +0.000 S 
BRANCH  13  14
ATOM     14  C   UNL     1       3.161   5.575  19.888  0.00  0.00    +0.000 C 
BRANCH  14  15
ATOM     15  C   UNL     1       1.874   4.981  20.470  0.00  0.00    +0.000 C 
BRANCH  15  16
ATOM     16  C   UNL     1       2.204   3.926  21.534  0.00  0.00    +0.000 C 
ATOM     17  C   UNL     1       1.327   2.689  21.425  0.00  0.00    +0.000 C 
ENDBRANCH  15  16
ENDBRANCH  14  15
ENDBRANCH  13  14
ENDBRANCH   7  13
TORSDOF 7
ENDMDL
