MODEL 1
REMARK VINA RESULT:      -8.9      0.000      0.000
REMARK  Name = 
REMARK  10 active torsions:
REMARK  status: ('A' for Active; 'I' for Inactive)
REMARK    1  A    between atoms: C_5  and  C_6
REMARK    2  A    between atoms: C_6  and  O_7
REMARK    3  A    between atoms: C_6  and  C_28
REMARK    4  A    between atoms: O_7  and  C_8
REMARK    5  A    between atoms: C_8  and  C_9
REMARK    6  A    between atoms: C_9  and  N_10
REMARK    7  A    between atoms: N_18  and  C_19
REMARK    8  A    between atoms: C_19  and  C_20
REMARK    9  A    between atoms: C_20  and  C_21
REMARK   10  A    between atoms: C_21  and  C_22
REMARK                            x       y       z     vdW  Elec       q    Type
REMARK                         _______ _______ _______ _____ _____    ______ ____
ROOT
ATOM      1  C   UNL     1       3.297   8.023  17.551  0.00  0.00    +0.000 C 
ENDROOT
BRANCH   1   2
ATOM      2  N   UNL     1       3.867   6.666  17.612  0.00  0.00    +0.000 NA
ATOM      3  C   UNL     1       4.470   6.389  18.985  0.00  0.00    +0.000 C 
ATOM      4  C   UNL     1       5.599   5.280  19.289  0.00  0.00    +0.000 C 
ATOM      5  C   UNL     1       7.005   5.592  18.640  0.00  0.00    +0.000 C 
ATOM      6  C   UNL     1       7.626   4.551  17.620  0.00  0.00    +0.000 C 
ATOM      7  C   UNL     1       7.062   4.934  16.194  0.00  0.00    +0.000 C 
ATOM      8  C   UNL     1       5.972   5.801  16.708  0.00  0.00    +0.000 C 
ATOM      9  C   UNL     1       4.624   6.339  16.352  0.00  0.00    +0.000 C 
ATOM     10  N   UNL     1       6.640   6.648  17.719  0.00  0.00    +0.000 NA
BRANCH  10  11
ATOM     11  C   UNL     1       7.747   7.524  17.378  0.00  0.00    +0.000 C 
BRANCH  11  12
ATOM     12  C   UNL     1       8.294   8.408  18.502  0.00  0.00    +0.000 C 
BRANCH  12  13
ATOM     13  C   UNL     1       8.444   9.829  17.937  0.00  0.00    +0.000 C 
BRANCH  13  14
ATOM     14  C   UNL     1       9.479  10.674  18.625  0.00  0.00    +0.000 A 
ATOM     15  C   UNL     1       9.432  10.867  20.012  0.00  0.00    +0.000 A 
ATOM     16  C   UNL     1      10.428  11.601  20.657  0.00  0.00    +0.000 A 
ATOM     17  C   UNL     1      11.475  12.154  19.921  0.00  0.00    +0.000 A 
ATOM     18  C   UNL     1      11.525  11.975  18.540  0.00  0.00    +0.000 A 
ATOM     19  C   UNL     1      10.530  11.241  17.894  0.00  0.00    +0.000 A 
ENDBRANCH  13  14
ENDBRANCH  12  13
ENDBRANCH  11  12
ENDBRANCH  10  11
ENDBRANCH   1   2
BRANCH   1  20
ATOM     20  C   UNL     1       1.999   8.253  18.369  0.00  0.00    +0.000 C 
BRANCH  20  21
ATOM     21  O   UNL     1       1.042   9.154  17.815  0.00  0.00    +0.000 OA
BRANCH  21  22
ATOM     22  C   UNL     1       0.356  10.086  18.676  0.00  0.00    +0.000 C 
BRANCH  22  27
ATOM     23  F   UNL     1      -4.877  11.234  16.797  0.00  0.00    +0.000 F 
ATOM     24  C   UNL     1      -3.653  10.951  17.262  0.00  0.00    +0.000 A 
ATOM     25  C   UNL     1      -2.843  10.063  16.573  0.00  0.00    +0.000 A 
ATOM     26  C   UNL     1      -1.550   9.775  17.038  0.00  0.00    +0.000 A 
ATOM     27  C   UNL     1      -1.072  10.379  18.213  0.00  0.00    +0.000 A 
ATOM     28  C   UNL     1      -1.938  11.248  18.907  0.00  0.00    +0.000 A 
ATOM     29  C   UNL     1      -3.210  11.550  18.429  0.00  0.00    +0.000 A 
ENDBRANCH  22  27
BRANCH  22  30
ATOM     30  C   UNL     1       1.238  11.266  19.085  0.00  0.00    +0.000 A 
ATOM     31  C   UNL     1       1.169  11.866  20.350  0.00  0.00    +0.000 A 
ATOM     32  C   UNL     1       1.790  13.093  20.584  0.00  0.00    +0.000 A 
ATOM     33  C   UNL     1       2.551  13.684  19.585  0.00  0.00    +0.000 A 
ATOM     34  F   UNL     1       3.025  14.925  19.768  0.00  0.00    +0.000 F 
ATOM     35  C   UNL     1       2.739  13.054  18.362  0.00  0.00    +0.000 A 
ATOM     36  C   UNL     1       2.082  11.846  18.110  0.00  0.00    +0.000 A 
ENDBRANCH  22  30
ENDBRANCH  21  22
ENDBRANCH  20  21
ENDBRANCH   1  20
TORSDOF 10
ENDMDL
MODEL 2
REMARK VINA RESULT:      -8.9      2.335      3.617
REMARK  Name = 
REMARK  10 active torsions:
REMARK  status: ('A' for Active; 'I' for Inactive)
REMARK    1  A    between atoms: C_5  and  C_6
REMARK    2  A    between atoms: C_6  and  O_7
REMARK    3  A    between atoms: C_6  and  C_28
REMARK    4  A    between atoms: O_7  and  C_8
REMARK    5  A    between atoms: C_8  and  C_9
REMARK    6  A    between atoms: C_9  and  N_10
REMARK    7  A    between atoms: N_18  and  C_19
REMARK    8  A    between atoms: C_19  and  C_20
REMARK    9  A    between atoms: C_20  and  C_21
REMARK   10  A    between atoms: C_21  and  C_22
REMARK                            x       y       z     vdW  Elec       q    Type
REMARK                         _______ _______ _______ _____ _____    ______ ____
ROOT
ATOM      1  C   UNL     1       2.607   7.174  18.291  0.00  0.00    +0.000 C 
ENDROOT
BRANCH   1   2
ATOM      2  N   UNL     1       2.540   5.861  18.956  0.00  0.00    +0.000 NA
ATOM      3  C   UNL     1       3.903   5.458  19.508  0.00  0.00    +0.000 C 
ATOM      4  C   UNL     1       4.359   3.946  19.826  0.00  0.00    +0.000 C 
ATOM      5  C   UNL     1       4.512   3.032  18.546  0.00  0.00    +0.000 C 
ATOM      6  C   UNL     1       3.630   1.720  18.430  0.00  0.00    +0.000 C 
ATOM      7  C   UNL     1       2.268   2.158  17.758  0.00  0.00    +0.000 C 
ATOM      8  C   UNL     1       2.462   3.611  17.992  0.00  0.00    +0.000 C 
ATOM      9  C   UNL     1       1.709   4.891  18.157  0.00  0.00    +0.000 C 
ATOM     10  N   UNL     1       3.853   3.857  17.555  0.00  0.00    +0.000 NA
BRANCH  10  11
ATOM     11  C   UNL     1       4.291   3.588  16.196  0.00  0.00    +0.000 C 
BRANCH  11  12
ATOM     12  C   UNL     1       5.138   4.672  15.522  0.00  0.00    +0.000 C 
BRANCH  12  13
ATOM     13  C   UNL     1       6.605   4.404  15.892  0.00  0.00    +0.000 C 
BRANCH  13  14
ATOM     14  C   UNL     1       7.177   5.342  16.917  0.00  0.00    +0.000 A 
ATOM     15  C   UNL     1       7.226   6.720  16.670  0.00  0.00    +0.000 A 
ATOM     16  C   UNL     1       7.701   7.595  17.648  0.00  0.00    +0.000 A 
ATOM     17  C   UNL     1       8.138   7.101  18.875  0.00  0.00    +0.000 A 
ATOM     18  C   UNL     1       8.103   5.730  19.126  0.00  0.00    +0.000 A 
ATOM     19  C   UNL     1       7.627   4.854  18.150  0.00  0.00    +0.000 A 
ENDBRANCH  13  14
ENDBRANCH  12  13
ENDBRANCH  11  12
ENDBRANCH  10  11
ENDBRANCH   1   2
BRANCH   1  20
ATOM     20  C   UNL     1       1.980   8.361  19.068  0.00  0.00    +0.000 C 
BRANCH  20  21
ATOM     21  O   UNL     1       1.160   9.257  18.319  0.00  0.00    +0.000 OA
BRANCH  21  22
ATOM     22  C   UNL     1       0.435  10.301  19.000  0.00  0.00    +0.000 C 
BRANCH  22  27
ATOM     23  F   UNL     1      -4.691  11.156  16.713  0.00  0.00    +0.000 F 
ATOM     24  C   UNL     1      -3.494  10.944  17.275  0.00  0.00    +0.000 A 
ATOM     25  C   UNL     1      -2.625  10.020  16.716  0.00  0.00    +0.000 A 
ATOM     26  C   UNL     1      -1.359   9.805  17.282  0.00  0.00    +0.000 A 
ATOM     27  C   UNL     1      -0.968  10.518  18.428  0.00  0.00    +0.000 A 
ATOM     28  C   UNL     1      -1.891  11.422  18.990  0.00  0.00    +0.000 A 
ATOM     29  C   UNL     1      -3.137  11.650  18.411  0.00  0.00    +0.000 A 
ENDBRANCH  22  27
BRANCH  22  30
ATOM     30  C   UNL     1       1.298  11.531  19.279  0.00  0.00    +0.000 A 
ATOM     31  C   UNL     1       1.298  12.198  20.512  0.00  0.00    +0.000 A 
ATOM     32  C   UNL     1       1.887  13.456  20.633  0.00  0.00    +0.000 A 
ATOM     33  C   UNL     1       2.552  14.016  19.550  0.00  0.00    +0.000 A 
ATOM     34  F   UNL     1       2.990  15.281  19.631  0.00  0.00    +0.000 F 
ATOM     35  C   UNL     1       2.675  13.325  18.352  0.00  0.00    +0.000 A 
ATOM     36  C   UNL     1       2.047  12.084  18.215  0.00  0.00    +0.000 A 
ENDBRANCH  22  30
ENDBRANCH  21  22
ENDBRANCH  20  21
ENDBRANCH   1  20
TORSDOF 10
ENDMDL
MODEL 3
REMARK VINA RESULT:      -8.8      4.626      9.142
REMARK  Name = 
REMARK  10 active torsions:
REMARK  status: ('A' for Active; 'I' for Inactive)
REMARK    1  A    between atoms: C_5  and  C_6
REMARK    2  A    between atoms: C_6  and  O_7
REMARK    3  A    between atoms: C_6  and  C_28
REMARK    4  A    between atoms: O_7  and  C_8
REMARK    5  A    between atoms: C_8  and  C_9
REMARK    6  A    between atoms: C_9  and  N_10
REMARK    7  A    between atoms: N_18  and  C_19
REMARK    8  A    between atoms: C_19  and  C_20
REMARK    9  A    between atoms: C_20  and  C_21
REMARK   10  A    between atoms: C_21  and  C_22
REMARK                            x       y       z     vdW  Elec       q    Type
REMARK                         _______ _______ _______ _____ _____    ______ ____
ROOT
ATOM      1  C   UNL     1       1.730   9.537  18.125  0.00  0.00    +0.000 C 
ENDROOT
BRANCH   1   2
ATOM      2  N   UNL     1       0.513   9.595  18.952  0.00  0.00    +0.000 NA
ATOM      3  C   UNL     1      -0.460  10.642  18.418  0.00  0.00    +0.000 C 
ATOM      4  C   UNL     1      -1.615  11.355  19.285  0.00  0.00    +0.000 C 
ATOM      5  C   UNL     1      -1.076  12.312  20.421  0.00  0.00    +0.000 C 
ATOM      6  C   UNL     1      -1.467  12.012  21.927  0.00  0.00    +0.000 C 
ATOM      7  C   UNL     1      -0.378  11.007  22.478  0.00  0.00    +0.000 C 
ATOM      8  C   UNL     1       0.146  10.629  21.142  0.00  0.00    +0.000 C 
ATOM      9  C   UNL     1       0.850   9.527  20.418  0.00  0.00    +0.000 C 
ATOM     10  N   UNL     1       0.319  11.924  20.450  0.00  0.00    +0.000 NA
BRANCH  10  11
ATOM     11  C   UNL     1       1.196  12.961  20.966  0.00  0.00    +0.000 C 
BRANCH  11  12
ATOM     12  C   UNL     1       0.818  14.407  20.633  0.00  0.00    +0.000 C 
BRANCH  12  13
ATOM     13  C   UNL     1       1.649  14.828  19.411  0.00  0.00    +0.000 C 
BRANCH  13  14
ATOM     14  C   UNL     1       1.113  16.018  18.666  0.00  0.00    +0.000 A 
ATOM     15  C   UNL     1       1.983  16.883  17.990  0.00  0.00    +0.000 A 
ATOM     16  C   UNL     1       1.478  17.953  17.248  0.00  0.00    +0.000 A 
ATOM     17  C   UNL     1       0.103  18.170  17.182  0.00  0.00    +0.000 A 
ATOM     18  C   UNL     1      -0.769  17.320  17.860  0.00  0.00    +0.000 A 
ATOM     19  C   UNL     1      -0.267  16.250  18.601  0.00  0.00    +0.000 A 
ENDBRANCH  13  14
ENDBRANCH  12  13
ENDBRANCH  11  12
ENDBRANCH  10  11
ENDBRANCH   1   2
BRANCH   1  20
ATOM     20  C   UNL     1       2.085   8.146  17.536  0.00  0.00    +0.000 C 
BRANCH  20  21
ATOM     21  O   UNL     1       2.800   7.251  18.386  0.00  0.00    +0.000 OA
BRANCH  21  22
ATOM     22  C   UNL     1       2.930   5.864  18.016  0.00  0.00    +0.000 C 
BRANCH  22  27
ATOM     23  F   UNL     1       0.784   2.389  21.960  0.00  0.00    +0.000 F 
ATOM     24  C   UNL     1       1.315   3.197  21.033  0.00  0.00    +0.000 A 
ATOM     25  C   UNL     1       0.916   3.085  19.711  0.00  0.00    +0.000 A 
ATOM     26  C   UNL     1       1.448   3.940  18.734  0.00  0.00    +0.000 A 
ATOM     27  C   UNL     1       2.399   4.912  19.089  0.00  0.00    +0.000 A 
ATOM     28  C   UNL     1       2.808   4.973  20.436  0.00  0.00    +0.000 A 
ATOM     29  C   UNL     1       2.259   4.138  21.406  0.00  0.00    +0.000 A 
ENDBRANCH  22  27
BRANCH  22  30
ATOM     30  C   UNL     1       4.285   5.550  17.380  0.00  0.00    +0.000 A 
ATOM     31  C   UNL     1       5.369   6.437  17.420  0.00  0.00    +0.000 A 
ATOM     32  C   UNL     1       6.483   6.228  16.606  0.00  0.00    +0.000 A 
ATOM     33  C   UNL     1       6.556   5.091  15.814  0.00  0.00    +0.000 A 
ATOM     34  F   UNL     1       7.559   4.968  14.932  0.00  0.00    +0.000 F 
ATOM     35  C   UNL     1       5.553   4.131  15.846  0.00  0.00    +0.000 A 
ATOM     36  C   UNL     1       4.416   4.361  16.627  0.00  0.00    +0.000 A 
ENDBRANCH  22  30
ENDBRANCH  21  22
ENDBRANCH  20  21
ENDBRANCH   1  20
TORSDOF 10
ENDMDL
MODEL 4
REMARK VINA RESULT:      -8.8      3.185      4.388
REMARK  Name = 
REMARK  10 active torsions:
REMARK  status: ('A' for Active; 'I' for Inactive)
REMARK    1  A    between atoms: C_5  and  C_6
REMARK    2  A    between atoms: C_6  and  O_7
REMARK    3  A    between atoms: C_6  and  C_28
REMARK    4  A    between atoms: O_7  and  C_8
REMARK    5  A    between atoms: C_8  and  C_9
REMARK    6  A    between atoms: C_9  and  N_10
REMARK    7  A    between atoms: N_18  and  C_19
REMARK    8  A    between atoms: C_19  and  C_20
REMARK    9  A    between atoms: C_20  and  C_21
REMARK   10  A    between atoms: C_21  and  C_22
REMARK                            x       y       z     vdW  Elec       q    Type
REMARK                         _______ _______ _______ _____ _____    ______ ____
ROOT
ATOM      1  C   UNL     1       2.228   7.508  19.608  0.00  0.00    +0.000 C 
ENDROOT
BRANCH   1   2
ATOM      2  N   UNL     1       1.786   6.154  19.229  0.00  0.00    +0.000 NA
ATOM      3  C   UNL     1       1.733   5.237  20.446  0.00  0.00    +0.000 C 
ATOM      4  C   UNL     1       1.804   3.628  20.391  0.00  0.00    +0.000 C 
ATOM      5  C   UNL     1       3.198   3.056  19.914  0.00  0.00    +0.000 C 
ATOM      6  C   UNL     1       3.250   2.142  18.620  0.00  0.00    +0.000 C 
ATOM      7  C   UNL     1       3.411   3.122  17.390  0.00  0.00    +0.000 C 
ATOM      8  C   UNL     1       3.022   4.344  18.137  0.00  0.00    +0.000 C 
ATOM      9  C   UNL     1       2.444   5.708  17.950  0.00  0.00    +0.000 C 
ATOM     10  N   UNL     1       3.808   4.259  19.387  0.00  0.00    +0.000 NA
BRANCH  10  11
ATOM     11  C   UNL     1       5.260   4.216  19.381  0.00  0.00    +0.000 C 
BRANCH  11  12
ATOM     12  C   UNL     1       5.987   5.563  19.405  0.00  0.00    +0.000 C 
BRANCH  12  13
ATOM     13  C   UNL     1       7.062   5.524  18.308  0.00  0.00    +0.000 C 
BRANCH  13  14
ATOM     14  C   UNL     1       6.538   5.279  16.921  0.00  0.00    +0.000 A 
ATOM     15  C   UNL     1       5.656   6.190  16.324  0.00  0.00    +0.000 A 
ATOM     16  C   UNL     1       5.219   5.992  15.013  0.00  0.00    +0.000 A 
ATOM     17  C   UNL     1       5.652   4.881  14.293  0.00  0.00    +0.000 A 
ATOM     18  C   UNL     1       6.521   3.964  14.883  0.00  0.00    +0.000 A 
ATOM     19  C   UNL     1       6.960   4.160  16.192  0.00  0.00    +0.000 A 
ENDBRANCH  13  14
ENDBRANCH  12  13
ENDBRANCH  11  12
ENDBRANCH  10  11
ENDBRANCH   1   2
BRANCH   1  20
ATOM     20  C   UNL     1       2.311   8.543  18.456  0.00  0.00    +0.000 C 
BRANCH  20  21
ATOM     21  O   UNL     1       1.076   9.076  17.980  0.00  0.00    +0.000 OA
BRANCH  21  22
ATOM     22  C   UNL     1       0.384  10.076  18.754  0.00  0.00    +0.000 C 
BRANCH  22  27
ATOM     23  F   UNL     1      -4.901  11.106  16.953  0.00  0.00    +0.000 F 
ATOM     24  C   UNL     1      -3.645  10.874  17.354  0.00  0.00    +0.000 A 
ATOM     25  C   UNL     1      -3.137  11.549  18.453  0.00  0.00    +0.000 A 
ATOM     26  C   UNL     1      -1.830  11.298  18.898  0.00  0.00    +0.000 A 
ATOM     27  C   UNL     1      -1.022  10.367  18.223  0.00  0.00    +0.000 A 
ATOM     28  C   UNL     1      -1.559   9.727  17.089  0.00  0.00    +0.000 A 
ATOM     29  C   UNL     1      -2.865   9.961  16.667  0.00  0.00    +0.000 A 
ENDBRANCH  22  27
BRANCH  22  30
ATOM     30  C   UNL     1       1.278  11.262  19.115  0.00  0.00    +0.000 A 
ATOM     31  C   UNL     1       1.310  11.828  20.397  0.00  0.00    +0.000 A 
ATOM     32  C   UNL     1       1.928  13.061  20.609  0.00  0.00    +0.000 A 
ATOM     33  C   UNL     1       2.588  13.692  19.563  0.00  0.00    +0.000 A 
ATOM     34  F   UNL     1       3.054  14.937  19.738  0.00  0.00    +0.000 F 
ATOM     35  C   UNL     1       2.678  13.097  18.312  0.00  0.00    +0.000 A 
ATOM     36  C   UNL     1       2.022  11.883  18.087  0.00  0.00    +0.000 A 
ENDBRANCH  22  30
ENDBRANCH  21  22
ENDBRANCH  20  21
ENDBRANCH   1  20
TORSDOF 10
ENDMDL
MODEL 5
REMARK VINA RESULT:      -8.8      4.551     10.588
REMARK  Name = 
REMARK  10 active torsions:
REMARK  status: ('A' for Active; 'I' for Inactive)
REMARK    1  A    between atoms: C_5  and  C_6
REMARK    2  A    between atoms: C_6  and  O_7
REMARK    3  A    between atoms: C_6  and  C_28
REMARK    4  A    between atoms: O_7  and  C_8
REMARK    5  A    between atoms: C_8  and  C_9
REMARK    6  A    between atoms: C_9  and  N_10
REMARK    7  A    between atoms: N_18  and  C_19
REMARK    8  A    between atoms: C_19  and  C_20
REMARK    9  A    between atoms: C_20  and  C_21
REMARK   10  A    between atoms: C_21  and  C_22
REMARK                            x       y       z     vdW  Elec       q    Type
REMARK                         _______ _______ _______ _____ _____    ______ ____
ROOT
ATOM      1  C   UNL     1       1.657   9.249  17.727  0.00  0.00    +0.000 C 
ENDROOT
BRANCH   1   2
ATOM      2  N   UNL     1       1.549  10.148  18.889  0.00  0.00    +0.000 NA
ATOM      3  C   UNL     1       0.525   9.625  19.890  0.00  0.00    +0.000 C 
ATOM      4  C   UNL     1      -0.239  10.527  20.985  0.00  0.00    +0.000 C 
ATOM      5  C   UNL     1      -1.249  11.575  20.371  0.00  0.00    +0.000 C 
ATOM      6  C   UNL     1      -1.028  13.117  20.665  0.00  0.00    +0.000 C 
ATOM      7  C   UNL     1      -0.046  13.647  19.546  0.00  0.00    +0.000 C 
ATOM      8  C   UNL     1       0.403  12.301  19.110  0.00  0.00    +0.000 C 
ATOM      9  C   UNL     1       1.544  11.591  18.458  0.00  0.00    +0.000 C 
ATOM     10  N   UNL     1      -0.854  11.534  18.978  0.00  0.00    +0.000 NA
BRANCH  10  11
ATOM     11  C   UNL     1      -1.910  11.940  18.066  0.00  0.00    +0.000 C 
BRANCH  11  12
ATOM     12  C   UNL     1      -2.926  10.864  17.672  0.00  0.00    +0.000 C 
BRANCH  12  13
ATOM     13  C   UNL     1      -4.259  11.574  17.389  0.00  0.00    +0.000 C 
BRANCH  13  14
ATOM     14  C   UNL     1      -5.228  11.573  18.538  0.00  0.00    +0.000 A 
ATOM     15  C   UNL     1      -6.315  10.690  18.550  0.00  0.00    +0.000 A 
ATOM     16  C   UNL     1      -7.178  10.649  19.646  0.00  0.00    +0.000 A 
ATOM     17  C   UNL     1      -6.967  11.495  20.733  0.00  0.00    +0.000 A 
ATOM     18  C   UNL     1      -5.894  12.385  20.725  0.00  0.00    +0.000 A 
ATOM     19  C   UNL     1      -5.030  12.426  19.631  0.00  0.00    +0.000 A 
ENDBRANCH  13  14
ENDBRANCH  12  13
ENDBRANCH  11  12
ENDBRANCH  10  11
ENDBRANCH   1   2
BRANCH   1  20
ATOM     20  C   UNL     1       2.846   8.252  17.749  0.00  0.00    +0.000 C 
BRANCH  20  21
ATOM     21  O   UNL     1       2.797   7.215  18.727  0.00  0.00    +0.000 OA
BRANCH  21  22
ATOM     22  C   UNL     1       2.955   5.841  18.322  0.00  0.00    +0.000 C 
BRANCH  22  27
ATOM     23  F   UNL     1       0.825   2.123  22.046  0.00  0.00    +0.000 F 
ATOM     24  C   UNL     1       1.302   3.011  21.165  0.00  0.00    +0.000 A 
ATOM     25  C   UNL     1       2.205   3.977  21.581  0.00  0.00    +0.000 A 
ATOM     26  C   UNL     1       2.730   4.899  20.662  0.00  0.00    +0.000 A 
ATOM     27  C   UNL     1       2.334   4.855  19.314  0.00  0.00    +0.000 A 
ATOM     28  C   UNL     1       1.387   3.883  18.936  0.00  0.00    +0.000 A 
ATOM     29  C   UNL     1       0.888   2.955  19.845  0.00  0.00    +0.000 A 
ENDBRANCH  22  27
BRANCH  22  30
ATOM     30  C   UNL     1       4.357   5.542  17.790  0.00  0.00    +0.000 A 
ATOM     31  C   UNL     1       4.589   4.742  16.662  0.00  0.00    +0.000 A 
ATOM     32  C   UNL     1       5.874   4.280  16.377  0.00  0.00    +0.000 A 
ATOM     33  C   UNL     1       6.944   4.683  17.164  0.00  0.00    +0.000 A 
ATOM     34  F   UNL     1       8.147   4.125  16.971  0.00  0.00    +0.000 F 
ATOM     35  C   UNL     1       6.763   5.574  18.214  0.00  0.00    +0.000 A 
ATOM     36  C   UNL     1       5.470   6.002  18.529  0.00  0.00    +0.000 A 
ENDBRANCH  22  30
ENDBRANCH  21  22
ENDBRANCH  20  21
ENDBRANCH   1  20
TORSDOF 10
ENDMDL
MODEL 6
REMARK VINA RESULT:      -8.7      4.679     10.750
REMARK  Name = 
REMARK  10 active torsions:
REMARK  status: ('A' for Active; 'I' for Inactive)
REMARK    1  A    between atoms: C_5  and  C_6
REMARK    2  A    between atoms: C_6  and  O_7
REMARK    3  A    between atoms: C_6  and  C_28
REMARK    4  A    between atoms: O_7  and  C_8
REMARK    5  A    between atoms: C_8  and  C_9
REMARK    6  A    between atoms: C_9  and  N_10
REMARK    7  A    between atoms: N_18  and  C_19
REMARK    8  A    between atoms: C_19  and  C_20
REMARK    9  A    between atoms: C_20  and  C_21
REMARK   10  A    between atoms: C_21  and  C_22
REMARK                            x       y       z     vdW  Elec       q    Type
REMARK                         _______ _______ _______ _____ _____    ______ ____
ROOT
ATOM      1  C   UNL     1       1.211   8.821  18.629  0.00  0.00    +0.000 C 
ENDROOT
BRANCH   1   2
ATOM      2  N   UNL     1       1.068  10.036  19.450  0.00  0.00    +0.000 NA
ATOM      3  C   UNL     1      -0.112   9.911  20.407  0.00  0.00    +0.000 C 
ATOM      4  C   UNL     1      -0.895  11.152  21.073  0.00  0.00    +0.000 C 
ATOM      5  C   UNL     1      -1.713  12.029  20.045  0.00  0.00    +0.000 C 
ATOM      6  C   UNL     1      -1.365  13.569  19.903  0.00  0.00    +0.000 C 
ATOM      7  C   UNL     1      -0.213  13.668  18.826  0.00  0.00    +0.000 C 
ATOM      8  C   UNL     1       0.138  12.226  18.870  0.00  0.00    +0.000 C 
ATOM      9  C   UNL     1       1.264  11.277  18.619  0.00  0.00    +0.000 C 
ATOM     10  N   UNL     1      -1.170  11.541  18.794  0.00  0.00    +0.000 NA
BRANCH  10  11
ATOM     11  C   UNL     1      -2.068  11.720  17.666  0.00  0.00    +0.000 C 
BRANCH  11  12
ATOM     12  C   UNL     1      -2.973  10.536  17.316  0.00  0.00    +0.000 C 
BRANCH  12  13
ATOM     13  C   UNL     1      -4.184  11.094  16.551  0.00  0.00    +0.000 C 
BRANCH  13  14
ATOM     14  C   UNL     1      -5.333  11.523  17.419  0.00  0.00    +0.000 A 
ATOM     15  C   UNL     1      -6.052  12.688  17.122  0.00  0.00    +0.000 A 
ATOM     16  C   UNL     1      -7.157  13.052  17.893  0.00  0.00    +0.000 A 
ATOM     17  C   UNL     1      -7.547  12.260  18.971  0.00  0.00    +0.000 A 
ATOM     18  C   UNL     1      -6.831  11.104  19.281  0.00  0.00    +0.000 A 
ATOM     19  C   UNL     1      -5.727  10.739  18.510  0.00  0.00    +0.000 A 
ENDBRANCH  13  14
ENDBRANCH  12  13
ENDBRANCH  11  12
ENDBRANCH  10  11
ENDBRANCH   1   2
BRANCH   1  20
ATOM     20  C   UNL     1       2.152   7.726  19.195  0.00  0.00    +0.000 C 
BRANCH  20  21
ATOM     21  O   UNL     1       3.171   7.239  18.322  0.00  0.00    +0.000 OA
BRANCH  21  22
ATOM     22  C   UNL     1       3.171   5.853  17.926  0.00  0.00    +0.000 C 
BRANCH  22  27
ATOM     23  F   UNL     1       0.775   2.518  21.847  0.00  0.00    +0.000 F 
ATOM     24  C   UNL     1       1.364   3.290  20.924  0.00  0.00    +0.000 A 
ATOM     25  C   UNL     1       0.897   3.280  19.619  0.00  0.00    +0.000 A 
ATOM     26  C   UNL     1       1.490   4.102  18.647  0.00  0.00    +0.000 A 
ATOM     27  C   UNL     1       2.570   4.933  18.990  0.00  0.00    +0.000 A 
ATOM     28  C   UNL     1       3.041   4.889  20.317  0.00  0.00    +0.000 A 
ATOM     29  C   UNL     1       2.434   4.091  21.283  0.00  0.00    +0.000 A 
ENDBRANCH  22  27
BRANCH  22  30
ATOM     30  C   UNL     1       4.483   5.431  17.264  0.00  0.00    +0.000 A 
ATOM     31  C   UNL     1       5.631   6.235  17.268  0.00  0.00    +0.000 A 
ATOM     32  C   UNL     1       6.706   5.933  16.433  0.00  0.00    +0.000 A 
ATOM     33  C   UNL     1       6.676   4.785  15.654  0.00  0.00    +0.000 A 
ATOM     34  F   UNL     1       7.646   4.577  14.751  0.00  0.00    +0.000 F 
ATOM     35  C   UNL     1       5.604   3.904  15.720  0.00  0.00    +0.000 A 
ATOM     36  C   UNL     1       4.507   4.227  16.524  0.00  0.00    +0.000 A 
ENDBRANCH  22  30
ENDBRANCH  21  22
ENDBRANCH  20  21
ENDBRANCH   1  20
TORSDOF 10
ENDMDL
MODEL 7
REMARK VINA RESULT:      -8.7      4.119     10.416
REMARK  Name = 
REMARK  10 active torsions:
REMARK  status: ('A' for Active; 'I' for Inactive)
REMARK    1  A    between atoms: C_5  and  C_6
REMARK    2  A    between atoms: C_6  and  O_7
REMARK    3  A    between atoms: C_6  and  C_28
REMARK    4  A    between atoms: O_7  and  C_8
REMARK    5  A    between atoms: C_8  and  C_9
REMARK    6  A    between atoms: C_9  and  N_10
REMARK    7  A    between atoms: N_18  and  C_19
REMARK    8  A    between atoms: C_19  and  C_20
REMARK    9  A    between atoms: C_20  and  C_21
REMARK   10  A    between atoms: C_21  and  C_22
REMARK                            x       y       z     vdW  Elec       q    Type
REMARK                         _______ _______ _______ _____ _____    ______ ____
ROOT
ATOM      1  C   UNL     1       1.384   8.190  19.799  0.00  0.00    +0.000 C 
ENDROOT
BRANCH   1   2
ATOM      2  N   UNL     1       1.132   9.595  20.165  0.00  0.00    +0.000 NA
ATOM      3  C   UNL     1      -0.166   9.729  20.954  0.00  0.00    +0.000 C 
ATOM      4  C   UNL     1      -1.031  11.082  21.084  0.00  0.00    +0.000 C 
ATOM      5  C   UNL     1      -1.703  11.554  19.734  0.00  0.00    +0.000 C 
ATOM      6  C   UNL     1      -1.340  12.983  19.154  0.00  0.00    +0.000 C 
ATOM      7  C   UNL     1      -0.053  12.785  18.257  0.00  0.00    +0.000 C 
ATOM      8  C   UNL     1       0.289  11.448  18.803  0.00  0.00    +0.000 C 
ATOM      9  C   UNL     1       1.438  10.517  19.014  0.00  0.00    +0.000 C 
ATOM     10  N   UNL     1      -0.997  10.719  18.784  0.00  0.00    +0.000 NA
BRANCH  10  11
ATOM     11  C   UNL     1      -1.736  10.493  17.553  0.00  0.00    +0.000 C 
BRANCH  11  12
ATOM     12  C   UNL     1      -3.181  10.008  17.700  0.00  0.00    +0.000 C 
BRANCH  12  13
ATOM     13  C   UNL     1      -4.058  10.904  16.811  0.00  0.00    +0.000 C 
BRANCH  13  14
ATOM     14  C   UNL     1      -5.299  11.429  17.477  0.00  0.00    +0.000 A 
ATOM     15  C   UNL     1      -5.845  10.766  18.585  0.00  0.00    +0.000 A 
ATOM     16  C   UNL     1      -6.962  11.289  19.239  0.00  0.00    +0.000 A 
ATOM     17  C   UNL     1      -7.545  12.471  18.788  0.00  0.00    +0.000 A 
ATOM     18  C   UNL     1      -7.015  13.132  17.681  0.00  0.00    +0.000 A 
ATOM     19  C   UNL     1      -5.898  12.612  17.026  0.00  0.00    +0.000 A 
ENDBRANCH  13  14
ENDBRANCH  12  13
ENDBRANCH  11  12
ENDBRANCH  10  11
ENDBRANCH   1   2
BRANCH   1  20
ATOM     20  C   UNL     1       2.498   7.952  18.747  0.00  0.00    +0.000 C 
BRANCH  20  21
ATOM     21  O   UNL     1       2.290   6.887  17.821  0.00  0.00    +0.000 OA
BRANCH  21  22
ATOM     22  C   UNL     1       2.986   5.637  18.000  0.00  0.00    +0.000 C 
BRANCH  22  27
ATOM     23  F   UNL     1       0.807   2.309  22.050  0.00  0.00    +0.000 F 
ATOM     24  C   UNL     1       1.296   3.105  21.090  0.00  0.00    +0.000 A 
ATOM     25  C   UNL     1       2.186   4.115  21.420  0.00  0.00    +0.000 A 
ATOM     26  C   UNL     1       2.723   4.940  20.420  0.00  0.00    +0.000 A 
ATOM     27  C   UNL     1       2.353   4.755  19.077  0.00  0.00    +0.000 A 
ATOM     28  C   UNL     1       1.418   3.742  18.785  0.00  0.00    +0.000 A 
ATOM     29  C   UNL     1       0.907   2.910  19.776  0.00  0.00    +0.000 A 
ENDBRANCH  22  27
BRANCH  22  30
ATOM     30  C   UNL     1       4.506   5.807  18.008  0.00  0.00    +0.000 A 
ATOM     31  C   UNL     1       5.335   5.191  18.956  0.00  0.00    +0.000 A 
ATOM     32  C   UNL     1       6.667   5.584  19.089  0.00  0.00    +0.000 A 
ATOM     33  C   UNL     1       7.199   6.531  18.224  0.00  0.00    +0.000 A 
ATOM     34  F   UNL     1       8.432   7.006  18.448  0.00  0.00    +0.000 F 
ATOM     35  C   UNL     1       6.435   7.068  17.196  0.00  0.00    +0.000 A 
ATOM     36  C   UNL     1       5.088   6.709  17.089  0.00  0.00    +0.000 A 
ENDBRANCH  22  30
ENDBRANCH  21  22
ENDBRANCH  20  21
ENDBRANCH   1  20
TORSDOF 10
ENDMDL
MODEL 8
REMARK VINA RESULT:      -8.5      4.862      9.644
REMARK  Name = 
REMARK  10 active torsions:
REMARK  status: ('A' for Active; 'I' for Inactive)
REMARK    1  A    between atoms: C_5  and  C_6
REMARK    2  A    between atoms: C_6  and  O_7
REMARK    3  A    between atoms: C_6  and  C_28
REMARK    4  A    between atoms: O_7  and  C_8
REMARK    5  A    between atoms: C_8  and  C_9
REMARK    6  A    between atoms: C_9  and  N_10
REMARK    7  A    between atoms: N_18  and  C_19
REMARK    8  A    between atoms: C_19  and  C_20
REMARK    9  A    between atoms: C_20  and  C_21
REMARK   10  A    between atoms: C_21  and  C_22
REMARK                            x       y       z     vdW  Elec       q    Type
REMARK                         _______ _______ _______ _____ _____    ______ ____
ROOT
ATOM      1  C   UNL     1       0.985   9.260  17.841  0.00  0.00    +0.000 C 
ENDROOT
BRANCH   1   2
ATOM      2  N   UNL     1      -0.109   9.781  18.679  0.00  0.00    +0.000 NA
ATOM      3  C   UNL     1      -0.867  10.890  17.958  0.00  0.00    +0.000 C 
ATOM      4  C   UNL     1      -1.751  12.025  18.683  0.00  0.00    +0.000 C 
ATOM      5  C   UNL     1      -0.911  13.046  19.548  0.00  0.00    +0.000 C 
ATOM      6  C   UNL     1      -1.221  13.175  21.097  0.00  0.00    +0.000 C 
ATOM      7  C   UNL     1      -0.339  12.082  21.820  0.00  0.00    +0.000 C 
ATOM      8  C   UNL     1      -0.036  11.314  20.587  0.00  0.00    +0.000 C 
ATOM      9  C   UNL     1       0.336   9.949  20.108  0.00  0.00    +0.000 C 
ATOM     10  N   UNL     1       0.359  12.353  19.612  0.00  0.00    +0.000 NA
BRANCH  10  11
ATOM     11  C   UNL     1       1.488  13.237  19.844  0.00  0.00    +0.000 C 
BRANCH  11  12
ATOM     12  C   UNL     1       1.721  14.338  18.805  0.00  0.00    +0.000 C 
BRANCH  12  13
ATOM     13  C   UNL     1       1.406  15.681  19.483  0.00  0.00    +0.000 C 
BRANCH  13  14
ATOM     14  C   UNL     1       0.869  16.740  18.562  0.00  0.00    +0.000 A 
ATOM     15  C   UNL     1       1.707  17.361  17.627  0.00  0.00    +0.000 A 
ATOM     16  C   UNL     1       1.192  18.300  16.732  0.00  0.00    +0.000 A 
ATOM     17  C   UNL     1      -0.161  18.631  16.769  0.00  0.00    +0.000 A 
ATOM     18  C   UNL     1      -1.001  18.026  17.703  0.00  0.00    +0.000 A 
ATOM     19  C   UNL     1      -0.488  17.086  18.598  0.00  0.00    +0.000 A 
ENDBRANCH  13  14
ENDBRANCH  12  13
ENDBRANCH  11  12
ENDBRANCH  10  11
ENDBRANCH   1   2
BRANCH   1  20
ATOM     20  C   UNL     1       2.126   8.526  18.593  0.00  0.00    +0.000 C 
BRANCH  20  21
ATOM     21  O   UNL     1       3.063   7.805  17.794  0.00  0.00    +0.000 OA
BRANCH  21  22
ATOM     22  C   UNL     1       3.649   6.590  18.302  0.00  0.00    +0.000 C 
BRANCH  22  27
ATOM     23  F   UNL     1       7.815   4.581  15.009  0.00  0.00    +0.000 F 
ATOM     24  C   UNL     1       6.814   5.040  15.771  0.00  0.00    +0.000 A 
ATOM     25  C   UNL     1       6.740   4.673  17.105  0.00  0.00    +0.000 A 
ATOM     26  C   UNL     1       5.709   5.166  17.920  0.00  0.00    +0.000 A 
ATOM     27  C   UNL     1       4.737   6.028  17.384  0.00  0.00    +0.000 A 
ATOM     28  C   UNL     1       4.824   6.351  16.015  0.00  0.00    +0.000 A 
ATOM     29  C   UNL     1       5.863   5.879  15.217  0.00  0.00    +0.000 A 
ENDBRANCH  22  27
BRANCH  22  30
ATOM     30  C   UNL     1       2.605   5.621  18.859  0.00  0.00    +0.000 A 
ATOM     31  C   UNL     1       2.318   5.515  20.226  0.00  0.00    +0.000 A 
ATOM     32  C   UNL     1       1.565   4.445  20.708  0.00  0.00    +0.000 A 
ATOM     33  C   UNL     1       1.026   3.524  19.821  0.00  0.00    +0.000 A 
ATOM     34  F   UNL     1       0.427   2.424  20.299  0.00  0.00    +0.000 F 
ATOM     35  C   UNL     1       1.190   3.671  18.450  0.00  0.00    +0.000 A 
ATOM     36  C   UNL     1       1.981   4.719  17.968  0.00  0.00    +0.000 A 
ENDBRANCH  22  30
ENDBRANCH  21  22
ENDBRANCH  20  21
ENDBRANCH   1  20
TORSDOF 10
ENDMDL
MODEL 9
REMARK VINA RESULT:      -8.4      3.877      5.899
REMARK  Name = 
REMARK  10 active torsions:
REMARK  status: ('A' for Active; 'I' for Inactive)
REMARK    1  A    between atoms: C_5  and  C_6
REMARK    2  A    between atoms: C_6  and  O_7
REMARK    3  A    between atoms: C_6  and  C_28
REMARK    4  A    between atoms: O_7  and  C_8
REMARK    5  A    between atoms: C_8  and  C_9
REMARK    6  A    between atoms: C_9  and  N_10
REMARK    7  A    between atoms: N_18  and  C_19
REMARK    8  A    between atoms: C_19  and  C_20
REMARK    9  A    between atoms: C_20  and  C_21
REMARK   10  A    between atoms: C_21  and  C_22
REMARK                            x       y       z     vdW  Elec       q    Type
REMARK                         _______ _______ _______ _____ _____    ______ ____
ROOT
ATOM      1  C   UNL     1       2.479   7.643  19.142  0.00  0.00    +0.000 C 
ENDROOT
BRANCH   1   2
ATOM      2  N   UNL     1       1.745   6.365  19.148  0.00  0.00    +0.000 NA
ATOM      3  C   UNL     1       1.797   5.713  20.525  0.00  0.00    +0.000 C 
ATOM      4  C   UNL     1       1.582   4.142  20.810  0.00  0.00    +0.000 C 
ATOM      5  C   UNL     1       2.726   3.216  20.235  0.00  0.00    +0.000 C 
ATOM      6  C   UNL     1       2.347   2.094  19.181  0.00  0.00    +0.000 C 
ATOM      7  C   UNL     1       2.407   2.781  17.759  0.00  0.00    +0.000 C 
ATOM      8  C   UNL     1       2.397   4.171  18.279  0.00  0.00    +0.000 C 
ATOM      9  C   UNL     1       2.032   5.570  17.902  0.00  0.00    +0.000 C 
ATOM     10  N   UNL     1       3.404   4.151  19.361  0.00  0.00    +0.000 NA
BRANCH  10  11
ATOM     11  C   UNL     1       4.793   3.805  19.113  0.00  0.00    +0.000 C 
BRANCH  11  12
ATOM     12  C   UNL     1       5.799   4.960  19.119  0.00  0.00    +0.000 C 
BRANCH  12  13
ATOM     13  C   UNL     1       5.466   5.864  17.922  0.00  0.00    +0.000 C 
BRANCH  13  14
ATOM     14  C   UNL     1       5.859   5.306  16.583  0.00  0.00    +0.000 A 
ATOM     15  C   UNL     1       4.898   4.731  15.743  0.00  0.00    +0.000 A 
ATOM     16  C   UNL     1       5.255   4.269  14.475  0.00  0.00    +0.000 A 
ATOM     17  C   UNL     1       6.575   4.372  14.041  0.00  0.00    +0.000 A 
ATOM     18  C   UNL     1       7.541   4.934  14.874  0.00  0.00    +0.000 A 
ATOM     19  C   UNL     1       7.185   5.396  16.141  0.00  0.00    +0.000 A 
ENDBRANCH  13  14
ENDBRANCH  12  13
ENDBRANCH  11  12
ENDBRANCH  10  11
ENDBRANCH   1   2
BRANCH   1  20
ATOM     20  C   UNL     1       2.051   8.667  18.059  0.00  0.00    +0.000 C 
BRANCH  20  21
ATOM     21  O   UNL     1       0.650   8.864  17.878  0.00  0.00    +0.000 OA
BRANCH  21  22
ATOM     22  C   UNL     1      -0.022   9.918  18.596  0.00  0.00    +0.000 C 
BRANCH  22  27
ATOM     23  F   UNL     1       0.222   9.363  24.241  0.00  0.00    +0.000 F 
ATOM     24  C   UNL     1       0.192   9.490  22.908  0.00  0.00    +0.000 A 
ATOM     25  C   UNL     1      -0.447   8.531  22.139  0.00  0.00    +0.000 A 
ATOM     26  C   UNL     1      -0.506   8.665  20.743  0.00  0.00    +0.000 A 
ATOM     27  C   UNL     1       0.094   9.770  20.114  0.00  0.00    +0.000 A 
ATOM     28  C   UNL     1       0.766  10.705  20.925  0.00  0.00    +0.000 A 
ATOM     29  C   UNL     1       0.800  10.581  22.311  0.00  0.00    +0.000 A 
ENDBRANCH  22  27
BRANCH  22  30
ATOM     30  C   UNL     1      -1.394  10.248  18.006  0.00  0.00    +0.000 A 
ATOM     31  C   UNL     1      -1.827   9.761  16.766  0.00  0.00    +0.000 A 
ATOM     32  C   UNL     1      -2.959  10.298  16.153  0.00  0.00    +0.000 A 
ATOM     33  C   UNL     1      -3.710  11.262  16.811  0.00  0.00    +0.000 A 
ATOM     34  F   UNL     1      -4.710  11.874  16.160  0.00  0.00    +0.000 F 
ATOM     35  C   UNL     1      -3.375  11.676  18.094  0.00  0.00    +0.000 A 
ATOM     36  C   UNL     1      -2.216  11.171  18.691  0.00  0.00    +0.000 A 
ENDBRANCH  22  30
ENDBRANCH  21  22
ENDBRANCH  20  21
ENDBRANCH   1  20
TORSDOF 10
ENDMDL
