MODEL 1
REMARK VINA RESULT:      -7.0      0.000      0.000
REMARK  Name = 
REMARK  9 active torsions:
REMARK  status: ('A' for Active; 'I' for Inactive)
REMARK    1  A    between atoms: C_1  and  C_2
REMARK    2  A    between atoms: C_2  and  N_3
REMARK    3  A    between atoms: C_6  and  S_7
REMARK    4  A    between atoms: S_7  and  C_8
REMARK    5  A    between atoms: C_8  and  C_9
REMARK    6  A    between atoms: C_9  and  O_10
REMARK    7  A    between atoms: O_10  and  C_11
REMARK    8  A    between atoms: N_19  and  C_20
REMARK    9  A    between atoms: N_19  and  C_21
REMARK                            x       y       z     vdW  Elec       q    Type
REMARK                         _______ _______ _______ _____ _____    ______ ____
ROOT
ATOM      1  N   UNL     1       1.709   7.627  20.706  0.00  0.00    +0.000 N 
ATOM      2  C   UNL     1       2.274   6.678  19.864  0.00  0.00    +0.000 A 
ATOM      3  N   UNL     1       3.061   7.048  18.868  0.00  0.00    +0.000 NA
ATOM      4  C   UNL     1       3.572   6.044  18.171  0.00  0.00    +0.000 A 
ATOM      5  N   UNL     1       3.346   4.755  18.387  0.00  0.00    +0.000 NA
ATOM      6  C   UNL     1       2.533   4.468  19.397  0.00  0.00    +0.000 A 
ATOM      7  N   UNL     1       2.221   3.149  19.643  0.00  0.00    +0.000 N 
ATOM      8  C   UNL     1       1.379   2.788  20.771  0.00  0.00    +0.000 C 
ATOM      9  C   UNL     1       3.025   2.091  19.055  0.00  0.00    +0.000 C 
ATOM     10  N   UNL     1       1.974   5.418  20.148  0.00  0.00    +0.000 NA
ATOM     11  H   UNL     1       0.917   7.186  21.163  0.00  0.00    +0.000 HD
ENDROOT
BRANCH   1  13
ATOM     12  C   UNL     1       0.288   9.591  20.814  0.00  0.00    +0.000 C 
ATOM     13  C   UNL     1       1.474   8.935  20.126  0.00  0.00    +0.000 C 
ENDBRANCH   1  13
BRANCH   4  14
ATOM     14  S   UNL     1       4.773   6.450  16.928  0.00  0.00    +0.000 S 
BRANCH  14  15
ATOM     15  C   UNL     1       6.292   5.858  17.748  0.00  0.00    +0.000 C 
BRANCH  15  16
ATOM     16  C   UNL     1       6.997   4.867  16.814  0.00  0.00    +0.000 C 
BRANCH  16  17
ATOM     17  O   UNL     1       7.493   5.548  15.654  0.00  0.00    +0.000 OA
BRANCH  17  18
ATOM     18  C   UNL     1       7.176   4.960  14.454  0.00  0.00    +0.000 A 
ATOM     19  C   UNL     1       6.152   4.010  14.497  0.00  0.00    +0.000 A 
ATOM     20  C   UNL     1       5.749   3.343  13.333  0.00  0.00    +0.000 A 
ATOM     21  C   UNL     1       6.358   3.640  12.114  0.00  0.00    +0.000 A 
ATOM     22  C   UNL     1       7.360   4.605  12.060  0.00  0.00    +0.000 A 
ATOM     23  C   UNL     1       7.766   5.265  13.225  0.00  0.00    +0.000 A 
ENDBRANCH  17  18
ENDBRANCH  16  17
ENDBRANCH  15  16
ENDBRANCH  14  15
ENDBRANCH   4  14
TORSDOF 6
ENDMDL
MODEL 2
REMARK VINA RESULT:      -7.0      0.738      1.258
REMARK  Name = 
REMARK  9 active torsions:
REMARK  status: ('A' for Active; 'I' for Inactive)
REMARK    1  A    between atoms: C_1  and  C_2
REMARK    2  A    between atoms: C_2  and  N_3
REMARK    3  A    between atoms: C_6  and  S_7
REMARK    4  A    between atoms: S_7  and  C_8
REMARK    5  A    between atoms: C_8  and  C_9
REMARK    6  A    between atoms: C_9  and  O_10
REMARK    7  A    between atoms: O_10  and  C_11
REMARK    8  A    between atoms: N_19  and  C_20
REMARK    9  A    between atoms: N_19  and  C_21
REMARK                            x       y       z     vdW  Elec       q    Type
REMARK                         _______ _______ _______ _____ _____    ______ ____
ROOT
ATOM      1  N   UNL     1       1.710   6.747  21.080  0.00  0.00    +0.000 N 
ATOM      2  C   UNL     1       2.206   6.121  19.944  0.00  0.00    +0.000 A 
ATOM      3  N   UNL     1       2.877   6.811  19.036  0.00  0.00    +0.000 NA
ATOM      4  C   UNL     1       3.335   6.086  18.026  0.00  0.00    +0.000 A 
ATOM      5  N   UNL     1       3.163   4.781  17.866  0.00  0.00    +0.000 NA
ATOM      6  C   UNL     1       2.467   4.165  18.814  0.00  0.00    +0.000 A 
ATOM      7  N   UNL     1       2.213   2.817  18.682  0.00  0.00    +0.000 N 
ATOM      8  C   UNL     1       1.501   2.095  19.722  0.00  0.00    +0.000 C 
ATOM      9  C   UNL     1       2.975   2.025  17.732  0.00  0.00    +0.000 C 
ATOM     10  N   UNL     1       1.967   4.819  19.864  0.00  0.00    +0.000 NA
ATOM     11  H   UNL     1       0.980   6.149  21.455  0.00  0.00    +0.000 HD
ENDROOT
BRANCH   1  13
ATOM     12  C   UNL     1      -0.035   8.397  21.423  0.00  0.00    +0.000 C 
ATOM     13  C   UNL     1       1.386   8.153  20.943  0.00  0.00    +0.000 C 
ENDBRANCH   1  13
BRANCH   4  14
ATOM     14  S   UNL     1       4.391   6.905  16.856  0.00  0.00    +0.000 S 
BRANCH  14  15
ATOM     15  C   UNL     1       6.024   6.392  17.488  0.00  0.00    +0.000 C 
BRANCH  15  16
ATOM     16  C   UNL     1       6.479   5.148  16.715  0.00  0.00    +0.000 C 
BRANCH  16  17
ATOM     17  O   UNL     1       7.347   5.526  15.638  0.00  0.00    +0.000 OA
BRANCH  17  18
ATOM     18  C   UNL     1       7.074   4.927  14.432  0.00  0.00    +0.000 A 
ATOM     19  C   UNL     1       7.828   5.381  13.346  0.00  0.00    +0.000 A 
ATOM     20  C   UNL     1       7.630   4.846  12.068  0.00  0.00    +0.000 A 
ATOM     21  C   UNL     1       6.688   3.837  11.873  0.00  0.00    +0.000 A 
ATOM     22  C   UNL     1       5.952   3.361  12.956  0.00  0.00    +0.000 A 
ATOM     23  C   UNL     1       6.146   3.902  14.232  0.00  0.00    +0.000 A 
ENDBRANCH  17  18
ENDBRANCH  16  17
ENDBRANCH  15  16
ENDBRANCH  14  15
ENDBRANCH   4  14
TORSDOF 6
ENDMDL
MODEL 3
REMARK VINA RESULT:      -6.9      2.936      7.244
REMARK  Name = 
REMARK  9 active torsions:
REMARK  status: ('A' for Active; 'I' for Inactive)
REMARK    1  A    between atoms: C_1  and  C_2
REMARK    2  A    between atoms: C_2  and  N_3
REMARK    3  A    between atoms: C_6  and  S_7
REMARK    4  A    between atoms: S_7  and  C_8
REMARK    5  A    between atoms: C_8  and  C_9
REMARK    6  A    between atoms: C_9  and  O_10
REMARK    7  A    between atoms: O_10  and  C_11
REMARK    8  A    between atoms: N_19  and  C_20
REMARK    9  A    between atoms: N_19  and  C_21
REMARK                            x       y       z     vdW  Elec       q    Type
REMARK                         _______ _______ _______ _____ _____    ______ ____
ROOT
ATOM      1  N   UNL     1       7.619   7.065  16.798  0.00  0.00    +0.000 N 
ATOM      2  C   UNL     1       6.951   5.930  16.359  0.00  0.00    +0.000 A 
ATOM      3  N   UNL     1       6.160   5.258  17.179  0.00  0.00    +0.000 NA
ATOM      4  C   UNL     1       5.547   4.223  16.623  0.00  0.00    +0.000 A 
ATOM      5  N   UNL     1       5.677   3.829  15.363  0.00  0.00    +0.000 NA
ATOM      6  C   UNL     1       6.499   4.550  14.610  0.00  0.00    +0.000 A 
ATOM      7  N   UNL     1       6.714   4.163  13.305  0.00  0.00    +0.000 N 
ATOM      8  C   UNL     1       7.565   4.954  12.432  0.00  0.00    +0.000 C 
ATOM      9  C   UNL     1       5.809   3.222  12.668  0.00  0.00    +0.000 C 
ATOM     10  N   UNL     1       7.159   5.605  15.091  0.00  0.00    +0.000 NA
ATOM     11  H   UNL     1       8.389   7.224  16.156  0.00  0.00    +0.000 HD
ENDROOT
BRANCH   1  13
ATOM     12  C   UNL     1       8.510   8.476  18.560  0.00  0.00    +0.000 C 
ATOM     13  C   UNL     1       7.936   7.112  18.212  0.00  0.00    +0.000 C 
ENDBRANCH   1  13
BRANCH   4  14
ATOM     14  S   UNL     1       4.337   3.374  17.608  0.00  0.00    +0.000 S 
BRANCH  14  15
ATOM     15  C   UNL     1       2.944   4.545  17.482  0.00  0.00    +0.000 C 
BRANCH  15  16
ATOM     16  C   UNL     1       3.112   5.622  18.562  0.00  0.00    +0.000 C 
BRANCH  16  17
ATOM     17  O   UNL     1       3.124   6.924  17.962  0.00  0.00    +0.000 OA
BRANCH  17  18
ATOM     18  C   UNL     1       2.295   7.846  18.555  0.00  0.00    +0.000 A 
ATOM     19  C   UNL     1       2.018   7.629  19.907  0.00  0.00    +0.000 A 
ATOM     20  C   UNL     1       1.180   8.502  20.611  0.00  0.00    +0.000 A 
ATOM     21  C   UNL     1       0.631   9.611  19.969  0.00  0.00    +0.000 A 
ATOM     22  C   UNL     1       0.926   9.848  18.629  0.00  0.00    +0.000 A 
ATOM     23  C   UNL     1       1.757   8.970  17.924  0.00  0.00    +0.000 A 
ENDBRANCH  17  18
ENDBRANCH  16  17
ENDBRANCH  15  16
ENDBRANCH  14  15
ENDBRANCH   4  14
TORSDOF 6
ENDMDL
MODEL 4
REMARK VINA RESULT:      -6.7      3.056      6.957
REMARK  Name = 
REMARK  9 active torsions:
REMARK  status: ('A' for Active; 'I' for Inactive)
REMARK    1  A    between atoms: C_1  and  C_2
REMARK    2  A    between atoms: C_2  and  N_3
REMARK    3  A    between atoms: C_6  and  S_7
REMARK    4  A    between atoms: S_7  and  C_8
REMARK    5  A    between atoms: C_8  and  C_9
REMARK    6  A    between atoms: C_9  and  O_10
REMARK    7  A    between atoms: O_10  and  C_11
REMARK    8  A    between atoms: N_19  and  C_20
REMARK    9  A    between atoms: N_19  and  C_21
REMARK                            x       y       z     vdW  Elec       q    Type
REMARK                         _______ _______ _______ _____ _____    ______ ____
ROOT
ATOM      1  N   UNL     1       7.901   8.109  17.358  0.00  0.00    +0.000 N 
ATOM      2  C   UNL     1       7.276   6.873  17.261  0.00  0.00    +0.000 A 
ATOM      3  N   UNL     1       6.668   6.344  18.309  0.00  0.00    +0.000 NA
ATOM      4  C   UNL     1       6.072   5.185  18.070  0.00  0.00    +0.000 A 
ATOM      5  N   UNL     1       6.058   4.545  16.908  0.00  0.00    +0.000 NA
ATOM      6  C   UNL     1       6.703   5.136  15.910  0.00  0.00    +0.000 A 
ATOM      7  N   UNL     1       6.766   4.498  14.690  0.00  0.00    +0.000 N 
ATOM      8  C   UNL     1       7.416   5.135  13.558  0.00  0.00    +0.000 C 
ATOM      9  C   UNL     1       5.863   3.398  14.399  0.00  0.00    +0.000 C 
ATOM     10  N   UNL     1       7.332   6.302  16.065  0.00  0.00    +0.000 NA
ATOM     11  H   UNL     1       8.558   8.173  16.586  0.00  0.00    +0.000 HD
ENDROOT
BRANCH   1  13
ATOM     12  C   UNL     1       8.836   9.925  18.669  0.00  0.00    +0.000 C 
ATOM     13  C   UNL     1       8.407   8.466  18.668  0.00  0.00    +0.000 C 
ENDBRANCH   1  13
BRANCH   4  14
ATOM     14  S   UNL     1       5.089   4.495  19.378  0.00  0.00    +0.000 S 
BRANCH  14  15
ATOM     15  C   UNL     1       3.631   3.949  18.426  0.00  0.00    +0.000 C 
BRANCH  15  16
ATOM     16  C   UNL     1       2.658   5.128  18.302  0.00  0.00    +0.000 C 
BRANCH  16  17
ATOM     17  O   UNL     1       2.683   5.917  19.500  0.00  0.00    +0.000 OA
BRANCH  17  18
ATOM     18  C   UNL     1       2.191   7.192  19.368  0.00  0.00    +0.000 A 
ATOM     19  C   UNL     1       2.280   7.746  18.087  0.00  0.00    +0.000 A 
ATOM     20  C   UNL     1       1.815   9.043  17.838  0.00  0.00    +0.000 A 
ATOM     21  C   UNL     1       1.238   9.786  18.867  0.00  0.00    +0.000 A 
ATOM     22  C   UNL     1       1.122   9.230  20.139  0.00  0.00    +0.000 A 
ATOM     23  C   UNL     1       1.594   7.937  20.388  0.00  0.00    +0.000 A 
ENDBRANCH  17  18
ENDBRANCH  16  17
ENDBRANCH  15  16
ENDBRANCH  14  15
ENDBRANCH   4  14
TORSDOF 6
ENDMDL
MODEL 5
REMARK VINA RESULT:      -6.6      4.608      7.229
REMARK  Name = 
REMARK  9 active torsions:
REMARK  status: ('A' for Active; 'I' for Inactive)
REMARK    1  A    between atoms: C_1  and  C_2
REMARK    2  A    between atoms: C_2  and  N_3
REMARK    3  A    between atoms: C_6  and  S_7
REMARK    4  A    between atoms: S_7  and  C_8
REMARK    5  A    between atoms: C_8  and  C_9
REMARK    6  A    between atoms: C_9  and  O_10
REMARK    7  A    between atoms: O_10  and  C_11
REMARK    8  A    between atoms: N_19  and  C_20
REMARK    9  A    between atoms: N_19  and  C_21
REMARK                            x       y       z     vdW  Elec       q    Type
REMARK                         _______ _______ _______ _____ _____    ______ ____
ROOT
ATOM      1  N   UNL     1       5.364   4.586  14.644  0.00  0.00    +0.000 N 
ATOM      2  C   UNL     1       5.420   4.878  16.000  0.00  0.00    +0.000 A 
ATOM      3  N   UNL     1       6.529   5.355  16.540  0.00  0.00    +0.000 NA
ATOM      4  C   UNL     1       6.435   5.636  17.831  0.00  0.00    +0.000 A 
ATOM      5  N   UNL     1       5.356   5.467  18.585  0.00  0.00    +0.000 NA
ATOM      6  C   UNL     1       4.289   4.971  17.970  0.00  0.00    +0.000 A 
ATOM      7  N   UNL     1       3.151   4.728  18.710  0.00  0.00    +0.000 N 
ATOM      8  C   UNL     1       1.945   4.237  18.066  0.00  0.00    +0.000 C 
ATOM      9  C   UNL     1       3.001   5.320  20.027  0.00  0.00    +0.000 C 
ATOM     10  N   UNL     1       4.299   4.658  16.674  0.00  0.00    +0.000 NA
ATOM     11  H   UNL     1       4.584   3.951  14.508  0.00  0.00    +0.000 HD
ENDROOT
BRANCH   1  13
ATOM     12  C   UNL     1       6.345   3.593  12.659  0.00  0.00    +0.000 C 
ATOM     13  C   UNL     1       6.618   4.211  14.021  0.00  0.00    +0.000 C 
ENDBRANCH   1  13
BRANCH   4  14
ATOM     14  S   UNL     1       7.825   6.439  18.589  0.00  0.00    +0.000 S 
BRANCH  14  15
ATOM     15  C   UNL     1       7.821   8.016  17.671  0.00  0.00    +0.000 C 
BRANCH  15  16
ATOM     16  C   UNL     1       8.479   9.091  18.544  0.00  0.00    +0.000 C 
BRANCH  16  17
ATOM     17  O   UNL     1       8.723  10.274  17.771  0.00  0.00    +0.000 OA
BRANCH  17  18
ATOM     18  C   UNL     1       9.327  11.302  18.453  0.00  0.00    +0.000 A 
ATOM     19  C   UNL     1      10.091  10.925  19.562  0.00  0.00    +0.000 A 
ATOM     20  C   UNL     1      10.748  11.891  20.335  0.00  0.00    +0.000 A 
ATOM     21  C   UNL     1      10.660  13.238  19.989  0.00  0.00    +0.000 A 
ATOM     22  C   UNL     1       9.924  13.617  18.869  0.00  0.00    +0.000 A 
ATOM     23  C   UNL     1       9.261  12.652  18.102  0.00  0.00    +0.000 A 
ENDBRANCH  17  18
ENDBRANCH  16  17
ENDBRANCH  15  16
ENDBRANCH  14  15
ENDBRANCH   4  14
TORSDOF 6
ENDMDL
MODEL 6
REMARK VINA RESULT:      -6.5      1.544      1.652
REMARK  Name = 
REMARK  9 active torsions:
REMARK  status: ('A' for Active; 'I' for Inactive)
REMARK    1  A    between atoms: C_1  and  C_2
REMARK    2  A    between atoms: C_2  and  N_3
REMARK    3  A    between atoms: C_6  and  S_7
REMARK    4  A    between atoms: S_7  and  C_8
REMARK    5  A    between atoms: C_8  and  C_9
REMARK    6  A    between atoms: C_9  and  O_10
REMARK    7  A    between atoms: O_10  and  C_11
REMARK    8  A    between atoms: N_19  and  C_20
REMARK    9  A    between atoms: N_19  and  C_21
REMARK                            x       y       z     vdW  Elec       q    Type
REMARK                         _______ _______ _______ _____ _____    ______ ____
ROOT
ATOM      1  N   UNL     1       2.083   7.124  18.474  0.00  0.00    +0.000 N 
ATOM      2  C   UNL     1       2.939   6.034  18.564  0.00  0.00    +0.000 A 
ATOM      3  N   UNL     1       4.247   6.213  18.639  0.00  0.00    +0.000 NA
ATOM      4  C   UNL     1       4.946   5.095  18.768  0.00  0.00    +0.000 A 
ATOM      5  N   UNL     1       4.446   3.867  18.810  0.00  0.00    +0.000 NA
ATOM      6  C   UNL     1       3.126   3.774  18.715  0.00  0.00    +0.000 A 
ATOM      7  N   UNL     1       2.548   2.522  18.704  0.00  0.00    +0.000 N 
ATOM      8  C   UNL     1       1.104   2.377  18.655  0.00  0.00    +0.000 C 
ATOM      9  C   UNL     1       3.313   1.367  19.141  0.00  0.00    +0.000 C 
ATOM     10  N   UNL     1       2.347   4.848  18.580  0.00  0.00    +0.000 NA
ATOM     11  H   UNL     1       1.201   6.781  18.105  0.00  0.00    +0.000 HD
ENDROOT
BRANCH   1  13
ATOM     12  C   UNL     1       1.635   9.457  17.980  0.00  0.00    +0.000 C 
ATOM     13  C   UNL     1       2.627   8.312  17.848  0.00  0.00    +0.000 C 
ENDBRANCH   1  13
BRANCH   4  14
ATOM     14  S   UNL     1       6.692   5.260  19.049  0.00  0.00    +0.000 S 
BRANCH  14  15
ATOM     15  C   UNL     1       7.329   4.713  17.429  0.00  0.00    +0.000 C 
BRANCH  15  16
ATOM     16  C   UNL     1       7.363   5.920  16.484  0.00  0.00    +0.000 C 
BRANCH  16  17
ATOM     17  O   UNL     1       6.241   5.880  15.591  0.00  0.00    +0.000 OA
BRANCH  17  18
ATOM     18  C   UNL     1       6.437   5.155  14.441  0.00  0.00    +0.000 A 
ATOM     19  C   UNL     1       5.450   4.211  14.146  0.00  0.00    +0.000 A 
ATOM     20  C   UNL     1       5.550   3.411  13.000  0.00  0.00    +0.000 A 
ATOM     21  C   UNL     1       6.630   3.567  12.133  0.00  0.00    +0.000 A 
ATOM     22  C   UNL     1       7.603   4.525  12.408  0.00  0.00    +0.000 A 
ATOM     23  C   UNL     1       7.506   5.319  13.556  0.00  0.00    +0.000 A 
ENDBRANCH  17  18
ENDBRANCH  16  17
ENDBRANCH  15  16
ENDBRANCH  14  15
ENDBRANCH   4  14
TORSDOF 6
ENDMDL
MODEL 7
REMARK VINA RESULT:      -6.5      4.893      7.451
REMARK  Name = 
REMARK  9 active torsions:
REMARK  status: ('A' for Active; 'I' for Inactive)
REMARK    1  A    between atoms: C_1  and  C_2
REMARK    2  A    between atoms: C_2  and  N_3
REMARK    3  A    between atoms: C_6  and  S_7
REMARK    4  A    between atoms: S_7  and  C_8
REMARK    5  A    between atoms: C_8  and  C_9
REMARK    6  A    between atoms: C_9  and  O_10
REMARK    7  A    between atoms: O_10  and  C_11
REMARK    8  A    between atoms: N_19  and  C_20
REMARK    9  A    between atoms: N_19  and  C_21
REMARK                            x       y       z     vdW  Elec       q    Type
REMARK                         _______ _______ _______ _____ _____    ______ ____
ROOT
ATOM      1  N   UNL     1       4.435   3.273  17.948  0.00  0.00    +0.000 N 
ATOM      2  C   UNL     1       5.372   4.128  17.383  0.00  0.00    +0.000 A 
ATOM      3  N   UNL     1       6.042   4.983  18.137  0.00  0.00    +0.000 NA
ATOM      4  C   UNL     1       6.938   5.706  17.482  0.00  0.00    +0.000 A 
ATOM      5  N   UNL     1       7.188   5.640  16.181  0.00  0.00    +0.000 NA
ATOM      6  C   UNL     1       6.464   4.766  15.493  0.00  0.00    +0.000 A 
ATOM      7  N   UNL     1       6.642   4.684  14.129  0.00  0.00    +0.000 N 
ATOM      8  C   UNL     1       5.909   3.704  13.347  0.00  0.00    +0.000 C 
ATOM      9  C   UNL     1       7.822   5.269  13.515  0.00  0.00    +0.000 C 
ATOM     10  N   UNL     1       5.538   4.001  16.073  0.00  0.00    +0.000 NA
ATOM     11  H   UNL     1       3.829   2.958  17.197  0.00  0.00    +0.000 HD
ENDROOT
BRANCH   1  13
ATOM     12  C   UNL     1       2.293   3.926  18.883  0.00  0.00    +0.000 C 
ATOM     13  C   UNL     1       3.780   3.751  19.149  0.00  0.00    +0.000 C 
ENDBRANCH   1  13
BRANCH   4  14
ATOM     14  S   UNL     1       7.997   6.754  18.450  0.00  0.00    +0.000 S 
BRANCH  14  15
ATOM     15  C   UNL     1       7.859   8.308  17.504  0.00  0.00    +0.000 C 
BRANCH  15  16
ATOM     16  C   UNL     1       8.335   9.464  18.391  0.00  0.00    +0.000 C 
BRANCH  16  17
ATOM     17  O   UNL     1       9.310  10.252  17.695  0.00  0.00    +0.000 OA
BRANCH  17  18
ATOM     18  C   UNL     1       9.968  11.179  18.466  0.00  0.00    +0.000 A 
ATOM     19  C   UNL     1      10.422  12.315  17.790  0.00  0.00    +0.000 A 
ATOM     20  C   UNL     1      11.111  13.323  18.476  0.00  0.00    +0.000 A 
ATOM     21  C   UNL     1      11.332  13.207  19.848  0.00  0.00    +0.000 A 
ATOM     22  C   UNL     1      10.858  12.091  20.531  0.00  0.00    +0.000 A 
ATOM     23  C   UNL     1      10.176  11.081  19.844  0.00  0.00    +0.000 A 
ENDBRANCH  17  18
ENDBRANCH  16  17
ENDBRANCH  15  16
ENDBRANCH  14  15
ENDBRANCH   4  14
TORSDOF 6
ENDMDL
MODEL 8
REMARK VINA RESULT:      -6.5      3.069      6.808
REMARK  Name = 
REMARK  9 active torsions:
REMARK  status: ('A' for Active; 'I' for Inactive)
REMARK    1  A    between atoms: C_1  and  C_2
REMARK    2  A    between atoms: C_2  and  N_3
REMARK    3  A    between atoms: C_6  and  S_7
REMARK    4  A    between atoms: S_7  and  C_8
REMARK    5  A    between atoms: C_8  and  C_9
REMARK    6  A    between atoms: C_9  and  O_10
REMARK    7  A    between atoms: O_10  and  C_11
REMARK    8  A    between atoms: N_19  and  C_20
REMARK    9  A    between atoms: N_19  and  C_21
REMARK                            x       y       z     vdW  Elec       q    Type
REMARK                         _______ _______ _______ _____ _____    ______ ____
ROOT
ATOM      1  N   UNL     1       7.696   7.563  17.105  0.00  0.00    +0.000 N 
ATOM      2  C   UNL     1       7.145   6.327  16.792  0.00  0.00    +0.000 A 
ATOM      3  N   UNL     1       6.529   5.613  17.720  0.00  0.00    +0.000 NA
ATOM      4  C   UNL     1       6.008   4.477  17.280  0.00  0.00    +0.000 A 
ATOM      5  N   UNL     1       6.070   4.025  16.034  0.00  0.00    +0.000 NA
ATOM      6  C   UNL     1       6.717   4.795  15.168  0.00  0.00    +0.000 A 
ATOM      7  N   UNL     1       6.859   4.358  13.868  0.00  0.00    +0.000 N 
ATOM      8  C   UNL     1       7.513   5.194  12.877  0.00  0.00    +0.000 C 
ATOM      9  C   UNL     1       6.029   3.274  13.373  0.00  0.00    +0.000 C 
ATOM     10  N   UNL     1       7.275   5.953  15.527  0.00  0.00    +0.000 NA
ATOM     11  H   UNL     1       8.376   7.777  16.382  0.00  0.00    +0.000 HD
ENDROOT
BRANCH   1  13
ATOM     12  C   UNL     1       8.666   9.148  18.665  0.00  0.00    +0.000 C 
ATOM     13  C   UNL     1       8.135   7.736  18.476  0.00  0.00    +0.000 C 
ENDBRANCH   1  13
BRANCH   4  14
ATOM     14  S   UNL     1       5.018   3.545  18.422  0.00  0.00    +0.000 S 
BRANCH  14  15
ATOM     15  C   UNL     1       3.796   2.828  17.273  0.00  0.00    +0.000 C 
BRANCH  15  16
ATOM     16  C   UNL     1       2.553   2.418  18.073  0.00  0.00    +0.000 C 
BRANCH  16  17
ATOM     17  O   UNL     1       1.520   3.400  17.917  0.00  0.00    +0.000 OA
BRANCH  17  18
ATOM     18  C   UNL     1       1.766   4.607  18.525  0.00  0.00    +0.000 A 
ATOM     19  C   UNL     1       1.577   4.636  19.910  0.00  0.00    +0.000 A 
ATOM     20  C   UNL     1       1.794   5.815  20.634  0.00  0.00    +0.000 A 
ATOM     21  C   UNL     1       2.221   6.967  19.976  0.00  0.00    +0.000 A 
ATOM     22  C   UNL     1       2.436   6.938  18.601  0.00  0.00    +0.000 A 
ATOM     23  C   UNL     1       2.213   5.761  17.878  0.00  0.00    +0.000 A 
ENDBRANCH  17  18
ENDBRANCH  16  17
ENDBRANCH  15  16
ENDBRANCH  14  15
ENDBRANCH   4  14
TORSDOF 6
ENDMDL
MODEL 9
REMARK VINA RESULT:      -6.4      3.385      7.779
REMARK  Name = 
REMARK  9 active torsions:
REMARK  status: ('A' for Active; 'I' for Inactive)
REMARK    1  A    between atoms: C_1  and  C_2
REMARK    2  A    between atoms: C_2  and  N_3
REMARK    3  A    between atoms: C_6  and  S_7
REMARK    4  A    between atoms: S_7  and  C_8
REMARK    5  A    between atoms: C_8  and  C_9
REMARK    6  A    between atoms: C_9  and  O_10
REMARK    7  A    between atoms: O_10  and  C_11
REMARK    8  A    between atoms: N_19  and  C_20
REMARK    9  A    between atoms: N_19  and  C_21
REMARK                            x       y       z     vdW  Elec       q    Type
REMARK                         _______ _______ _______ _____ _____    ______ ____
ROOT
ATOM      1  N   UNL     1       3.189   3.361  19.281  0.00  0.00    +0.000 N 
ATOM      2  C   UNL     1       3.633   4.561  18.741  0.00  0.00    +0.000 A 
ATOM      3  N   UNL     1       2.801   5.579  18.594  0.00  0.00    +0.000 NA
ATOM      4  C   UNL     1       3.361   6.679  18.113  0.00  0.00    +0.000 A 
ATOM      5  N   UNL     1       4.636   6.815  17.773  0.00  0.00    +0.000 NA
ATOM      6  C   UNL     1       5.400   5.743  17.938  0.00  0.00    +0.000 A 
ATOM      7  N   UNL     1       6.724   5.807  17.558  0.00  0.00    +0.000 N 
ATOM      8  C   UNL     1       7.607   4.673  17.772  0.00  0.00    +0.000 C 
ATOM      9  C   UNL     1       7.350   7.096  17.323  0.00  0.00    +0.000 C 
ATOM     10  N   UNL     1       4.917   4.595  18.414  0.00  0.00    +0.000 NA
ATOM     11  H   UNL     1       3.856   2.646  19.007  0.00  0.00    +0.000 HD
ENDROOT
BRANCH   1  13
ATOM     12  C   UNL     1       1.068   3.036  20.413  0.00  0.00    +0.000 C 
ATOM     13  C   UNL     1       1.788   3.049  19.075  0.00  0.00    +0.000 C 
ENDBRANCH   1  13
BRANCH   4  14
ATOM     14  S   UNL     1       2.353   8.139  18.049  0.00  0.00    +0.000 S 
BRANCH  14  15
ATOM     15  C   UNL     1       1.734   8.176  19.765  0.00  0.00    +0.000 C 
BRANCH  15  16
ATOM     16  C   UNL     1       0.901   9.448  19.957  0.00  0.00    +0.000 C 
BRANCH  16  17
ATOM     17  O   UNL     1       0.691  10.097  18.696  0.00  0.00    +0.000 OA
BRANCH  17  18
ATOM     18  C   UNL     1      -0.617  10.403  18.408  0.00  0.00    +0.000 A 
ATOM     19  C   UNL     1      -1.162  11.467  19.132  0.00  0.00    +0.000 A 
ATOM     20  C   UNL     1      -2.489  11.863  18.925  0.00  0.00    +0.000 A 
ATOM     21  C   UNL     1      -3.272  11.208  17.976  0.00  0.00    +0.000 A 
ATOM     22  C   UNL     1      -2.726  10.165  17.232  0.00  0.00    +0.000 A 
ATOM     23  C   UNL     1      -1.402   9.765  17.445  0.00  0.00    +0.000 A 
ENDBRANCH  17  18
ENDBRANCH  16  17
ENDBRANCH  15  16
ENDBRANCH  14  15
ENDBRANCH   4  14
TORSDOF 6
ENDMDL
