MODEL 1
REMARK VINA RESULT:      -7.2      0.000      0.000
REMARK  Name = 
REMARK  12 active torsions:
REMARK  status: ('A' for Active; 'I' for Inactive)
REMARK    1  A    between atoms: C_1  and  C_2
REMARK    2  A    between atoms: C_2  and  O_3
REMARK    3  A    between atoms: C_2  and  C_4
REMARK    4  A    between atoms: C_6  and  O_7
REMARK    5  A    between atoms: O_7  and  C_8
REMARK    6  A    between atoms: C_9  and  N_10
REMARK    7  A    between atoms: C_12  and  N_13
REMARK    8  A    between atoms: C_14  and  O_15
REMARK    9  A    between atoms: C_16  and  O_17
REMARK   10  A    between atoms: C_18  and  N_19
REMARK   11  A    between atoms: C_20  and  O_21
REMARK   12  A    between atoms: C_22  and  O_23
REMARK                            x       y       z     vdW  Elec       q    Type
REMARK                         _______ _______ _______ _____ _____    ______ ____
ROOT
ATOM      1  C   UNL     1       6.173   5.945  16.876  0.00  0.00    +0.000 C 
ATOM      2  O   UNL     1       6.293   4.623  17.428  0.00  0.00    +0.000 OA
ATOM      3  C   UNL     1       6.439   4.591  18.851  0.00  0.00    +0.000 C 
ATOM      4  C   UNL     1       7.747   5.362  19.222  0.00  0.00    +0.000 C 
ATOM      5  C   UNL     1       7.584   6.826  18.773  0.00  0.00    +0.000 C 
ATOM      6  C   UNL     1       7.336   6.867  17.256  0.00  0.00    +0.000 C 
ENDROOT
BRANCH   4   7
ATOM      7  N   UNL     1       8.182   5.267  20.631  0.00  0.00    +0.000 NA
ATOM      8  H   UNL     1       9.188   5.085  20.649  0.00  0.00    +0.000 HD
ATOM      9  H   UNL     1       7.778   4.425  21.044  0.00  0.00    +0.000 HD
ENDBRANCH   4   7
BRANCH   1  11
ATOM     10  C   UNL     1       5.385   4.455  14.926  0.00  0.00    +0.000 C 
ATOM     11  C   UNL     1       6.010   5.785  15.348  0.00  0.00    +0.000 C 
BRANCH  11  12
ATOM     12  O   UNL     1       5.140   6.833  14.889  0.00  0.00    +0.000 OA
ATOM     13  H   UNL     1       5.691   7.390  14.303  0.00  0.00    +0.000 HD
ENDBRANCH  11  12
ENDBRANCH   1  11
BRANCH   5  14
ATOM     14  O   UNL     1       8.748   7.609  19.087  0.00  0.00    +0.000 OA
ATOM     15  H   UNL     1       9.339   7.067  19.640  0.00  0.00    +0.000 HD
ENDBRANCH   5  14
BRANCH   6  16
ATOM     16  O   UNL     1       7.045   8.199  16.823  0.00  0.00    +0.000 OA
ATOM     17  H   UNL     1       7.856   8.730  16.932  0.00  0.00    +0.000 HD
ENDBRANCH   6  16
BRANCH   3  18
ATOM     18  O   UNL     1       5.293   5.137  19.511  0.00  0.00    +0.000 OA
BRANCH  18  19
ATOM     19  C   UNL     1       3.998   4.670  19.030  0.00  0.00    +0.000 C 
ATOM     20  C   UNL     1       2.940   5.349  19.951  0.00  0.00    +0.000 C 
ATOM     21  C   UNL     1       1.514   4.814  19.792  0.00  0.00    +0.000 C 
ATOM     22  C   UNL     1       1.485   3.294  19.933  0.00  0.00    +0.000 C 
ATOM     23  C   UNL     1       2.390   2.674  18.851  0.00  0.00    +0.000 C 
ATOM     24  C   UNL     1       3.852   3.130  19.028  0.00  0.00    +0.000 C 
BRANCH  20  25
ATOM     25  N   UNL     1       2.908   6.809  19.748  0.00  0.00    +0.000 NA
ATOM     26  H   UNL     1       3.571   7.083  19.025  0.00  0.00    +0.000 HD
ATOM     27  H   UNL     1       3.236   7.254  20.607  0.00  0.00    +0.000 HD
ENDBRANCH  20  25
BRANCH  22  28
ATOM     28  N   UNL     1       0.113   2.780  19.856  0.00  0.00    +0.000 NA
ATOM     29  H   UNL     1       0.033   2.085  19.107  0.00  0.00    +0.000 HD
ATOM     30  H   UNL     1      -0.529   3.530  19.607  0.00  0.00    +0.000 HD
ENDBRANCH  22  28
BRANCH  23  31
ATOM     31  O   UNL     1       2.349   1.242  18.872  0.00  0.00    +0.000 OA
ATOM     32  H   UNL     1       1.792   0.976  19.628  0.00  0.00    +0.000 HD
ENDBRANCH  23  31
BRANCH  24  33
ATOM     33  O   UNL     1       4.643   2.582  17.956  0.00  0.00    +0.000 OA
ATOM     34  H   UNL     1       4.744   1.625  18.099  0.00  0.00    +0.000 HD
ENDBRANCH  24  33
ENDBRANCH  18  19
ENDBRANCH   3  18
TORSDOF 11
ENDMDL
MODEL 2
REMARK VINA RESULT:      -7.0      1.565      1.657
REMARK  Name = 
REMARK  12 active torsions:
REMARK  status: ('A' for Active; 'I' for Inactive)
REMARK    1  A    between atoms: C_1  and  C_2
REMARK    2  A    between atoms: C_2  and  O_3
REMARK    3  A    between atoms: C_2  and  C_4
REMARK    4  A    between atoms: C_6  and  O_7
REMARK    5  A    between atoms: O_7  and  C_8
REMARK    6  A    between atoms: C_9  and  N_10
REMARK    7  A    between atoms: C_12  and  N_13
REMARK    8  A    between atoms: C_14  and  O_15
REMARK    9  A    between atoms: C_16  and  O_17
REMARK   10  A    between atoms: C_18  and  N_19
REMARK   11  A    between atoms: C_20  and  O_21
REMARK   12  A    between atoms: C_22  and  O_23
REMARK                            x       y       z     vdW  Elec       q    Type
REMARK                         _______ _______ _______ _____ _____    ______ ____
ROOT
ATOM      1  C   UNL     1       6.415   4.989  15.763  0.00  0.00    +0.000 C 
ATOM      2  O   UNL     1       5.789   3.873  16.419  0.00  0.00    +0.000 OA
ATOM      3  C   UNL     1       5.209   4.188  17.689  0.00  0.00    +0.000 C 
ATOM      4  C   UNL     1       6.349   4.693  18.632  0.00  0.00    +0.000 C 
ATOM      5  C   UNL     1       6.940   5.978  18.024  0.00  0.00    +0.000 C 
ATOM      6  C   UNL     1       7.487   5.671  16.619  0.00  0.00    +0.000 C 
ENDROOT
BRANCH   4   7
ATOM      7  N   UNL     1       5.987   4.876  20.053  0.00  0.00    +0.000 NA
ATOM      8  H   UNL     1       5.410   4.084  20.346  0.00  0.00    +0.000 HD
ATOM      9  H   UNL     1       5.357   5.676  20.130  0.00  0.00    +0.000 HD
ENDBRANCH   4   7
BRANCH   1  11
ATOM     10  C   UNL     1       5.889   3.952  13.463  0.00  0.00    +0.000 C 
ATOM     11  C   UNL     1       6.966   4.471  14.416  0.00  0.00    +0.000 C 
BRANCH  11  12
ATOM     12  O   UNL     1       7.625   5.568  13.762  0.00  0.00    +0.000 OA
ATOM     13  H   UNL     1       7.278   5.573  12.848  0.00  0.00    +0.000 HD
ENDBRANCH  11  12
ENDBRANCH   1  11
BRANCH   5  14
ATOM     14  O   UNL     1       7.996   6.513  18.839  0.00  0.00    +0.000 OA
ATOM     15  H   UNL     1       8.845   6.327  18.399  0.00  0.00    +0.000 HD
ENDBRANCH   5  14
BRANCH   6  16
ATOM     16  O   UNL     1       7.921   6.869  15.968  0.00  0.00    +0.000 OA
ATOM     17  H   UNL     1       7.129   7.406  15.777  0.00  0.00    +0.000 HD
ENDBRANCH   6  16
BRANCH   3  18
ATOM     18  O   UNL     1       4.156   5.150  17.564  0.00  0.00    +0.000 OA
BRANCH  18  19
ATOM     19  C   UNL     1       2.886   4.786  18.180  0.00  0.00    +0.000 C 
ATOM     20  C   UNL     1       3.005   5.224  19.672  0.00  0.00    +0.000 C 
ATOM     21  C   UNL     1       1.880   4.719  20.580  0.00  0.00    +0.000 C 
ATOM     22  C   UNL     1       1.717   3.206  20.453  0.00  0.00    +0.000 C 
ATOM     23  C   UNL     1       1.389   2.860  18.988  0.00  0.00    +0.000 C 
ATOM     24  C   UNL     1       2.538   3.284  18.051  0.00  0.00    +0.000 C 
BRANCH  20  25
ATOM     25  N   UNL     1       3.073   6.692  19.797  0.00  0.00    +0.000 NA
ATOM     26  H   UNL     1       3.981   6.977  20.160  0.00  0.00    +0.000 HD
ATOM     27  H   UNL     1       2.391   6.980  20.500  0.00  0.00    +0.000 HD
ENDBRANCH  20  25
BRANCH  22  28
ATOM     28  N   UNL     1       0.692   2.704  21.375  0.00  0.00    +0.000 NA
ATOM     29  H   UNL     1      -0.031   3.414  21.527  0.00  0.00    +0.000 HD
ATOM     30  H   UNL     1       1.100   2.525  22.290  0.00  0.00    +0.000 HD
ENDBRANCH  22  28
BRANCH  23  31
ATOM     31  O   UNL     1       1.144   1.459  18.809  0.00  0.00    +0.000 OA
ATOM     32  H   UNL     1       1.590   0.988  19.538  0.00  0.00    +0.000 HD
ENDBRANCH  23  31
BRANCH  24  33
ATOM     33  O   UNL     1       2.156   3.004  16.690  0.00  0.00    +0.000 OA
ATOM     34  H   UNL     1       1.186   2.937  16.645  0.00  0.00    +0.000 HD
ENDBRANCH  24  33
ENDBRANCH  18  19
ENDBRANCH   3  18
TORSDOF 11
ENDMDL
MODEL 3
REMARK VINA RESULT:      -6.9      1.144      1.169
REMARK  Name = 
REMARK  12 active torsions:
REMARK  status: ('A' for Active; 'I' for Inactive)
REMARK    1  A    between atoms: C_1  and  C_2
REMARK    2  A    between atoms: C_2  and  O_3
REMARK    3  A    between atoms: C_2  and  C_4
REMARK    4  A    between atoms: C_6  and  O_7
REMARK    5  A    between atoms: O_7  and  C_8
REMARK    6  A    between atoms: C_9  and  N_10
REMARK    7  A    between atoms: C_12  and  N_13
REMARK    8  A    between atoms: C_14  and  O_15
REMARK    9  A    between atoms: C_16  and  O_17
REMARK   10  A    between atoms: C_18  and  N_19
REMARK   11  A    between atoms: C_20  and  O_21
REMARK   12  A    between atoms: C_22  and  O_23
REMARK                            x       y       z     vdW  Elec       q    Type
REMARK                         _______ _______ _______ _____ _____    ______ ____
ROOT
ATOM      1  C   UNL     1       6.440   5.700  16.806  0.00  0.00    +0.000 C 
ATOM      2  O   UNL     1       6.652   4.402  17.386  0.00  0.00    +0.000 OA
ATOM      3  C   UNL     1       6.721   4.402  18.815  0.00  0.00    +0.000 C 
ATOM      4  C   UNL     1       7.928   5.297  19.243  0.00  0.00    +0.000 C 
ATOM      5  C   UNL     1       7.655   6.734  18.760  0.00  0.00    +0.000 C 
ATOM      6  C   UNL     1       7.489   6.732  17.231  0.00  0.00    +0.000 C 
ENDROOT
BRANCH   4   7
ATOM      7  N   UNL     1       8.292   5.261  20.676  0.00  0.00    +0.000 NA
ATOM      8  H   UNL     1       8.626   6.188  20.949  0.00  0.00    +0.000 HD
ATOM      9  H   UNL     1       9.113   4.665  20.791  0.00  0.00    +0.000 HD
ENDBRANCH   4   7
BRANCH   1  11
ATOM     10  C   UNL     1       6.025   4.084  14.841  0.00  0.00    +0.000 C 
ATOM     11  C   UNL     1       6.378   5.507  15.274  0.00  0.00    +0.000 C 
BRANCH  11  12
ATOM     12  O   UNL     1       5.355   6.377  14.764  0.00  0.00    +0.000 OA
ATOM     13  H   UNL     1       5.718   6.747  13.935  0.00  0.00    +0.000 HD
ENDBRANCH  11  12
ENDBRANCH   1  11
BRANCH   5  14
ATOM     14  O   UNL     1       8.721   7.627  19.123  0.00  0.00    +0.000 OA
ATOM     15  H   UNL     1       8.543   7.965  20.019  0.00  0.00    +0.000 HD
ENDBRANCH   5  14
BRANCH   6  16
ATOM     16  O   UNL     1       7.099   8.025  16.760  0.00  0.00    +0.000 OA
ATOM     17  H   UNL     1       6.752   7.918  15.854  0.00  0.00    +0.000 HD
ENDBRANCH   6  16
BRANCH   3  18
ATOM     18  O   UNL     1       5.494   4.845  19.403  0.00  0.00    +0.000 OA
BRANCH  18  19
ATOM     19  C   UNL     1       4.325   4.014  19.140  0.00  0.00    +0.000 C 
ATOM     20  C   UNL     1       3.217   4.994  18.649  0.00  0.00    +0.000 C 
ATOM     21  C   UNL     1       1.818   4.380  18.546  0.00  0.00    +0.000 C 
ATOM     22  C   UNL     1       1.424   3.702  19.856  0.00  0.00    +0.000 C 
ATOM     23  C   UNL     1       2.449   2.595  20.173  0.00  0.00    +0.000 C 
ATOM     24  C   UNL     1       3.859   3.188  20.362  0.00  0.00    +0.000 C 
BRANCH  20  25
ATOM     25  N   UNL     1       3.559   5.581  17.340  0.00  0.00    +0.000 NA
ATOM     26  H   UNL     1       4.477   6.020  17.376  0.00  0.00    +0.000 HD
ATOM     27  H   UNL     1       2.898   6.336  17.151  0.00  0.00    +0.000 HD
ENDBRANCH  20  25
BRANCH  22  28
ATOM     28  N   UNL     1       0.056   3.176  19.791  0.00  0.00    +0.000 NA
ATOM     29  H   UNL     1      -0.094   2.680  18.907  0.00  0.00    +0.000 HD
ATOM     30  H   UNL     1      -0.615   3.941  19.795  0.00  0.00    +0.000 HD
ENDBRANCH  22  28
BRANCH  23  31
ATOM     31  O   UNL     1       2.097   1.861  21.353  0.00  0.00    +0.000 OA
ATOM     32  H   UNL     1       1.445   1.183  21.093  0.00  0.00    +0.000 HD
ENDBRANCH  23  31
BRANCH  24  33
ATOM     33  O   UNL     1       4.790   2.112  20.587  0.00  0.00    +0.000 OA
ATOM     34  H   UNL     1       4.901   1.990  21.547  0.00  0.00    +0.000 HD
ENDBRANCH  24  33
ENDBRANCH  18  19
ENDBRANCH   3  18
TORSDOF 11
ENDMDL
MODEL 4
REMARK VINA RESULT:      -6.7      2.208      2.682
REMARK  Name = 
REMARK  12 active torsions:
REMARK  status: ('A' for Active; 'I' for Inactive)
REMARK    1  A    between atoms: C_1  and  C_2
REMARK    2  A    between atoms: C_2  and  O_3
REMARK    3  A    between atoms: C_2  and  C_4
REMARK    4  A    between atoms: C_6  and  O_7
REMARK    5  A    between atoms: O_7  and  C_8
REMARK    6  A    between atoms: C_9  and  N_10
REMARK    7  A    between atoms: C_12  and  N_13
REMARK    8  A    between atoms: C_14  and  O_15
REMARK    9  A    between atoms: C_16  and  O_17
REMARK   10  A    between atoms: C_18  and  N_19
REMARK   11  A    between atoms: C_20  and  O_21
REMARK   12  A    between atoms: C_22  and  O_23
REMARK                            x       y       z     vdW  Elec       q    Type
REMARK                         _______ _______ _______ _____ _____    ______ ____
ROOT
ATOM      1  C   UNL     1       5.738   4.683  15.656  0.00  0.00    +0.000 C 
ATOM      2  O   UNL     1       6.010   3.903  16.832  0.00  0.00    +0.000 OA
ATOM      3  C   UNL     1       5.038   4.050  17.873  0.00  0.00    +0.000 C 
ATOM      4  C   UNL     1       5.021   5.549  18.312  0.00  0.00    +0.000 C 
ATOM      5  C   UNL     1       4.585   6.398  17.103  0.00  0.00    +0.000 C 
ATOM      6  C   UNL     1       5.574   6.178  15.946  0.00  0.00    +0.000 C 
ENDROOT
BRANCH   4   7
ATOM      7  N   UNL     1       4.226   5.867  19.518  0.00  0.00    +0.000 NA
ATOM      8  H   UNL     1       4.094   5.007  20.055  0.00  0.00    +0.000 HD
ATOM      9  H   UNL     1       3.279   6.119  19.229  0.00  0.00    +0.000 HD
ENDBRANCH   4   7
BRANCH   1  11
ATOM     10  C   UNL     1       6.375   3.935  13.273  0.00  0.00    +0.000 C 
ATOM     11  C   UNL     1       6.870   4.390  14.646  0.00  0.00    +0.000 C 
BRANCH  11  12
ATOM     12  O   UNL     1       7.611   5.606  14.455  0.00  0.00    +0.000 OA
ATOM     13  H   UNL     1       7.477   6.123  15.274  0.00  0.00    +0.000 HD
ENDBRANCH  11  12
ENDBRANCH   1  11
BRANCH   5  14
ATOM     14  O   UNL     1       4.536   7.798  17.428  0.00  0.00    +0.000 OA
ATOM     15  H   UNL     1       3.928   7.914  18.180  0.00  0.00    +0.000 HD
ENDBRANCH   5  14
BRANCH   6  16
ATOM     16  O   UNL     1       5.128   6.844  14.761  0.00  0.00    +0.000 OA
ATOM     17  H   UNL     1       4.754   7.704  15.028  0.00  0.00    +0.000 HD
ENDBRANCH   6  16
BRANCH   3  18
ATOM     18  O   UNL     1       3.745   3.602  17.453  0.00  0.00    +0.000 OA
BRANCH  18  19
ATOM     19  C   UNL     1       2.988   2.835  18.435  0.00  0.00    +0.000 C 
ATOM     20  C   UNL     1       1.731   3.697  18.760  0.00  0.00    +0.000 C 
ATOM     21  C   UNL     1       0.908   3.207  19.955  0.00  0.00    +0.000 C 
ATOM     22  C   UNL     1       1.794   3.023  21.186  0.00  0.00    +0.000 C 
ATOM     23  C   UNL     1       2.893   1.993  20.861  0.00  0.00    +0.000 C 
ATOM     24  C   UNL     1       3.792   2.490  19.712  0.00  0.00    +0.000 C 
BRANCH  20  25
ATOM     25  N   UNL     1       0.833   3.800  17.595  0.00  0.00    +0.000 NA
ATOM     26  H   UNL     1       0.890   4.729  17.182  0.00  0.00    +0.000 HD
ATOM     27  H   UNL     1      -0.127   3.703  17.928  0.00  0.00    +0.000 HD
ENDBRANCH  20  25
BRANCH  22  28
ATOM     28  N   UNL     1       1.002   2.625  22.355  0.00  0.00    +0.000 NA
ATOM     29  H   UNL     1       0.244   3.295  22.518  0.00  0.00    +0.000 HD
ATOM     30  H   UNL     1       1.577   2.651  23.194  0.00  0.00    +0.000 HD
ENDBRANCH  22  28
BRANCH  23  31
ATOM     31  O   UNL     1       3.717   1.710  22.000  0.00  0.00    +0.000 OA
ATOM     32  H   UNL     1       4.596   1.451  21.667  0.00  0.00    +0.000 HD
ENDBRANCH  23  31
BRANCH  24  33
ATOM     33  O   UNL     1       4.757   1.467  19.399  0.00  0.00    +0.000 OA
ATOM     34  H   UNL     1       4.286   0.630  19.243  0.00  0.00    +0.000 HD
ENDBRANCH  24  33
ENDBRANCH  18  19
ENDBRANCH   3  18
TORSDOF 11
ENDMDL
MODEL 5
REMARK VINA RESULT:      -6.6      1.637      2.030
REMARK  Name = 
REMARK  12 active torsions:
REMARK  status: ('A' for Active; 'I' for Inactive)
REMARK    1  A    between atoms: C_1  and  C_2
REMARK    2  A    between atoms: C_2  and  O_3
REMARK    3  A    between atoms: C_2  and  C_4
REMARK    4  A    between atoms: C_6  and  O_7
REMARK    5  A    between atoms: O_7  and  C_8
REMARK    6  A    between atoms: C_9  and  N_10
REMARK    7  A    between atoms: C_12  and  N_13
REMARK    8  A    between atoms: C_14  and  O_15
REMARK    9  A    between atoms: C_16  and  O_17
REMARK   10  A    between atoms: C_18  and  N_19
REMARK   11  A    between atoms: C_20  and  O_21
REMARK   12  A    between atoms: C_22  and  O_23
REMARK                            x       y       z     vdW  Elec       q    Type
REMARK                         _______ _______ _______ _____ _____    ______ ____
ROOT
ATOM      1  C   UNL     1       6.130   5.931  16.990  0.00  0.00    +0.000 C 
ATOM      2  O   UNL     1       6.174   4.631  17.601  0.00  0.00    +0.000 OA
ATOM      3  C   UNL     1       6.342   4.656  19.023  0.00  0.00    +0.000 C 
ATOM      4  C   UNL     1       7.703   5.356  19.339  0.00  0.00    +0.000 C 
ATOM      5  C   UNL     1       7.628   6.805  18.823  0.00  0.00    +0.000 C 
ATOM      6  C   UNL     1       7.357   6.792  17.309  0.00  0.00    +0.000 C 
ENDROOT
BRANCH   4   7
ATOM      7  N   UNL     1       8.155   5.298  20.745  0.00  0.00    +0.000 NA
ATOM      8  H   UNL     1       7.484   5.809  21.323  0.00  0.00    +0.000 HD
ATOM      9  H   UNL     1       9.014   5.843  20.835  0.00  0.00    +0.000 HD
ENDBRANCH   4   7
BRANCH   1  11
ATOM     10  C   UNL     1       5.212   4.410  15.123  0.00  0.00    +0.000 C 
ATOM     11  C   UNL     1       5.932   5.712  15.474  0.00  0.00    +0.000 C 
BRANCH  11  12
ATOM     12  O   UNL     1       5.127   6.794  14.977  0.00  0.00    +0.000 OA
ATOM     13  H   UNL     1       4.428   6.927  15.647  0.00  0.00    +0.000 HD
ENDBRANCH  11  12
ENDBRANCH   1  11
BRANCH   5  14
ATOM     14  O   UNL     1       8.845   7.524  19.084  0.00  0.00    +0.000 OA
ATOM     15  H   UNL     1       9.585   6.892  19.048  0.00  0.00    +0.000 HD
ENDBRANCH   5  14
BRANCH   6  16
ATOM     16  O   UNL     1       7.145   8.119  16.818  0.00  0.00    +0.000 OA
ATOM     17  H   UNL     1       7.871   8.324  16.199  0.00  0.00    +0.000 HD
ENDBRANCH   6  16
BRANCH   3  18
ATOM     18  O   UNL     1       5.244   5.305  19.672  0.00  0.00    +0.000 OA
BRANCH  18  19
ATOM     19  C   UNL     1       3.982   4.575  19.672  0.00  0.00    +0.000 C 
ATOM     20  C   UNL     1       4.371   3.070  19.551  0.00  0.00    +0.000 C 
ATOM     21  C   UNL     1       3.197   2.125  19.283  0.00  0.00    +0.000 C 
ATOM     22  C   UNL     1       2.387   2.592  18.075  0.00  0.00    +0.000 C 
ATOM     23  C   UNL     1       1.852   4.010  18.351  0.00  0.00    +0.000 C 
ATOM     24  C   UNL     1       3.011   5.008  18.549  0.00  0.00    +0.000 C 
BRANCH  20  25
ATOM     25  N   UNL     1       5.075   2.598  20.757  0.00  0.00    +0.000 NA
ATOM     26  H   UNL     1       4.577   1.813  21.176  0.00  0.00    +0.000 HD
ATOM     27  H   UNL     1       5.048   3.345  21.452  0.00  0.00    +0.000 HD
ENDBRANCH  20  25
BRANCH  22  28
ATOM     28  N   UNL     1       1.305   1.651  17.766  0.00  0.00    +0.000 NA
ATOM     29  H   UNL     1       1.568   0.700  18.041  0.00  0.00    +0.000 HD
ATOM     30  H   UNL     1       1.150   1.614  16.760  0.00  0.00    +0.000 HD
ENDBRANCH  22  28
BRANCH  23  31
ATOM     31  O   UNL     1       1.014   4.484  17.289  0.00  0.00    +0.000 OA
ATOM     32  H   UNL     1       1.453   5.260  16.893  0.00  0.00    +0.000 HD
ENDBRANCH  23  31
BRANCH  24  33
ATOM     33  O   UNL     1       2.463   6.301  18.872  0.00  0.00    +0.000 OA
ATOM     34  H   UNL     1       1.561   6.357  18.509  0.00  0.00    +0.000 HD
ENDBRANCH  24  33
ENDBRANCH  18  19
ENDBRANCH   3  18
TORSDOF 11
ENDMDL
MODEL 6
REMARK VINA RESULT:      -6.6      2.447      5.878
REMARK  Name = 
REMARK  12 active torsions:
REMARK  status: ('A' for Active; 'I' for Inactive)
REMARK    1  A    between atoms: C_1  and  C_2
REMARK    2  A    between atoms: C_2  and  O_3
REMARK    3  A    between atoms: C_2  and  C_4
REMARK    4  A    between atoms: C_6  and  O_7
REMARK    5  A    between atoms: O_7  and  C_8
REMARK    6  A    between atoms: C_9  and  N_10
REMARK    7  A    between atoms: C_12  and  N_13
REMARK    8  A    between atoms: C_14  and  O_15
REMARK    9  A    between atoms: C_16  and  O_17
REMARK   10  A    between atoms: C_18  and  N_19
REMARK   11  A    between atoms: C_20  and  O_21
REMARK   12  A    between atoms: C_22  and  O_23
REMARK                            x       y       z     vdW  Elec       q    Type
REMARK                         _______ _______ _______ _____ _____    ______ ____
ROOT
ATOM      1  C   UNL     1       2.736   3.560  19.329  0.00  0.00    +0.000 C 
ATOM      2  O   UNL     1       2.911   4.010  17.975  0.00  0.00    +0.000 OA
ATOM      3  C   UNL     1       3.513   5.303  17.859  0.00  0.00    +0.000 C 
ATOM      4  C   UNL     1       2.580   6.338  18.568  0.00  0.00    +0.000 C 
ATOM      5  C   UNL     1       2.494   5.963  20.059  0.00  0.00    +0.000 C 
ATOM      6  C   UNL     1       1.932   4.537  20.193  0.00  0.00    +0.000 C 
ENDROOT
BRANCH   4   7
ATOM      7  N   UNL     1       2.926   7.763  18.381  0.00  0.00    +0.000 NA
ATOM      8  H   UNL     1       2.779   8.006  17.399  0.00  0.00    +0.000 HD
ATOM      9  H   UNL     1       3.933   7.876  18.510  0.00  0.00    +0.000 HD
ENDBRANCH   4   7
BRANCH   1  11
ATOM     10  C   UNL     1       0.630   2.163  18.822  0.00  0.00    +0.000 C 
ATOM     11  C   UNL     1       2.095   2.156  19.261  0.00  0.00    +0.000 C 
BRANCH  11  12
ATOM     12  O   UNL     1       2.829   1.387  18.294  0.00  0.00    +0.000 OA
ATOM     13  H   UNL     1       3.743   1.339  18.640  0.00  0.00    +0.000 HD
ENDBRANCH  11  12
ENDBRANCH   1  11
BRANCH   5  14
ATOM     14  O   UNL     1       1.656   6.876  20.788  0.00  0.00    +0.000 OA
ATOM     15  H   UNL     1       2.195   7.294  21.484  0.00  0.00    +0.000 HD
ENDBRANCH   5  14
BRANCH   6  16
ATOM     16  O   UNL     1       1.965   4.102  21.555  0.00  0.00    +0.000 OA
ATOM     17  H   UNL     1       2.869   3.787  21.744  0.00  0.00    +0.000 HD
ENDBRANCH   6  16
BRANCH   3  18
ATOM     18  O   UNL     1       4.837   5.320  18.402  0.00  0.00    +0.000 OA
BRANCH  18  19
ATOM     19  C   UNL     1       5.905   4.936  17.486  0.00  0.00    +0.000 C 
ATOM     20  C   UNL     1       6.584   6.271  17.054  0.00  0.00    +0.000 C 
ATOM     21  C   UNL     1       7.579   6.139  15.898  0.00  0.00    +0.000 C 
ATOM     22  C   UNL     1       6.939   5.427  14.709  0.00  0.00    +0.000 C 
ATOM     23  C   UNL     1       6.481   4.025  15.154  0.00  0.00    +0.000 C 
ATOM     24  C   UNL     1       5.417   4.121  16.265  0.00  0.00    +0.000 C 
BRANCH  20  25
ATOM     25  N   UNL     1       7.277   6.913  18.186  0.00  0.00    +0.000 NA
ATOM     26  H   UNL     1       7.968   6.281  18.586  0.00  0.00    +0.000 HD
ATOM     27  H   UNL     1       6.591   7.077  18.924  0.00  0.00    +0.000 HD
ENDBRANCH  20  25
BRANCH  22  28
ATOM     28  N   UNL     1       7.862   5.362  13.569  0.00  0.00    +0.000 NA
ATOM     29  H   UNL     1       7.422   4.880  12.780  0.00  0.00    +0.000 HD
ATOM     30  H   UNL     1       8.680   4.805  13.811  0.00  0.00    +0.000 HD
ENDBRANCH  22  28
BRANCH  23  31
ATOM     31  O   UNL     1       5.940   3.266  14.065  0.00  0.00    +0.000 OA
ATOM     32  H   UNL     1       5.051   2.965  14.330  0.00  0.00    +0.000 HD
ENDBRANCH  23  31
BRANCH  24  33
ATOM     33  O   UNL     1       5.071   2.790  16.695  0.00  0.00    +0.000 OA
ATOM     34  H   UNL     1       4.220   2.825  17.167  0.00  0.00    +0.000 HD
ENDBRANCH  24  33
ENDBRANCH  18  19
ENDBRANCH   3  18
TORSDOF 11
ENDMDL
MODEL 7
REMARK VINA RESULT:      -6.5      1.832      2.314
REMARK  Name = 
REMARK  12 active torsions:
REMARK  status: ('A' for Active; 'I' for Inactive)
REMARK    1  A    between atoms: C_1  and  C_2
REMARK    2  A    between atoms: C_2  and  O_3
REMARK    3  A    between atoms: C_2  and  C_4
REMARK    4  A    between atoms: C_6  and  O_7
REMARK    5  A    between atoms: O_7  and  C_8
REMARK    6  A    between atoms: C_9  and  N_10
REMARK    7  A    between atoms: C_12  and  N_13
REMARK    8  A    between atoms: C_14  and  O_15
REMARK    9  A    between atoms: C_16  and  O_17
REMARK   10  A    between atoms: C_18  and  N_19
REMARK   11  A    between atoms: C_20  and  O_21
REMARK   12  A    between atoms: C_22  and  O_23
REMARK                            x       y       z     vdW  Elec       q    Type
REMARK                         _______ _______ _______ _____ _____    ______ ____
ROOT
ATOM      1  C   UNL     1       5.609   4.260  14.875  0.00  0.00    +0.000 C 
ATOM      2  O   UNL     1       5.285   3.443  16.013  0.00  0.00    +0.000 OA
ATOM      3  C   UNL     1       5.095   4.176  17.227  0.00  0.00    +0.000 C 
ATOM      4  C   UNL     1       6.429   4.918  17.561  0.00  0.00    +0.000 C 
ATOM      5  C   UNL     1       6.723   5.913  16.423  0.00  0.00    +0.000 C 
ATOM      6  C   UNL     1       6.840   5.145  15.095  0.00  0.00    +0.000 C 
ENDROOT
BRANCH   4   7
ATOM      7  N   UNL     1       6.500   5.567  18.887  0.00  0.00    +0.000 NA
ATOM      8  H   UNL     1       5.921   6.409  18.867  0.00  0.00    +0.000 HD
ATOM      9  H   UNL     1       7.445   5.928  19.025  0.00  0.00    +0.000 HD
ENDBRANCH   4   7
BRANCH   1  11
ATOM     10  C   UNL     1       4.820   3.629  12.504  0.00  0.00    +0.000 C 
ATOM     11  C   UNL     1       5.762   3.312  13.665  0.00  0.00    +0.000 C 
BRANCH  11  12
ATOM     12  O   UNL     1       7.107   3.442  13.175  0.00  0.00    +0.000 OA
ATOM     13  H   UNL     1       7.664   2.958  13.817  0.00  0.00    +0.000 HD
ENDBRANCH  11  12
ENDBRANCH   1  11
BRANCH   5  14
ATOM     14  O   UNL     1       7.937   6.645  16.659  0.00  0.00    +0.000 OA
ATOM     15  H   UNL     1       7.707   7.475  17.114  0.00  0.00    +0.000 HD
ENDBRANCH   5  14
BRANCH   6  16
ATOM     16  O   UNL     1       6.978   6.048  13.994  0.00  0.00    +0.000 OA
ATOM     17  H   UNL     1       6.159   5.996  13.466  0.00  0.00    +0.000 HD
ENDBRANCH   6  16
BRANCH   3  18
ATOM     18  O   UNL     1       3.991   5.082  17.129  0.00  0.00    +0.000 OA
BRANCH  18  19
ATOM     19  C   UNL     1       2.781   4.691  17.842  0.00  0.00    +0.000 C 
ATOM     20  C   UNL     1       2.899   5.344  19.253  0.00  0.00    +0.000 C 
ATOM     21  C   UNL     1       1.856   4.868  20.268  0.00  0.00    +0.000 C 
ATOM     22  C   UNL     1       1.839   3.344  20.357  0.00  0.00    +0.000 C 
ATOM     23  C   UNL     1       1.505   2.766  18.968  0.00  0.00    +0.000 C 
ATOM     24  C   UNL     1       2.579   3.160  17.935  0.00  0.00    +0.000 C 
BRANCH  20  25
ATOM     25  N   UNL     1       2.825   6.814  19.173  0.00  0.00    +0.000 NA
ATOM     26  H   UNL     1       2.015   7.159  19.685  0.00  0.00    +0.000 HD
ATOM     27  H   UNL     1       2.665   7.070  18.198  0.00  0.00    +0.000 HD
ENDBRANCH  20  25
BRANCH  22  28
ATOM     28  N   UNL     1       0.895   2.882  21.381  0.00  0.00    +0.000 NA
ATOM     29  H   UNL     1       1.394   2.395  22.132  0.00  0.00    +0.000 HD
ATOM     30  H   UNL     1       0.255   2.197  20.985  0.00  0.00    +0.000 HD
ENDBRANCH  22  28
BRANCH  23  31
ATOM     31  O   UNL     1       1.394   1.338  18.994  0.00  0.00    +0.000 OA
ATOM     32  H   UNL     1       0.602   1.096  18.479  0.00  0.00    +0.000 HD
ENDBRANCH  23  31
BRANCH  24  33
ATOM     33  O   UNL     1       2.188   2.657  16.642  0.00  0.00    +0.000 OA
ATOM     34  H   UNL     1       1.452   3.199  16.306  0.00  0.00    +0.000 HD
ENDBRANCH  24  33
ENDBRANCH  18  19
ENDBRANCH   3  18
TORSDOF 11
ENDMDL
MODEL 8
REMARK VINA RESULT:      -6.4      2.257      3.356
REMARK  Name = 
REMARK  12 active torsions:
REMARK  status: ('A' for Active; 'I' for Inactive)
REMARK    1  A    between atoms: C_1  and  C_2
REMARK    2  A    between atoms: C_2  and  O_3
REMARK    3  A    between atoms: C_2  and  C_4
REMARK    4  A    between atoms: C_6  and  O_7
REMARK    5  A    between atoms: O_7  and  C_8
REMARK    6  A    between atoms: C_9  and  N_10
REMARK    7  A    between atoms: C_12  and  N_13
REMARK    8  A    between atoms: C_14  and  O_15
REMARK    9  A    between atoms: C_16  and  O_17
REMARK   10  A    between atoms: C_18  and  N_19
REMARK   11  A    between atoms: C_20  and  O_21
REMARK   12  A    between atoms: C_22  and  O_23
REMARK                            x       y       z     vdW  Elec       q    Type
REMARK                         _______ _______ _______ _____ _____    ______ ____
ROOT
ATOM      1  C   UNL     1       6.656   5.224  17.731  0.00  0.00    +0.000 C 
ATOM      2  O   UNL     1       5.736   5.360  18.827  0.00  0.00    +0.000 OA
ATOM      3  C   UNL     1       4.358   5.383  18.437  0.00  0.00    +0.000 C 
ATOM      4  C   UNL     1       4.139   6.615  17.502  0.00  0.00    +0.000 C 
ATOM      5  C   UNL     1       5.007   6.422  16.244  0.00  0.00    +0.000 C 
ATOM      6  C   UNL     1       6.484   6.305  16.658  0.00  0.00    +0.000 C 
ENDROOT
BRANCH   4   7
ATOM      7  N   UNL     1       2.737   6.930  17.156  0.00  0.00    +0.000 NA
ATOM      8  H   UNL     1       2.131   6.571  17.896  0.00  0.00    +0.000 HD
ATOM      9  H   UNL     1       2.470   6.381  16.337  0.00  0.00    +0.000 HD
ENDBRANCH   4   7
BRANCH   1  11
ATOM     10  C   UNL     1       8.112   5.382  19.853  0.00  0.00    +0.000 C 
ATOM     11  C   UNL     1       8.078   5.203  18.335  0.00  0.00    +0.000 C 
BRANCH  11  12
ATOM     12  O   UNL     1       8.659   3.921  18.040  0.00  0.00    +0.000 OA
ATOM     13  H   UNL     1       7.917   3.367  17.726  0.00  0.00    +0.000 HD
ENDBRANCH  11  12
ENDBRANCH   1  11
BRANCH   5  14
ATOM     14  O   UNL     1       4.856   7.515  15.323  0.00  0.00    +0.000 OA
ATOM     15  H   UNL     1       4.062   7.350  14.783  0.00  0.00    +0.000 HD
ENDBRANCH   5  14
BRANCH   6  16
ATOM     16  O   UNL     1       7.306   5.988  15.532  0.00  0.00    +0.000 OA
ATOM     17  H   UNL     1       8.129   5.587  15.869  0.00  0.00    +0.000 HD
ENDBRANCH   6  16
BRANCH   3  18
ATOM     18  O   UNL     1       3.968   4.158  17.808  0.00  0.00    +0.000 OA
BRANCH  18  19
ATOM     19  C   UNL     1       3.177   3.247  18.626  0.00  0.00    +0.000 C 
ATOM     20  C   UNL     1       1.830   3.985  18.891  0.00  0.00    +0.000 C 
ATOM     21  C   UNL     1       0.931   3.322  19.938  0.00  0.00    +0.000 C 
ATOM     22  C   UNL     1       1.698   3.075  21.235  0.00  0.00    +0.000 C 
ATOM     23  C   UNL     1       2.901   2.160  20.938  0.00  0.00    +0.000 C 
ATOM     24  C   UNL     1       3.871   2.830  19.944  0.00  0.00    +0.000 C 
BRANCH  20  25
ATOM     25  N   UNL     1       1.050   4.143  17.650  0.00  0.00    +0.000 NA
ATOM     26  H   UNL     1       1.188   3.341  17.037  0.00  0.00    +0.000 HD
ATOM     27  H   UNL     1       1.423   4.947  17.143  0.00  0.00    +0.000 HD
ENDBRANCH  20  25
BRANCH  22  28
ATOM     28  N   UNL     1       0.824   2.508  22.269  0.00  0.00    +0.000 NA
ATOM     29  H   UNL     1      -0.000   3.101  22.405  0.00  0.00    +0.000 HD
ATOM     30  H   UNL     1       1.305   2.495  23.166  0.00  0.00    +0.000 HD
ENDBRANCH  22  28
BRANCH  23  31
ATOM     31  O   UNL     1       3.624   1.820  22.127  0.00  0.00    +0.000 OA
ATOM     32  H   UNL     1       4.054   2.633  22.451  0.00  0.00    +0.000 HD
ENDBRANCH  23  31
BRANCH  24  33
ATOM     33  O   UNL     1       4.940   1.912  19.645  0.00  0.00    +0.000 OA
ATOM     34  H   UNL     1       5.400   2.218  18.844  0.00  0.00    +0.000 HD
ENDBRANCH  24  33
ENDBRANCH  18  19
ENDBRANCH   3  18
TORSDOF 11
ENDMDL
MODEL 9
REMARK VINA RESULT:      -6.4      3.728      6.203
REMARK  Name = 
REMARK  12 active torsions:
REMARK  status: ('A' for Active; 'I' for Inactive)
REMARK    1  A    between atoms: C_1  and  C_2
REMARK    2  A    between atoms: C_2  and  O_3
REMARK    3  A    between atoms: C_2  and  C_4
REMARK    4  A    between atoms: C_6  and  O_7
REMARK    5  A    between atoms: O_7  and  C_8
REMARK    6  A    between atoms: C_9  and  N_10
REMARK    7  A    between atoms: C_12  and  N_13
REMARK    8  A    between atoms: C_14  and  O_15
REMARK    9  A    between atoms: C_16  and  O_17
REMARK   10  A    between atoms: C_18  and  N_19
REMARK   11  A    between atoms: C_20  and  O_21
REMARK   12  A    between atoms: C_22  and  O_23
REMARK                            x       y       z     vdW  Elec       q    Type
REMARK                         _______ _______ _______ _____ _____    ______ ____
ROOT
ATOM      1  C   UNL     1       2.166   4.255  19.243  0.00  0.00    +0.000 C 
ATOM      2  O   UNL     1       2.847   5.254  20.022  0.00  0.00    +0.000 OA
ATOM      3  C   UNL     1       3.305   6.378  19.264  0.00  0.00    +0.000 C 
ATOM      4  C   UNL     1       4.321   5.861  18.194  0.00  0.00    +0.000 C 
ATOM      5  C   UNL     1       3.576   4.898  17.251  0.00  0.00    +0.000 C 
ATOM      6  C   UNL     1       3.000   3.730  18.070  0.00  0.00    +0.000 C 
ENDROOT
BRANCH   4   7
ATOM      7  N   UNL     1       5.062   6.897  17.444  0.00  0.00    +0.000 NA
ATOM      8  H   UNL     1       4.390   7.573  17.074  0.00  0.00    +0.000 HD
ATOM      9  H   UNL     1       5.462   6.471  16.606  0.00  0.00    +0.000 HD
ENDBRANCH   4   7
BRANCH   1  11
ATOM     10  C   UNL     1       2.159   3.379  21.667  0.00  0.00    +0.000 C 
ATOM     11  C   UNL     1       1.735   3.137  20.218  0.00  0.00    +0.000 C 
BRANCH  11  12
ATOM     12  O   UNL     1       0.299   3.069  20.197  0.00  0.00    +0.000 OA
ATOM     13  H   UNL     1      -0.001   3.689  20.891  0.00  0.00    +0.000 HD
ENDBRANCH  11  12
ENDBRANCH   1  11
BRANCH   5  14
ATOM     14  O   UNL     1       4.443   4.381  16.228  0.00  0.00    +0.000 OA
ATOM     15  H   UNL     1       4.330   3.414  16.194  0.00  0.00    +0.000 HD
ENDBRANCH   5  14
BRANCH   6  16
ATOM     16  O   UNL     1       2.186   2.886  17.251  0.00  0.00    +0.000 OA
ATOM     17  H   UNL     1       2.688   2.068  17.078  0.00  0.00    +0.000 HD
ENDBRANCH   6  16
BRANCH   3  18
ATOM     18  O   UNL     1       2.217   7.090  18.666  0.00  0.00    +0.000 OA
BRANCH  18  19
ATOM     19  C   UNL     1       1.920   8.397  19.239  0.00  0.00    +0.000 C 
ATOM     20  C   UNL     1       0.989   8.116  20.458  0.00  0.00    +0.000 C 
ATOM     21  C   UNL     1       0.344   9.362  21.072  0.00  0.00    +0.000 C 
ATOM     22  C   UNL     1      -0.367  10.189  20.004  0.00  0.00    +0.000 C 
ATOM     23  C   UNL     1       0.659  10.615  18.936  0.00  0.00    +0.000 C 
ATOM     24  C   UNL     1       1.272   9.384  18.240  0.00  0.00    +0.000 C 
BRANCH  20  25
ATOM     25  N   UNL     1       1.704   7.394  21.526  0.00  0.00    +0.000 NA
ATOM     26  H   UNL     1       1.533   6.393  21.456  0.00  0.00    +0.000 HD
ATOM     27  H   UNL     1       1.306   7.681  22.421  0.00  0.00    +0.000 HD
ENDBRANCH  20  25
BRANCH  22  28
ATOM     28  N   UNL     1      -1.051  11.345  20.595  0.00  0.00    +0.000 NA
ATOM     29  H   UNL     1      -0.737  11.490  21.560  0.00  0.00    +0.000 HD
ATOM     30  H   UNL     1      -2.052  11.168  20.654  0.00  0.00    +0.000 HD
ENDBRANCH  22  28
BRANCH  23  31
ATOM     31  O   UNL     1       0.076  11.464  17.940  0.00  0.00    +0.000 OA
ATOM     32  H   UNL     1      -0.817  11.121  17.749  0.00  0.00    +0.000 HD
ENDBRANCH  23  31
BRANCH  24  33
ATOM     33  O   UNL     1       2.272   9.830  17.303  0.00  0.00    +0.000 OA
ATOM     34  H   UNL     1       3.151   9.715  17.705  0.00  0.00    +0.000 HD
ENDBRANCH  24  33
ENDBRANCH  18  19
ENDBRANCH   3  18
TORSDOF 11
ENDMDL
