MODEL 1
REMARK VINA RESULT:      -7.1      0.000      0.000
REMARK  Name = 
REMARK  5 active torsions:
REMARK  status: ('A' for Active; 'I' for Inactive)
REMARK    1  A    between atoms: C_1  and  N_2
REMARK    2  A    between atoms: N_6  and  C_7
REMARK    3  A    between atoms: C_7  and  C_8
REMARK    4  A    between atoms: N_13  and  C_14
REMARK    5  A    between atoms: C_16  and  C_17
REMARK                            x       y       z     vdW  Elec       q    Type
REMARK                         _______ _______ _______ _____ _____    ______ ____
ROOT
ATOM      1  C   UNL     1       1.944   7.577  19.920  0.00  0.00    +0.000 C 
ATOM      2  O   UNL     1       1.870   7.914  21.108  0.00  0.00    +0.000 OA
ATOM      3  N   UNL     1       2.083   6.243  19.555  0.00  0.00    +0.000 N 
ATOM      4  C   UNL     1       2.110   5.236  20.620  0.00  0.00    +0.000 C 
ATOM      5  C   UNL     1       1.755   3.796  20.201  0.00  0.00    +0.000 C 
ATOM      6  N   UNL     1       2.038   3.352  18.833  0.00  0.00    +0.000 NA
ATOM      7  C   UNL     1       3.262   2.582  18.673  0.00  0.00    +0.000 C 
ATOM      8  C   UNL     1       1.902   4.446  17.855  0.00  0.00    +0.000 C 
ATOM      9  C   UNL     1       2.562   5.813  18.227  0.00  0.00    +0.000 C 
ENDROOT
BRANCH   9  10
ATOM     10  C   UNL     1       4.093   5.827  18.091  0.00  0.00    +0.000 A 
ATOM     11  C   UNL     1       4.673   6.157  16.855  0.00  0.00    +0.000 A 
ATOM     12  C   UNL     1       6.058   6.094  16.667  0.00  0.00    +0.000 A 
ATOM     13  C   UNL     1       6.890   5.707  17.714  0.00  0.00    +0.000 A 
ATOM     14  C   UNL     1       6.342   5.422  18.959  0.00  0.00    +0.000 A 
ATOM     15  C   UNL     1       4.963   5.505  19.149  0.00  0.00    +0.000 A 
ENDBRANCH   9  10
BRANCH   1  16
ATOM     16  C   UNL     1       1.840   8.651  18.825  0.00  0.00    +0.000 C 
BRANCH  16  22
ATOM     17  C   UNL     1      -2.604  12.012  19.035  0.00  0.00    +0.000 C 
ATOM     18  N   UNL     1      -1.253  12.147  19.562  0.00  0.00    +0.000 NA
ATOM     19  C   UNL     1      -0.332  12.610  18.518  0.00  0.00    +0.000 C 
ATOM     20  C   UNL     1       1.157  12.445  18.823  0.00  0.00    +0.000 C 
ATOM     21  C   UNL     1       1.702  11.056  18.469  0.00  0.00    +0.000 C 
ATOM     22  N   UNL     1       1.284   9.936  19.336  0.00  0.00    +0.000 NA
ATOM     23  C   UNL     1      -0.183   9.820  19.435  0.00  0.00    +0.000 C 
ATOM     24  C   UNL     1      -0.813  10.952  20.281  0.00  0.00    +0.000 C 
ENDBRANCH  16  22
ENDBRANCH   1  16
TORSDOF 3
ENDMDL
MODEL 2
REMARK VINA RESULT:      -7.0      1.804      3.663
REMARK  Name = 
REMARK  5 active torsions:
REMARK  status: ('A' for Active; 'I' for Inactive)
REMARK    1  A    between atoms: C_1  and  N_2
REMARK    2  A    between atoms: N_6  and  C_7
REMARK    3  A    between atoms: C_7  and  C_8
REMARK    4  A    between atoms: N_13  and  C_14
REMARK    5  A    between atoms: C_16  and  C_17
REMARK                            x       y       z     vdW  Elec       q    Type
REMARK                         _______ _______ _______ _____ _____    ______ ____
ROOT
ATOM      1  C   UNL     1       2.217   8.293  18.296  0.00  0.00    +0.000 C 
ATOM      2  O   UNL     1       1.940   8.910  17.262  0.00  0.00    +0.000 OA
ATOM      3  N   UNL     1       3.181   7.292  18.304  0.00  0.00    +0.000 N 
ATOM      4  C   UNL     1       3.889   7.006  17.052  0.00  0.00    +0.000 C 
ATOM      5  C   UNL     1       5.250   6.296  17.189  0.00  0.00    +0.000 C 
ATOM      6  N   UNL     1       5.487   5.403  18.327  0.00  0.00    +0.000 NA
ATOM      7  C   UNL     1       5.320   3.986  18.047  0.00  0.00    +0.000 C 
ATOM      8  C   UNL     1       4.777   5.849  19.539  0.00  0.00    +0.000 C 
ATOM      9  C   UNL     1       3.282   6.273  19.367  0.00  0.00    +0.000 C 
ENDROOT
BRANCH   9  10
ATOM     10  C   UNL     1       2.314   5.093  19.183  0.00  0.00    +0.000 A 
ATOM     11  C   UNL     1       1.778   4.456  20.315  0.00  0.00    +0.000 A 
ATOM     12  C   UNL     1       0.965   3.325  20.189  0.00  0.00    +0.000 A 
ATOM     13  C   UNL     1       0.665   2.813  18.930  0.00  0.00    +0.000 A 
ATOM     14  C   UNL     1       1.145   3.455  17.795  0.00  0.00    +0.000 A 
ATOM     15  C   UNL     1       1.939   4.595  17.921  0.00  0.00    +0.000 A 
ENDBRANCH   9  10
BRANCH   1  16
ATOM     16  C   UNL     1       1.508   8.666  19.609  0.00  0.00    +0.000 C 
BRANCH  16  22
ATOM     17  C   UNL     1      -0.848  12.761  22.570  0.00  0.00    +0.000 C 
ATOM     18  N   UNL     1      -0.535  12.637  21.152  0.00  0.00    +0.000 NA
ATOM     19  C   UNL     1      -1.573  11.870  20.456  0.00  0.00    +0.000 C 
ATOM     20  C   UNL     1      -1.201  11.354  19.066  0.00  0.00    +0.000 C 
ATOM     21  C   UNL     1      -0.452  10.017  19.093  0.00  0.00    +0.000 C 
ATOM     22  N   UNL     1       0.942  10.044  19.580  0.00  0.00    +0.000 NA
ATOM     23  C   UNL     1       1.054  10.637  20.926  0.00  0.00    +0.000 C 
ATOM     24  C   UNL     1       0.831  12.169  20.921  0.00  0.00    +0.000 C 
ENDBRANCH  16  22
ENDBRANCH   1  16
TORSDOF 3
ENDMDL
MODEL 3
REMARK VINA RESULT:      -6.9      0.465      1.058
REMARK  Name = 
REMARK  5 active torsions:
REMARK  status: ('A' for Active; 'I' for Inactive)
REMARK    1  A    between atoms: C_1  and  N_2
REMARK    2  A    between atoms: N_6  and  C_7
REMARK    3  A    between atoms: C_7  and  C_8
REMARK    4  A    between atoms: N_13  and  C_14
REMARK    5  A    between atoms: C_16  and  C_17
REMARK                            x       y       z     vdW  Elec       q    Type
REMARK                         _______ _______ _______ _____ _____    ______ ____
ROOT
ATOM      1  C   UNL     1       1.901   7.378  19.917  0.00  0.00    +0.000 C 
ATOM      2  O   UNL     1       1.850   7.707  21.108  0.00  0.00    +0.000 OA
ATOM      3  N   UNL     1       1.870   6.042  19.534  0.00  0.00    +0.000 N 
ATOM      4  C   UNL     1       1.744   5.027  20.585  0.00  0.00    +0.000 C 
ATOM      5  C   UNL     1       1.210   3.652  20.139  0.00  0.00    +0.000 C 
ATOM      6  N   UNL     1       1.457   3.191  18.769  0.00  0.00    +0.000 NA
ATOM      7  C   UNL     1       2.572   2.269  18.619  0.00  0.00    +0.000 C 
ATOM      8  C   UNL     1       1.484   4.306  17.806  0.00  0.00    +0.000 C 
ATOM      9  C   UNL     1       2.312   5.569  18.209  0.00  0.00    +0.000 C 
ENDROOT
BRANCH   9  10
ATOM     10  C   UNL     1       3.834   5.381  18.098  0.00  0.00    +0.000 A 
ATOM     11  C   UNL     1       4.616   5.388  19.265  0.00  0.00    +0.000 A 
ATOM     12  C   UNL     1       6.012   5.309  19.199  0.00  0.00    +0.000 A 
ATOM     13  C   UNL     1       6.651   5.215  17.967  0.00  0.00    +0.000 A 
ATOM     14  C   UNL     1       5.895   5.159  16.802  0.00  0.00    +0.000 A 
ATOM     15  C   UNL     1       4.502   5.217  16.871  0.00  0.00    +0.000 A 
ENDBRANCH   9  10
BRANCH   1  16
ATOM     16  C   UNL     1       1.960   8.469  18.836  0.00  0.00    +0.000 C 
BRANCH  16  22
ATOM     17  C   UNL     1      -2.441  11.886  19.065  0.00  0.00    +0.000 C 
ATOM     18  N   UNL     1      -1.071  12.025  19.543  0.00  0.00    +0.000 NA
ATOM     19  C   UNL     1      -0.180  12.439  18.454  0.00  0.00    +0.000 C 
ATOM     20  C   UNL     1       1.316  12.269  18.716  0.00  0.00    +0.000 C 
ATOM     21  C   UNL     1       1.835  10.862  18.396  0.00  0.00    +0.000 C 
ATOM     22  N   UNL     1       1.434   9.779  19.317  0.00  0.00    +0.000 NA
ATOM     23  C   UNL     1      -0.030   9.683  19.467  0.00  0.00    +0.000 C 
ATOM     24  C   UNL     1      -0.620  10.852  20.291  0.00  0.00    +0.000 C 
ENDBRANCH  16  22
ENDBRANCH   1  16
TORSDOF 3
ENDMDL
MODEL 4
REMARK VINA RESULT:      -6.9      1.060      1.400
REMARK  Name = 
REMARK  5 active torsions:
REMARK  status: ('A' for Active; 'I' for Inactive)
REMARK    1  A    between atoms: C_1  and  N_2
REMARK    2  A    between atoms: N_6  and  C_7
REMARK    3  A    between atoms: C_7  and  C_8
REMARK    4  A    between atoms: N_13  and  C_14
REMARK    5  A    between atoms: C_16  and  C_17
REMARK                            x       y       z     vdW  Elec       q    Type
REMARK                         _______ _______ _______ _____ _____    ______ ____
ROOT
ATOM      1  C   UNL     1       1.854   6.854  20.214  0.00  0.00    +0.000 C 
ATOM      2  O   UNL     1       1.742   6.912  21.444  0.00  0.00    +0.000 OA
ATOM      3  N   UNL     1       1.854   5.636  19.544  0.00  0.00    +0.000 N 
ATOM      4  C   UNL     1       1.686   4.414  20.337  0.00  0.00    +0.000 C 
ATOM      5  C   UNL     1       1.187   3.172  19.571  0.00  0.00    +0.000 C 
ATOM      6  N   UNL     1       1.506   3.026  18.148  0.00  0.00    +0.000 NA
ATOM      7  C   UNL     1       2.635   2.158  17.852  0.00  0.00    +0.000 C 
ATOM      8  C   UNL     1       1.570   4.326  17.457  0.00  0.00    +0.000 C 
ATOM      9  C   UNL     1       2.366   5.467  18.170  0.00  0.00    +0.000 C 
ENDROOT
BRANCH   9  10
ATOM     10  C   UNL     1       3.892   5.306  18.097  0.00  0.00    +0.000 A 
ATOM     11  C   UNL     1       4.501   5.047  16.858  0.00  0.00    +0.000 A 
ATOM     12  C   UNL     1       5.876   4.806  16.765  0.00  0.00    +0.000 A 
ATOM     13  C   UNL     1       6.670   4.827  17.907  0.00  0.00    +0.000 A 
ATOM     14  C   UNL     1       6.098   5.128  19.137  0.00  0.00    +0.000 A 
ATOM     15  C   UNL     1       4.730   5.388  19.225  0.00  0.00    +0.000 A 
ENDBRANCH   9  10
BRANCH   1  16
ATOM     16  C   UNL     1       1.956   8.158  19.405  0.00  0.00    +0.000 C 
BRANCH  16  22
ATOM     17  C   UNL     1      -0.360  13.092  18.233  0.00  0.00    +0.000 C 
ATOM     18  N   UNL     1      -0.760  12.015  19.129  0.00  0.00    +0.000 NA
ATOM     19  C   UNL     1      -0.032  12.100  20.400  0.00  0.00    +0.000 C 
ATOM     20  C   UNL     1      -0.074  10.849  21.276  0.00  0.00    +0.000 C 
ATOM     21  C   UNL     1       0.997   9.813  20.913  0.00  0.00    +0.000 C 
ATOM     22  N   UNL     1       0.805   9.073  19.649  0.00  0.00    +0.000 NA
ATOM     23  C   UNL     1       0.652   9.972  18.490  0.00  0.00    +0.000 C 
ATOM     24  C   UNL     1      -0.711  10.705  18.482  0.00  0.00    +0.000 C 
ENDBRANCH  16  22
ENDBRANCH   1  16
TORSDOF 3
ENDMDL
MODEL 5
REMARK VINA RESULT:      -6.9      2.100      3.703
REMARK  Name = 
REMARK  5 active torsions:
REMARK  status: ('A' for Active; 'I' for Inactive)
REMARK    1  A    between atoms: C_1  and  N_2
REMARK    2  A    between atoms: N_6  and  C_7
REMARK    3  A    between atoms: C_7  and  C_8
REMARK    4  A    between atoms: N_13  and  C_14
REMARK    5  A    between atoms: C_16  and  C_17
REMARK                            x       y       z     vdW  Elec       q    Type
REMARK                         _______ _______ _______ _____ _____    ______ ____
ROOT
ATOM      1  C   UNL     1       2.875   7.379  18.194  0.00  0.00    +0.000 C 
ATOM      2  O   UNL     1       2.442   8.040  17.244  0.00  0.00    +0.000 OA
ATOM      3  N   UNL     1       4.114   6.751  18.133  0.00  0.00    +0.000 N 
ATOM      4  C   UNL     1       4.913   6.921  16.915  0.00  0.00    +0.000 C 
ATOM      5  C   UNL     1       6.427   6.670  17.057  0.00  0.00    +0.000 C 
ATOM      6  N   UNL     1       6.911   5.722  18.066  0.00  0.00    +0.000 NA
ATOM      7  C   UNL     1       7.227   4.393  17.566  0.00  0.00    +0.000 C 
ATOM      8  C   UNL     1       6.058   5.708  19.267  0.00  0.00    +0.000 C 
ATOM      9  C   UNL     1       4.512   5.655  19.038  0.00  0.00    +0.000 C 
ENDROOT
BRANCH   9  10
ATOM     10  C   UNL     1       3.991   4.277  18.601  0.00  0.00    +0.000 A 
ATOM     11  C   UNL     1       3.140   4.182  17.486  0.00  0.00    +0.000 A 
ATOM     12  C   UNL     1       2.575   2.959  17.112  0.00  0.00    +0.000 A 
ATOM     13  C   UNL     1       2.855   1.805  17.838  0.00  0.00    +0.000 A 
ATOM     14  C   UNL     1       3.731   1.866  18.915  0.00  0.00    +0.000 A 
ATOM     15  C   UNL     1       4.310   3.084  19.275  0.00  0.00    +0.000 A 
ENDBRANCH   9  10
BRANCH   1  16
ATOM     16  C   UNL     1       2.045   7.281  19.484  0.00  0.00    +0.000 C 
BRANCH  16  22
ATOM     17  C   UNL     1      -0.908  10.224  23.187  0.00  0.00    +0.000 C 
ATOM     18  N   UNL     1       0.183  10.593  22.294  0.00  0.00    +0.000 NA
ATOM     19  C   UNL     1      -0.320  10.854  20.941  0.00  0.00    +0.000 C 
ATOM     20  C   UNL     1       0.733  10.889  19.835  0.00  0.00    +0.000 C 
ATOM     21  C   UNL     1       1.073   9.504  19.271  0.00  0.00    +0.000 C 
ATOM     22  N   UNL     1       1.855   8.604  20.143  0.00  0.00    +0.000 NA
ATOM     23  C   UNL     1       1.215   8.399  21.456  0.00  0.00    +0.000 C 
ATOM     24  C   UNL     1       1.300   9.652  22.361  0.00  0.00    +0.000 C 
ENDBRANCH  16  22
ENDBRANCH   1  16
TORSDOF 3
ENDMDL
MODEL 6
REMARK VINA RESULT:      -6.7      1.716      3.742
REMARK  Name = 
REMARK  5 active torsions:
REMARK  status: ('A' for Active; 'I' for Inactive)
REMARK    1  A    between atoms: C_1  and  N_2
REMARK    2  A    between atoms: N_6  and  C_7
REMARK    3  A    between atoms: C_7  and  C_8
REMARK    4  A    between atoms: N_13  and  C_14
REMARK    5  A    between atoms: C_16  and  C_17
REMARK                            x       y       z     vdW  Elec       q    Type
REMARK                         _______ _______ _______ _____ _____    ______ ____
ROOT
ATOM      1  C   UNL     1       2.180   8.238  18.325  0.00  0.00    +0.000 C 
ATOM      2  O   UNL     1       1.822   8.828  17.299  0.00  0.00    +0.000 OA
ATOM      3  N   UNL     1       3.150   7.243  18.286  0.00  0.00    +0.000 N 
ATOM      4  C   UNL     1       3.765   6.931  16.992  0.00  0.00    +0.000 C 
ATOM      5  C   UNL     1       5.138   6.232  17.044  0.00  0.00    +0.000 C 
ATOM      6  N   UNL     1       5.466   5.369  18.183  0.00  0.00    +0.000 NA
ATOM      7  C   UNL     1       5.289   3.944  17.951  0.00  0.00    +0.000 C 
ATOM      8  C   UNL     1       4.844   5.841  19.433  0.00  0.00    +0.000 C 
ATOM      9  C   UNL     1       3.337   6.251  19.363  0.00  0.00    +0.000 C 
ENDROOT
BRANCH   9  10
ATOM     10  C   UNL     1       2.367   5.062  19.280  0.00  0.00    +0.000 A 
ATOM     11  C   UNL     1       1.878   4.487  20.465  0.00  0.00    +0.000 A 
ATOM     12  C   UNL     1       1.065   3.348  20.432  0.00  0.00    +0.000 A 
ATOM     13  C   UNL     1       0.719   2.769  19.215  0.00  0.00    +0.000 A 
ATOM     14  C   UNL     1       1.152   3.349  18.029  0.00  0.00    +0.000 A 
ATOM     15  C   UNL     1       1.946   4.496  18.063  0.00  0.00    +0.000 A 
ENDBRANCH   9  10
BRANCH   1  16
ATOM     16  C   UNL     1       1.568   8.639  19.677  0.00  0.00    +0.000 C 
BRANCH  16  22
ATOM     17  C   UNL     1       1.207  14.182  20.157  0.00  0.00    +0.000 C 
ATOM     18  N   UNL     1       0.214  13.163  19.843  0.00  0.00    +0.000 NA
ATOM     19  C   UNL     1      -0.284  12.527  21.068  0.00  0.00    +0.000 C 
ATOM     20  C   UNL     1      -1.039  11.214  20.877  0.00  0.00    +0.000 C 
ATOM     21  C   UNL     1      -0.122   9.987  20.800  0.00  0.00    +0.000 C 
ATOM     22  N   UNL     1       0.684   9.835  19.572  0.00  0.00    +0.000 NA
ATOM     23  C   UNL     1       1.513  11.022  19.293  0.00  0.00    +0.000 C 
ATOM     24  C   UNL     1       0.676  12.233  18.815  0.00  0.00    +0.000 C 
ENDBRANCH  16  22
ENDBRANCH   1  16
TORSDOF 3
ENDMDL
MODEL 7
REMARK VINA RESULT:      -6.7      1.884      3.885
REMARK  Name = 
REMARK  5 active torsions:
REMARK  status: ('A' for Active; 'I' for Inactive)
REMARK    1  A    between atoms: C_1  and  N_2
REMARK    2  A    between atoms: N_6  and  C_7
REMARK    3  A    between atoms: C_7  and  C_8
REMARK    4  A    between atoms: N_13  and  C_14
REMARK    5  A    between atoms: C_16  and  C_17
REMARK                            x       y       z     vdW  Elec       q    Type
REMARK                         _______ _______ _______ _____ _____    ______ ____
ROOT
ATOM      1  C   UNL     1       1.982   8.089  19.162  0.00  0.00    +0.000 C 
ATOM      2  O   UNL     1       1.435   8.817  18.326  0.00  0.00    +0.000 OA
ATOM      3  N   UNL     1       2.930   7.144  18.789  0.00  0.00    +0.000 N 
ATOM      4  C   UNL     1       3.290   7.054  17.370  0.00  0.00    +0.000 C 
ATOM      5  C   UNL     1       4.651   6.400  17.056  0.00  0.00    +0.000 C 
ATOM      6  N   UNL     1       5.190   5.384  17.965  0.00  0.00    +0.000 NA
ATOM      7  C   UNL     1       4.977   4.006  17.550  0.00  0.00    +0.000 C 
ATOM      8  C   UNL     1       4.814   5.638  19.367  0.00  0.00    +0.000 C 
ATOM      9  C   UNL     1       3.320   6.006  19.643  0.00  0.00    +0.000 C 
ENDROOT
BRANCH   9  10
ATOM     10  C   UNL     1       2.355   4.813  19.557  0.00  0.00    +0.000 A 
ATOM     11  C   UNL     1       2.037   4.096  20.723  0.00  0.00    +0.000 A 
ATOM     12  C   UNL     1       1.234   2.951  20.671  0.00  0.00    +0.000 A 
ATOM     13  C   UNL     1       0.728   2.506  19.453  0.00  0.00    +0.000 A 
ATOM     14  C   UNL     1       0.990   3.226  18.294  0.00  0.00    +0.000 A 
ATOM     15  C   UNL     1       1.774   4.378  18.351  0.00  0.00    +0.000 A 
ENDBRANCH   9  10
BRANCH   1  16
ATOM     16  C   UNL     1       1.634   8.259  20.651  0.00  0.00    +0.000 C 
BRANCH  16  22
ATOM     17  C   UNL     1       0.076  13.533  21.569  0.00  0.00    +0.000 C 
ATOM     18  N   UNL     1      -0.684  12.294  21.472  0.00  0.00    +0.000 NA
ATOM     19  C   UNL     1      -0.646  11.561  22.742  0.00  0.00    +0.000 C 
ATOM     20  C   UNL     1      -1.080  10.097  22.680  0.00  0.00    +0.000 C 
ATOM     21  C   UNL     1       0.051   9.143  22.277  0.00  0.00    +0.000 C 
ATOM     22  N   UNL     1       0.491   9.191  20.868  0.00  0.00    +0.000 NA
ATOM     23  C   UNL     1       0.893  10.547  20.451  0.00  0.00    +0.000 C 
ATOM     24  C   UNL     1      -0.315  11.503  20.299  0.00  0.00    +0.000 C 
ENDBRANCH  16  22
ENDBRANCH   1  16
TORSDOF 3
ENDMDL
MODEL 8
REMARK VINA RESULT:      -6.6      1.282      1.917
REMARK  Name = 
REMARK  5 active torsions:
REMARK  status: ('A' for Active; 'I' for Inactive)
REMARK    1  A    between atoms: C_1  and  N_2
REMARK    2  A    between atoms: N_6  and  C_7
REMARK    3  A    between atoms: C_7  and  C_8
REMARK    4  A    between atoms: N_13  and  C_14
REMARK    5  A    between atoms: C_16  and  C_17
REMARK                            x       y       z     vdW  Elec       q    Type
REMARK                         _______ _______ _______ _____ _____    ______ ____
ROOT
ATOM      1  C   UNL     1       2.181   6.389  19.923  0.00  0.00    +0.000 C 
ATOM      2  O   UNL     1       1.976   6.510  21.136  0.00  0.00    +0.000 OA
ATOM      3  N   UNL     1       2.341   5.138  19.338  0.00  0.00    +0.000 N 
ATOM      4  C   UNL     1       2.227   3.956  20.198  0.00  0.00    +0.000 C 
ATOM      5  C   UNL     1       1.900   2.628  19.486  0.00  0.00    +0.000 C 
ATOM      6  N   UNL     1       2.332   2.427  18.100  0.00  0.00    +0.000 NA
ATOM      7  C   UNL     1       3.554   1.654  17.939  0.00  0.00    +0.000 C 
ATOM      8  C   UNL     1       2.328   3.683  17.330  0.00  0.00    +0.000 C 
ATOM      9  C   UNL     1       2.963   4.936  18.015  0.00  0.00    +0.000 C 
ENDROOT
BRANCH   9  10
ATOM     10  C   UNL     1       4.499   4.916  18.055  0.00  0.00    +0.000 A 
ATOM     11  C   UNL     1       5.164   5.282  19.238  0.00  0.00    +0.000 A 
ATOM     12  C   UNL     1       6.560   5.363  19.286  0.00  0.00    +0.000 A 
ATOM     13  C   UNL     1       7.319   5.071  18.156  0.00  0.00    +0.000 A 
ATOM     14  C   UNL     1       6.685   4.661  16.989  0.00  0.00    +0.000 A 
ATOM     15  C   UNL     1       5.294   4.562  16.949  0.00  0.00    +0.000 A 
ENDBRANCH   9  10
BRANCH   1  16
ATOM     16  C   UNL     1       2.223   7.645  19.037  0.00  0.00    +0.000 C 
BRANCH  16  22
ATOM     17  C   UNL     1       0.447  12.909  18.566  0.00  0.00    +0.000 C 
ATOM     18  N   UNL     1      -0.090  11.758  19.280  0.00  0.00    +0.000 NA
ATOM     19  C   UNL     1       0.592  11.579  20.566  0.00  0.00    +0.000 C 
ATOM     20  C   UNL     1       0.393  10.224  21.243  0.00  0.00    +0.000 C 
ATOM     21  C   UNL     1       1.371   9.149  20.753  0.00  0.00    +0.000 C 
ATOM     22  N   UNL     1       1.158   8.627  19.388  0.00  0.00    +0.000 NA
ATOM     23  C   UNL     1       1.139   9.698  18.374  0.00  0.00    +0.000 C 
ATOM     24  C   UNL     1      -0.144  10.560  18.444  0.00  0.00    +0.000 C 
ENDBRANCH  16  22
ENDBRANCH   1  16
TORSDOF 3
ENDMDL
MODEL 9
REMARK VINA RESULT:      -6.6      0.994      1.524
REMARK  Name = 
REMARK  5 active torsions:
REMARK  status: ('A' for Active; 'I' for Inactive)
REMARK    1  A    between atoms: C_1  and  N_2
REMARK    2  A    between atoms: N_6  and  C_7
REMARK    3  A    between atoms: C_7  and  C_8
REMARK    4  A    between atoms: N_13  and  C_14
REMARK    5  A    between atoms: C_16  and  C_17
REMARK                            x       y       z     vdW  Elec       q    Type
REMARK                         _______ _______ _______ _____ _____    ______ ____
ROOT
ATOM      1  C   UNL     1       2.120   7.677  19.207  0.00  0.00    +0.000 C 
ATOM      2  O   UNL     1       1.996   8.238  20.302  0.00  0.00    +0.000 OA
ATOM      3  N   UNL     1       2.066   6.292  19.095  0.00  0.00    +0.000 N 
ATOM      4  C   UNL     1       1.826   5.511  20.312  0.00  0.00    +0.000 C 
ATOM      5  C   UNL     1       1.274   4.086  20.106  0.00  0.00    +0.000 C 
ATOM      6  N   UNL     1       1.601   3.356  18.877  0.00  0.00    +0.000 NA
ATOM      7  C   UNL     1       2.688   2.397  18.999  0.00  0.00    +0.000 C 
ATOM      8  C   UNL     1       1.739   4.255  17.718  0.00  0.00    +0.000 C 
ATOM      9  C   UNL     1       2.584   5.554  17.927  0.00  0.00    +0.000 C 
ENDROOT
BRANCH   9  10
ATOM     10  C   UNL     1       4.101   5.313  17.974  0.00  0.00    +0.000 A 
ATOM     11  C   UNL     1       4.766   4.867  16.820  0.00  0.00    +0.000 A 
ATOM     12  C   UNL     1       6.129   4.553  16.848  0.00  0.00    +0.000 A 
ATOM     13  C   UNL     1       6.855   4.685  18.027  0.00  0.00    +0.000 A 
ATOM     14  C   UNL     1       6.229   5.170  19.170  0.00  0.00    +0.000 A 
ATOM     15  C   UNL     1       4.874   5.502  19.135  0.00  0.00    +0.000 A 
ENDBRANCH   9  10
BRANCH   1  16
ATOM     16  C   UNL     1       2.297   8.529  17.940  0.00  0.00    +0.000 C 
BRANCH  16  22
ATOM     17  C   UNL     1       0.016  12.747  20.784  0.00  0.00    +0.000 C 
ATOM     18  N   UNL     1      -0.180  12.270  19.421  0.00  0.00    +0.000 NA
ATOM     19  C   UNL     1      -1.106  11.132  19.397  0.00  0.00    +0.000 C 
ATOM     20  C   UNL     1      -1.118  10.310  18.109  0.00  0.00    +0.000 C 
ATOM     21  C   UNL     1      -0.033   9.227  18.066  0.00  0.00    +0.000 C 
ATOM     22  N   UNL     1       1.360   9.687  17.894  0.00  0.00    +0.000 NA
ATOM     23  C   UNL     1       1.759  10.667  18.922  0.00  0.00    +0.000 C 
ATOM     24  C   UNL     1       1.084  12.046  18.722  0.00  0.00    +0.000 C 
ENDBRANCH  16  22
ENDBRANCH   1  16
TORSDOF 3
ENDMDL
