MODEL 1
REMARK VINA RESULT:      -8.3      0.000      0.000
REMARK  Name = 
REMARK  6 active torsions:
REMARK  status: ('A' for Active; 'I' for Inactive)
REMARK    1  A    between atoms: C_1  and  O_2
REMARK    2  A    between atoms: O_2  and  C_3
REMARK    3  A    between atoms: C_8  and  O_9
REMARK    4  A    between atoms: C_10  and  C_11
REMARK    5  A    between atoms: C_14  and  O_15
REMARK    6  A    between atoms: C_16  and  O_17
REMARK                            x       y       z     vdW  Elec       q    Type
REMARK                         _______ _______ _______ _____ _____    ______ ____
ROOT
ATOM      1  C   UNL     1       6.180   5.339  16.524  0.00  0.00    +0.000 A 
ATOM      2  C   UNL     1       5.976   4.413  17.557  0.00  0.00    +0.000 A 
ATOM      3  C   UNL     1       4.783   4.393  18.302  0.00  0.00    +0.000 A 
ATOM      4  C   UNL     1       3.779   5.348  18.015  0.00  0.00    +0.000 A 
ATOM      5  C   UNL     1       3.959   6.213  16.920  0.00  0.00    +0.000 A 
ATOM      6  C   UNL     1       5.147   6.214  16.189  0.00  0.00    +0.000 A 
ATOM      7  C   UNL     1       2.484   5.437  18.833  0.00  0.00    +0.000 C 
ATOM      8  C   UNL     1       2.612   4.633  20.128  0.00  0.00    +0.000 C 
ATOM      9  C   UNL     1       1.331   4.286  20.857  0.00  0.00    +0.000 C 
ATOM     10  O   UNL     1       1.621   3.085  21.602  0.00  0.00    +0.000 OA
ATOM     11  C   UNL     1       2.886   2.555  21.151  0.00  0.00    +0.000 C 
ATOM     12  C   UNL     1       3.177   3.258  19.846  0.00  0.00    +0.000 C 
ATOM     13  C   UNL     1       4.632   3.375  19.418  0.00  0.00    +0.000 C 
ENDROOT
BRANCH   7  14
ATOM     14  C   UNL     1       2.076   6.872  19.152  0.00  0.00    +0.000 A 
ATOM     15  C   UNL     1       1.753   7.264  20.467  0.00  0.00    +0.000 A 
ATOM     16  C   UNL     1       1.386   8.578  20.757  0.00  0.00    +0.000 A 
ATOM     17  C   UNL     1       1.349   9.511  19.729  0.00  0.00    +0.000 A 
ATOM     18  C   UNL     1       1.680   9.137  18.429  0.00  0.00    +0.000 A 
ATOM     19  C   UNL     1       2.042   7.833  18.129  0.00  0.00    +0.000 A 
BRANCH  17  20
ATOM     20  O   UNL     1       0.996  10.812  19.949  0.00  0.00    +0.000 OA
ATOM     21  H   UNL     1       0.505  10.853  20.786  0.00  0.00    +0.000 HD
ENDBRANCH  17  20
BRANCH  18  22
ATOM     22  O   UNL     1       1.650  10.065  17.427  0.00  0.00    +0.000 OA
ATOM     23  H   UNL     1       1.031   9.693  16.767  0.00  0.00    +0.000 HD
ENDBRANCH  18  22
ENDBRANCH   7  14
BRANCH   1  25
ATOM     24  C   UNL     1       7.374   4.750  14.568  0.00  0.00    +0.000 C 
ATOM     25  O   UNL     1       7.401   5.240  15.906  0.00  0.00    +0.000 OA
ENDBRANCH   1  25
BRANCH   6  26
ATOM     26  O   UNL     1       5.260   7.083  15.138  0.00  0.00    +0.000 OA
ATOM     27  H   UNL     1       5.128   6.595  14.310  0.00  0.00    +0.000 HD
ENDBRANCH   6  26
TORSDOF 5
ENDMDL
MODEL 2
REMARK VINA RESULT:      -8.1      0.591      1.393
REMARK  Name = 
REMARK  6 active torsions:
REMARK  status: ('A' for Active; 'I' for Inactive)
REMARK    1  A    between atoms: C_1  and  O_2
REMARK    2  A    between atoms: O_2  and  C_3
REMARK    3  A    between atoms: C_8  and  O_9
REMARK    4  A    between atoms: C_10  and  C_11
REMARK    5  A    between atoms: C_14  and  O_15
REMARK    6  A    between atoms: C_16  and  O_17
REMARK                            x       y       z     vdW  Elec       q    Type
REMARK                         _______ _______ _______ _____ _____    ______ ____
ROOT
ATOM      1  C   UNL     1       6.166   5.335  16.533  0.00  0.00    +0.000 A 
ATOM      2  C   UNL     1       5.952   4.403  17.559  0.00  0.00    +0.000 A 
ATOM      3  C   UNL     1       4.757   4.387  18.301  0.00  0.00    +0.000 A 
ATOM      4  C   UNL     1       3.762   5.351  18.018  0.00  0.00    +0.000 A 
ATOM      5  C   UNL     1       3.951   6.223  16.930  0.00  0.00    +0.000 A 
ATOM      6  C   UNL     1       5.141   6.221  16.202  0.00  0.00    +0.000 A 
ATOM      7  C   UNL     1       2.465   5.445  18.834  0.00  0.00    +0.000 C 
ATOM      8  C   UNL     1       2.584   4.631  20.124  0.00  0.00    +0.000 C 
ATOM      9  C   UNL     1       1.298   4.289  20.847  0.00  0.00    +0.000 C 
ATOM     10  O   UNL     1       1.577   3.080  21.584  0.00  0.00    +0.000 OA
ATOM     11  C   UNL     1       2.839   2.544  21.133  0.00  0.00    +0.000 C 
ATOM     12  C   UNL     1       3.139   3.254  19.833  0.00  0.00    +0.000 C 
ATOM     13  C   UNL     1       4.595   3.363  19.410  0.00  0.00    +0.000 C 
ENDROOT
BRANCH   7  14
ATOM     14  C   UNL     1       2.067   6.881  19.162  0.00  0.00    +0.000 A 
ATOM     15  C   UNL     1       1.916   7.846  18.146  0.00  0.00    +0.000 A 
ATOM     16  C   UNL     1       1.546   9.157  18.447  0.00  0.00    +0.000 A 
ATOM     17  C   UNL     1       1.317   9.506  19.771  0.00  0.00    +0.000 A 
ATOM     18  C   UNL     1       1.450   8.556  20.782  0.00  0.00    +0.000 A 
ATOM     19  C   UNL     1       1.820   7.252  20.493  0.00  0.00    +0.000 A 
BRANCH  17  20
ATOM     20  O   UNL     1       0.955  10.773  20.130  0.00  0.00    +0.000 OA
ATOM     21  H   UNL     1       0.626  10.745  21.043  0.00  0.00    +0.000 HD
ENDBRANCH  17  20
BRANCH  18  22
ATOM     22  O   UNL     1       1.212   8.907  22.079  0.00  0.00    +0.000 OA
ATOM     23  H   UNL     1       2.002   8.597  22.565  0.00  0.00    +0.000 HD
ENDBRANCH  18  22
ENDBRANCH   7  14
BRANCH   1  25
ATOM     24  C   UNL     1       7.358   4.763  14.572  0.00  0.00    +0.000 C 
ATOM     25  O   UNL     1       7.387   5.231  15.918  0.00  0.00    +0.000 OA
ENDBRANCH   1  25
BRANCH   6  26
ATOM     26  O   UNL     1       5.263   7.096  15.158  0.00  0.00    +0.000 OA
ATOM     27  H   UNL     1       4.625   6.854  14.467  0.00  0.00    +0.000 HD
ENDBRANCH   6  26
TORSDOF 5
ENDMDL
MODEL 3
REMARK VINA RESULT:      -8.0      4.092      8.803
REMARK  Name = 
REMARK  6 active torsions:
REMARK  status: ('A' for Active; 'I' for Inactive)
REMARK    1  A    between atoms: C_1  and  O_2
REMARK    2  A    between atoms: O_2  and  C_3
REMARK    3  A    between atoms: C_8  and  O_9
REMARK    4  A    between atoms: C_10  and  C_11
REMARK    5  A    between atoms: C_14  and  O_15
REMARK    6  A    between atoms: C_16  and  O_17
REMARK                            x       y       z     vdW  Elec       q    Type
REMARK                         _______ _______ _______ _____ _____    ______ ____
ROOT
ATOM      1  C   UNL     1      -3.886  10.943  17.851  0.00  0.00    +0.000 A 
ATOM      2  C   UNL     1      -3.523  11.825  18.880  0.00  0.00    +0.000 A 
ATOM      3  C   UNL     1      -2.176  12.028  19.233  0.00  0.00    +0.000 A 
ATOM      4  C   UNL     1      -1.172  11.304  18.549  0.00  0.00    +0.000 A 
ATOM      5  C   UNL     1      -1.542  10.491  17.463  0.00  0.00    +0.000 A 
ATOM      6  C   UNL     1      -2.882  10.306  17.123  0.00  0.00    +0.000 A 
ATOM      7  C   UNL     1       0.312  11.415  18.929  0.00  0.00    +0.000 C 
ATOM      8  C   UNL     1       0.466  12.097  20.289  0.00  0.00    +0.000 C 
ATOM      9  C   UNL     1       1.837  12.638  20.640  0.00  0.00    +0.000 C 
ATOM     10  O   UNL     1       1.602  13.711  21.575  0.00  0.00    +0.000 OA
ATOM     11  C   UNL     1       0.191  14.015  21.587  0.00  0.00    +0.000 C 
ATOM     12  C   UNL     1      -0.376  13.352  20.353  0.00  0.00    +0.000 C 
ATOM     13  C   UNL     1      -1.852  12.983  20.367  0.00  0.00    +0.000 C 
ENDROOT
BRANCH   7  14
ATOM     14  C   UNL     1       1.029  10.069  18.938  0.00  0.00    +0.000 A 
ATOM     15  C   UNL     1       1.774   9.631  17.825  0.00  0.00    +0.000 A 
ATOM     16  C   UNL     1       2.435   8.403  17.838  0.00  0.00    +0.000 A 
ATOM     17  C   UNL     1       2.357   7.607  18.974  0.00  0.00    +0.000 A 
ATOM     18  C   UNL     1       1.634   8.036  20.085  0.00  0.00    +0.000 A 
ATOM     19  C   UNL     1       0.972   9.254  20.080  0.00  0.00    +0.000 A 
BRANCH  17  20
ATOM     20  O   UNL     1       2.979   6.393  19.047  0.00  0.00    +0.000 OA
ATOM     21  H   UNL     1       3.695   6.382  18.391  0.00  0.00    +0.000 HD
ENDBRANCH  17  20
BRANCH  18  22
ATOM     22  O   UNL     1       1.573   7.251  21.200  0.00  0.00    +0.000 OA
ATOM     23  H   UNL     1       0.720   6.778  21.119  0.00  0.00    +0.000 HD
ENDBRANCH  18  22
ENDBRANCH   7  14
BRANCH   1  25
ATOM     24  C   UNL     1      -5.922  12.078  17.450  0.00  0.00    +0.000 C 
ATOM     25  O   UNL     1      -5.238  10.843  17.641  0.00  0.00    +0.000 OA
ENDBRANCH   1  25
BRANCH   6  26
ATOM     26  O   UNL     1      -3.175   9.499  16.058  0.00  0.00    +0.000 OA
ATOM     27  H   UNL     1      -3.986   9.002  16.252  0.00  0.00    +0.000 HD
ENDBRANCH   6  26
TORSDOF 5
ENDMDL
MODEL 4
REMARK VINA RESULT:      -7.6      4.018      8.709
REMARK  Name = 
REMARK  6 active torsions:
REMARK  status: ('A' for Active; 'I' for Inactive)
REMARK    1  A    between atoms: C_1  and  O_2
REMARK    2  A    between atoms: O_2  and  C_3
REMARK    3  A    between atoms: C_8  and  O_9
REMARK    4  A    between atoms: C_10  and  C_11
REMARK    5  A    between atoms: C_14  and  O_15
REMARK    6  A    between atoms: C_16  and  O_17
REMARK                            x       y       z     vdW  Elec       q    Type
REMARK                         _______ _______ _______ _____ _____    ______ ____
ROOT
ATOM      1  C   UNL     1      -3.845  10.905  17.782  0.00  0.00    +0.000 A 
ATOM      2  C   UNL     1      -3.529  11.856  18.764  0.00  0.00    +0.000 A 
ATOM      3  C   UNL     1      -2.205  12.054  19.197  0.00  0.00    +0.000 A 
ATOM      4  C   UNL     1      -1.177  11.256  18.644  0.00  0.00    +0.000 A 
ATOM      5  C   UNL     1      -1.493  10.369  17.599  0.00  0.00    +0.000 A 
ATOM      6  C   UNL     1      -2.811  10.189  17.179  0.00  0.00    +0.000 A 
ATOM      7  C   UNL     1       0.279  11.361  19.120  0.00  0.00    +0.000 C 
ATOM      8  C   UNL     1       0.358  12.144  20.432  0.00  0.00    +0.000 C 
ATOM      9  C   UNL     1       1.715  12.678  20.838  0.00  0.00    +0.000 C 
ATOM     10  O   UNL     1       1.447  13.827  21.670  0.00  0.00    +0.000 OA
ATOM     11  C   UNL     1       0.048  14.163  21.557  0.00  0.00    +0.000 C 
ATOM     12  C   UNL     1      -0.450  13.419  20.339  0.00  0.00    +0.000 C 
ATOM     13  C   UNL     1      -1.933  13.088  20.274  0.00  0.00    +0.000 C 
ENDROOT
BRANCH   7  14
ATOM     14  C   UNL     1       0.954  10.004  19.284  0.00  0.00    +0.000 A 
ATOM     15  C   UNL     1       0.780   9.239  20.456  0.00  0.00    +0.000 A 
ATOM     16  C   UNL     1       1.393   7.994  20.601  0.00  0.00    +0.000 A 
ATOM     17  C   UNL     1       2.180   7.505  19.567  0.00  0.00    +0.000 A 
ATOM     18  C   UNL     1       2.347   8.246  18.399  0.00  0.00    +0.000 A 
ATOM     19  C   UNL     1       1.745   9.485  18.246  0.00  0.00    +0.000 A 
BRANCH  17  20
ATOM     20  O   UNL     1       2.808   6.294  19.650  0.00  0.00    +0.000 OA
ATOM     21  H   UNL     1       2.194   5.665  20.060  0.00  0.00    +0.000 HD
ENDBRANCH  17  20
BRANCH  18  22
ATOM     22  O   UNL     1       3.114   7.751  17.384  0.00  0.00    +0.000 OA
ATOM     23  H   UNL     1       3.853   7.296  17.836  0.00  0.00    +0.000 HD
ENDBRANCH  18  22
ENDBRANCH   7  14
BRANCH   1  25
ATOM     24  C   UNL     1      -6.068  10.978  18.587  0.00  0.00    +0.000 C 
ATOM     25  O   UNL     1      -5.181  10.821  17.483  0.00  0.00    +0.000 OA
ENDBRANCH   1  25
BRANCH   6  26
ATOM     26  O   UNL     1      -3.052   9.309  16.160  0.00  0.00    +0.000 OA
ATOM     27  H   UNL     1      -2.841   8.411  16.462  0.00  0.00    +0.000 HD
ENDBRANCH   6  26
TORSDOF 5
ENDMDL
MODEL 5
REMARK VINA RESULT:      -7.5      1.358      6.118
REMARK  Name = 
REMARK  6 active torsions:
REMARK  status: ('A' for Active; 'I' for Inactive)
REMARK    1  A    between atoms: C_1  and  O_2
REMARK    2  A    between atoms: O_2  and  C_3
REMARK    3  A    between atoms: C_8  and  O_9
REMARK    4  A    between atoms: C_10  and  C_11
REMARK    5  A    between atoms: C_14  and  O_15
REMARK    6  A    between atoms: C_16  and  O_17
REMARK                            x       y       z     vdW  Elec       q    Type
REMARK                         _______ _______ _______ _____ _____    ______ ____
ROOT
ATOM      1  C   UNL     1       2.480   3.028  20.894  0.00  0.00    +0.000 A 
ATOM      2  C   UNL     1       2.114   4.355  21.159  0.00  0.00    +0.000 A 
ATOM      3  C   UNL     1       2.220   5.357  20.176  0.00  0.00    +0.000 A 
ATOM      4  C   UNL     1       2.731   5.016  18.902  0.00  0.00    +0.000 A 
ATOM      5  C   UNL     1       3.010   3.666  18.622  0.00  0.00    +0.000 A 
ATOM      6  C   UNL     1       2.895   2.686  19.608  0.00  0.00    +0.000 A 
ATOM      7  C   UNL     1       2.946   6.067  17.804  0.00  0.00    +0.000 C 
ATOM      8  C   UNL     1       2.868   7.477  18.391  0.00  0.00    +0.000 C 
ATOM      9  C   UNL     1       2.667   8.621  17.419  0.00  0.00    +0.000 C 
ATOM     10  O   UNL     1       2.021   9.665  18.177  0.00  0.00    +0.000 OA
ATOM     11  C   UNL     1       1.587   9.119  19.441  0.00  0.00    +0.000 C 
ATOM     12  C   UNL     1       1.650   7.618  19.276  0.00  0.00    +0.000 C 
ATOM     13  C   UNL     1       1.823   6.778  20.532  0.00  0.00    +0.000 C 
ENDROOT
BRANCH   7  14
ATOM     14  C   UNL     1       4.263   5.888  17.055  0.00  0.00    +0.000 A 
ATOM     15  C   UNL     1       4.401   4.915  16.044  0.00  0.00    +0.000 A 
ATOM     16  C   UNL     1       5.604   4.758  15.356  0.00  0.00    +0.000 A 
ATOM     17  C   UNL     1       6.675   5.582  15.673  0.00  0.00    +0.000 A 
ATOM     18  C   UNL     1       6.545   6.555  16.661  0.00  0.00    +0.000 A 
ATOM     19  C   UNL     1       5.355   6.717  17.353  0.00  0.00    +0.000 A 
BRANCH  17  20
ATOM     20  O   UNL     1       7.880   5.475  15.037  0.00  0.00    +0.000 OA
ATOM     21  H   UNL     1       8.533   5.987  15.541  0.00  0.00    +0.000 HD
ENDBRANCH  17  20
BRANCH  18  22
ATOM     22  O   UNL     1       7.602   7.367  16.958  0.00  0.00    +0.000 OA
ATOM     23  H   UNL     1       7.542   7.503  17.925  0.00  0.00    +0.000 HD
ENDBRANCH  18  22
ENDBRANCH   7  14
BRANCH   1  25
ATOM     24  C   UNL     1       1.039   2.147  22.551  0.00  0.00    +0.000 C 
ATOM     25  O   UNL     1       2.336   2.177  21.960  0.00  0.00    +0.000 OA
ENDBRANCH   1  25
BRANCH   6  26
ATOM     26  O   UNL     1       3.185   1.392  19.272  0.00  0.00    +0.000 OA
ATOM     27  H   UNL     1       4.069   1.360  18.871  0.00  0.00    +0.000 HD
ENDBRANCH   6  26
TORSDOF 5
ENDMDL
MODEL 6
REMARK VINA RESULT:      -7.4      1.366      6.155
REMARK  Name = 
REMARK  6 active torsions:
REMARK  status: ('A' for Active; 'I' for Inactive)
REMARK    1  A    between atoms: C_1  and  O_2
REMARK    2  A    between atoms: O_2  and  C_3
REMARK    3  A    between atoms: C_8  and  O_9
REMARK    4  A    between atoms: C_10  and  C_11
REMARK    5  A    between atoms: C_14  and  O_15
REMARK    6  A    between atoms: C_16  and  O_17
REMARK                            x       y       z     vdW  Elec       q    Type
REMARK                         _______ _______ _______ _____ _____    ______ ____
ROOT
ATOM      1  C   UNL     1       2.535   3.099  20.857  0.00  0.00    +0.000 A 
ATOM      2  C   UNL     1       2.152   4.424  21.110  0.00  0.00    +0.000 A 
ATOM      3  C   UNL     1       2.265   5.423  20.126  0.00  0.00    +0.000 A 
ATOM      4  C   UNL     1       2.802   5.082  18.863  0.00  0.00    +0.000 A 
ATOM      5  C   UNL     1       3.100   3.734  18.593  0.00  0.00    +0.000 A 
ATOM      6  C   UNL     1       2.976   2.756  19.580  0.00  0.00    +0.000 A 
ATOM      7  C   UNL     1       3.027   6.131  17.765  0.00  0.00    +0.000 C 
ATOM      8  C   UNL     1       2.924   7.543  18.345  0.00  0.00    +0.000 C 
ATOM      9  C   UNL     1       2.729   8.681  17.365  0.00  0.00    +0.000 C 
ATOM     10  O   UNL     1       2.059   9.722  18.108  0.00  0.00    +0.000 OA
ATOM     11  C   UNL     1       1.608   9.176  19.366  0.00  0.00    +0.000 C 
ATOM     12  C   UNL     1       1.688   7.675  19.207  0.00  0.00    +0.000 C 
ATOM     13  C   UNL     1       1.847   6.841  20.469  0.00  0.00    +0.000 C 
ENDROOT
BRANCH   7  14
ATOM     14  C   UNL     1       4.358   5.963  17.041  0.00  0.00    +0.000 A 
ATOM     15  C   UNL     1       5.530   6.589  17.512  0.00  0.00    +0.000 A 
ATOM     16  C   UNL     1       6.748   6.429  16.852  0.00  0.00    +0.000 A 
ATOM     17  C   UNL     1       6.800   5.632  15.716  0.00  0.00    +0.000 A 
ATOM     18  C   UNL     1       5.651   4.997  15.250  0.00  0.00    +0.000 A 
ATOM     19  C   UNL     1       4.435   5.153  15.897  0.00  0.00    +0.000 A 
BRANCH  17  20
ATOM     20  O   UNL     1       7.962   5.438  15.025  0.00  0.00    +0.000 OA
ATOM     21  H   UNL     1       7.927   4.557  14.619  0.00  0.00    +0.000 HD
ENDBRANCH  17  20
BRANCH  18  22
ATOM     22  O   UNL     1       5.715   4.207  14.138  0.00  0.00    +0.000 OA
ATOM     23  H   UNL     1       5.839   4.836  13.398  0.00  0.00    +0.000 HD
ENDBRANCH  18  22
ENDBRANCH   7  14
BRANCH   1  25
ATOM     24  C   UNL     1       1.074   2.212  22.493  0.00  0.00    +0.000 C 
ATOM     25  O   UNL     1       2.380   2.250  21.924  0.00  0.00    +0.000 OA
ENDBRANCH   1  25
BRANCH   6  26
ATOM     26  O   UNL     1       3.286   1.464  19.254  0.00  0.00    +0.000 OA
ATOM     27  H   UNL     1       2.866   1.243  18.407  0.00  0.00    +0.000 HD
ENDBRANCH   6  26
TORSDOF 5
ENDMDL
MODEL 7
REMARK VINA RESULT:      -7.4      1.359      4.652
REMARK  Name = 
REMARK  6 active torsions:
REMARK  status: ('A' for Active; 'I' for Inactive)
REMARK    1  A    between atoms: C_1  and  O_2
REMARK    2  A    between atoms: O_2  and  C_3
REMARK    3  A    between atoms: C_8  and  O_9
REMARK    4  A    between atoms: C_10  and  C_11
REMARK    5  A    between atoms: C_14  and  O_15
REMARK    6  A    between atoms: C_16  and  O_17
REMARK                            x       y       z     vdW  Elec       q    Type
REMARK                         _______ _______ _______ _____ _____    ______ ____
ROOT
ATOM      1  C   UNL     1       6.285   5.562  16.384  0.00  0.00    +0.000 A 
ATOM      2  C   UNL     1       5.412   6.636  16.165  0.00  0.00    +0.000 A 
ATOM      3  C   UNL     1       4.436   6.995  17.112  0.00  0.00    +0.000 A 
ATOM      4  C   UNL     1       4.321   6.236  18.300  0.00  0.00    +0.000 A 
ATOM      5  C   UNL     1       5.259   5.217  18.547  0.00  0.00    +0.000 A 
ATOM      6  C   UNL     1       6.223   4.878  17.598  0.00  0.00    +0.000 A 
ATOM      7  C   UNL     1       3.232   6.519  19.344  0.00  0.00    +0.000 C 
ATOM      8  C   UNL     1       2.160   7.442  18.763  0.00  0.00    +0.000 C 
ATOM      9  C   UNL     1       1.237   8.134  19.744  0.00  0.00    +0.000 C 
ATOM     10  O   UNL     1       0.797   9.337  19.081  0.00  0.00    +0.000 OA
ATOM     11  C   UNL     1       1.603   9.536  17.900  0.00  0.00    +0.000 C 
ATOM     12  C   UNL     1       2.797   8.624  18.067  0.00  0.00    +0.000 C 
ATOM     13  C   UNL     1       3.510   8.159  16.807  0.00  0.00    +0.000 C 
ENDROOT
BRANCH   7  14
ATOM     14  C   UNL     1       2.585   5.251  19.892  0.00  0.00    +0.000 A 
ATOM     15  C   UNL     1       2.705   4.898  21.252  0.00  0.00    +0.000 A 
ATOM     16  C   UNL     1       2.106   3.742  21.752  0.00  0.00    +0.000 A 
ATOM     17  C   UNL     1       1.376   2.934  20.890  0.00  0.00    +0.000 A 
ATOM     18  C   UNL     1       1.239   3.281  19.548  0.00  0.00    +0.000 A 
ATOM     19  C   UNL     1       1.833   4.426  19.041  0.00  0.00    +0.000 A 
BRANCH  17  20
ATOM     20  O   UNL     1       0.768   1.788  21.319  0.00  0.00    +0.000 OA
ATOM     21  H   UNL     1       1.324   1.037  21.056  0.00  0.00    +0.000 HD
ENDBRANCH  17  20
BRANCH  18  22
ATOM     22  O   UNL     1       0.509   2.485  18.712  0.00  0.00    +0.000 OA
ATOM     23  H   UNL     1       1.179   2.014  18.176  0.00  0.00    +0.000 HD
ENDBRANCH  18  22
ENDBRANCH   7  14
BRANCH   1  25
ATOM     24  C   UNL     1       6.683   4.491  14.313  0.00  0.00    +0.000 C 
ATOM     25  O   UNL     1       7.166   5.328  15.359  0.00  0.00    +0.000 OA
ENDBRANCH   1  25
BRANCH   6  26
ATOM     26  O   UNL     1       7.104   3.876  17.898  0.00  0.00    +0.000 OA
ATOM     27  H   UNL     1       6.674   3.248  18.502  0.00  0.00    +0.000 HD
ENDBRANCH   6  26
TORSDOF 5
ENDMDL
MODEL 8
REMARK VINA RESULT:      -7.3      6.232      9.388
REMARK  Name = 
REMARK  6 active torsions:
REMARK  status: ('A' for Active; 'I' for Inactive)
REMARK    1  A    between atoms: C_1  and  O_2
REMARK    2  A    between atoms: O_2  and  C_3
REMARK    3  A    between atoms: C_8  and  O_9
REMARK    4  A    between atoms: C_10  and  C_11
REMARK    5  A    between atoms: C_14  and  O_15
REMARK    6  A    between atoms: C_16  and  O_17
REMARK                            x       y       z     vdW  Elec       q    Type
REMARK                         _______ _______ _______ _____ _____    ______ ____
ROOT
ATOM      1  C   UNL     1       0.207  10.720  20.916  0.00  0.00    +0.000 A 
ATOM      2  C   UNL     1      -0.011  10.153  19.653  0.00  0.00    +0.000 A 
ATOM      3  C   UNL     1      -1.098  10.543  18.849  0.00  0.00    +0.000 A 
ATOM      4  C   UNL     1      -2.002  11.512  19.342  0.00  0.00    +0.000 A 
ATOM      5  C   UNL     1      -1.723  12.137  20.572  0.00  0.00    +0.000 A 
ATOM      6  C   UNL     1      -0.638  11.740  21.353  0.00  0.00    +0.000 A 
ATOM      7  C   UNL     1      -3.252  11.933  18.557  0.00  0.00    +0.000 C 
ATOM      8  C   UNL     1      -3.526  10.948  17.419  0.00  0.00    +0.000 C 
ATOM      9  C   UNL     1      -4.462  11.404  16.319  0.00  0.00    +0.000 C 
ATOM     10  O   UNL     1      -4.080  10.652  15.148  0.00  0.00    +0.000 OA
ATOM     11  C   UNL     1      -2.822   9.994  15.410  0.00  0.00    +0.000 C 
ATOM     12  C   UNL     1      -2.260  10.671  16.639  0.00  0.00    +0.000 C 
ATOM     13  C   UNL     1      -1.287   9.878  17.498  0.00  0.00    +0.000 C 
ENDROOT
BRANCH   7  14
ATOM     14  C   UNL     1      -4.491  12.071  19.434  0.00  0.00    +0.000 A 
ATOM     15  C   UNL     1      -4.614  13.123  20.365  0.00  0.00    +0.000 A 
ATOM     16  C   UNL     1      -5.752  13.251  21.162  0.00  0.00    +0.000 A 
ATOM     17  C   UNL     1      -6.778  12.327  21.024  0.00  0.00    +0.000 A 
ATOM     18  C   UNL     1      -6.674  11.292  20.098  0.00  0.00    +0.000 A 
ATOM     19  C   UNL     1      -5.547  11.154  19.304  0.00  0.00    +0.000 A 
BRANCH  17  20
ATOM     20  O   UNL     1      -7.917  12.397  21.778  0.00  0.00    +0.000 OA
ATOM     21  H   UNL     1      -8.187  13.328  21.827  0.00  0.00    +0.000 HD
ENDBRANCH  17  20
BRANCH  18  22
ATOM     22  O   UNL     1      -7.695  10.395  19.964  0.00  0.00    +0.000 OA
ATOM     23  H   UNL     1      -8.474  10.943  19.740  0.00  0.00    +0.000 HD
ENDBRANCH  18  22
ENDBRANCH   7  14
BRANCH   1  25
ATOM     24  C   UNL     1       1.068   9.026  22.324  0.00  0.00    +0.000 C 
ATOM     25  O   UNL     1       1.297  10.220  21.582  0.00  0.00    +0.000 OA
ENDBRANCH   1  25
BRANCH   6  26
ATOM     26  O   UNL     1      -0.424  12.385  22.540  0.00  0.00    +0.000 OA
ATOM     27  H   UNL     1       0.367  12.014  22.963  0.00  0.00    +0.000 HD
ENDBRANCH   6  26
TORSDOF 5
ENDMDL
MODEL 9
REMARK VINA RESULT:      -7.2      5.240      9.953
REMARK  Name = 
REMARK  6 active torsions:
REMARK  status: ('A' for Active; 'I' for Inactive)
REMARK    1  A    between atoms: C_1  and  O_2
REMARK    2  A    between atoms: O_2  and  C_3
REMARK    3  A    between atoms: C_8  and  O_9
REMARK    4  A    between atoms: C_10  and  C_11
REMARK    5  A    between atoms: C_14  and  O_15
REMARK    6  A    between atoms: C_16  and  O_17
REMARK                            x       y       z     vdW  Elec       q    Type
REMARK                         _______ _______ _______ _____ _____    ______ ____
ROOT
ATOM      1  C   UNL     1      -5.301  11.724  18.458  0.00  0.00    +0.000 A 
ATOM      2  C   UNL     1      -5.167  12.377  19.691  0.00  0.00    +0.000 A 
ATOM      3  C   UNL     1      -3.903  12.671  20.235  0.00  0.00    +0.000 A 
ATOM      4  C   UNL     1      -2.744  12.273  19.528  0.00  0.00    +0.000 A 
ATOM      5  C   UNL     1      -2.891  11.698  18.252  0.00  0.00    +0.000 A 
ATOM      6  C   UNL     1      -4.153  11.419  17.728  0.00  0.00    +0.000 A 
ATOM      7  C   UNL     1      -1.333  12.490  20.092  0.00  0.00    +0.000 C 
ATOM      8  C   UNL     1      -1.400  12.845  21.579  0.00  0.00    +0.000 C 
ATOM      9  C   UNL     1      -0.166  13.467  22.197  0.00  0.00    +0.000 C 
ATOM     10  O   UNL     1      -0.642  14.247  23.314  0.00  0.00    +0.000 OA
ATOM     11  C   UNL     1      -2.080  14.345  23.230  0.00  0.00    +0.000 C 
ATOM     12  C   UNL     1      -2.433  13.922  21.822  0.00  0.00    +0.000 C 
ATOM     13  C   UNL     1      -3.827  13.365  21.582  0.00  0.00    +0.000 C 
ENDROOT
BRANCH   7  14
ATOM     14  C   UNL     1      -0.415  11.290  19.885  0.00  0.00    +0.000 A 
ATOM     15  C   UNL     1      -0.389  10.223  20.807  0.00  0.00    +0.000 A 
ATOM     16  C   UNL     1       0.446   9.123  20.612  0.00  0.00    +0.000 A 
ATOM     17  C   UNL     1       1.257   9.083  19.486  0.00  0.00    +0.000 A 
ATOM     18  C   UNL     1       1.229  10.125  18.562  0.00  0.00    +0.000 A 
ATOM     19  C   UNL     1       0.405  11.224  18.748  0.00  0.00    +0.000 A 
BRANCH  17  20
ATOM     20  O   UNL     1       2.099   8.035  19.241  0.00  0.00    +0.000 OA
ATOM     21  H   UNL     1       1.654   7.431  18.625  0.00  0.00    +0.000 HD
ENDBRANCH  17  20
BRANCH  18  22
ATOM     22  O   UNL     1       2.024  10.071  17.453  0.00  0.00    +0.000 OA
ATOM     23  H   UNL     1       2.911  10.329  17.774  0.00  0.00    +0.000 HD
ENDBRANCH  18  22
ENDBRANCH   7  14
BRANCH   1  25
ATOM     24  C   UNL     1      -7.483  12.602  18.212  0.00  0.00    +0.000 C 
ATOM     25  O   UNL     1      -6.598  11.494  18.075  0.00  0.00    +0.000 OA
ENDBRANCH   1  25
BRANCH   6  26
ATOM     26  O   UNL     1      -4.226  10.856  16.483  0.00  0.00    +0.000 OA
ATOM     27  H   UNL     1      -3.860   9.958  16.521  0.00  0.00    +0.000 HD
ENDBRANCH   6  26
TORSDOF 5
ENDMDL
