MODEL 1
REMARK VINA RESULT:      -8.0      0.000      0.000
REMARK  Name = 
REMARK  8 active torsions:
REMARK  status: ('A' for Active; 'I' for Inactive)
REMARK    1  A    between atoms: C_1  and  C_2
REMARK    2  A    between atoms: C_2  and  C_3
REMARK    3  A    between atoms: C_2  and  C_4
REMARK    4  A    between atoms: C_4  and  C_5
REMARK    5  A    between atoms: N_7  and  C_8
REMARK    6  A    between atoms: C_8  and  C_9
REMARK    7  A    between atoms: N_20  and  C_21
REMARK    8  A    between atoms: N_24  and  C_25
REMARK                            x       y       z     vdW  Elec       q    Type
REMARK                         _______ _______ _______ _____ _____    ______ ____
ROOT
ATOM      1  C   UNL     1       6.551   5.729  17.058  0.00  0.00    +0.000 C 
ATOM      2  C   UNL     1       7.326   4.528  17.632  0.00  0.00    +0.000 C 
ATOM      3  O   UNL     1       8.437   4.138  17.305  0.00  0.00    +0.000 OA
ATOM      4  N   UNL     1       6.517   3.915  18.585  0.00  0.00    +0.000 N 
ATOM      5  C   UNL     1       5.276   4.457  18.586  0.00  0.00    +0.000 A 
ATOM      6  C   UNL     1       5.239   5.475  17.735  0.00  0.00    +0.000 A 
ATOM      7  C   UNL     1       3.999   6.196  17.513  0.00  0.00    +0.000 A 
ATOM      8  O   UNL     1       4.008   7.207  16.820  0.00  0.00    +0.000 OA
ATOM      9  N   UNL     1       2.887   5.632  18.120  0.00  0.00    +0.000 N 
ATOM     10  C   UNL     1       1.581   6.183  17.816  0.00  0.00    +0.000 C 
ATOM     11  C   UNL     1       2.929   4.598  19.067  0.00  0.00    +0.000 A 
ATOM     12  O   UNL     1       1.919   4.220  19.662  0.00  0.00    +0.000 OA
ATOM     13  N   UNL     1       4.191   4.034  19.291  0.00  0.00    +0.000 N 
ATOM     14  C   UNL     1       4.317   2.948  20.250  0.00  0.00    +0.000 C 
ATOM     15  H   UNL     1       6.794   3.063  19.052  0.00  0.00    +0.000 HD
ENDROOT
BRANCH   1  18
ATOM     16  C   UNL     1       6.084   4.532  14.890  0.00  0.00    +0.000 C 
ATOM     17  O   UNL     1       5.927   3.447  15.442  0.00  0.00    +0.000 OA
ATOM     18  N   UNL     1       6.456   5.659  15.579  0.00  0.00    +0.000 N 
ATOM     19  H   UNL     1       6.633   6.519  15.068  0.00  0.00    +0.000 HD
BRANCH  16  20
ATOM     20  C   UNL     1       5.889   4.741  13.397  0.00  0.00    +0.000 C 
BRANCH  20  22
ATOM     21  C   UNL     1       4.577   3.322  11.755  0.00  0.00    +0.000 C 
ATOM     22  C   UNL     1       5.835   3.410  12.626  0.00  0.00    +0.000 C 
ATOM     23  C   UNL     1       7.075   3.237  11.747  0.00  0.00    +0.000 C 
ENDBRANCH  20  22
ENDBRANCH  16  20
ENDBRANCH   1  18
BRANCH   1  24
ATOM     24  C   UNL     1       7.251   6.996  17.593  0.00  0.00    +0.000 C 
ATOM     25  F   UNL     1       8.168   7.448  16.694  0.00  0.00    +0.000 F 
ATOM     26  F   UNL     1       6.388   8.018  17.812  0.00  0.00    +0.000 F 
ATOM     27  F   UNL     1       7.913   6.807  18.756  0.00  0.00    +0.000 F 
ENDBRANCH   1  24
TORSDOF 4
ENDMDL
MODEL 2
REMARK VINA RESULT:      -7.0      1.754      2.251
REMARK  Name = 
REMARK  8 active torsions:
REMARK  status: ('A' for Active; 'I' for Inactive)
REMARK    1  A    between atoms: C_1  and  C_2
REMARK    2  A    between atoms: C_2  and  C_3
REMARK    3  A    between atoms: C_2  and  C_4
REMARK    4  A    between atoms: C_4  and  C_5
REMARK    5  A    between atoms: N_7  and  C_8
REMARK    6  A    between atoms: C_8  and  C_9
REMARK    7  A    between atoms: N_20  and  C_21
REMARK    8  A    between atoms: N_24  and  C_25
REMARK                            x       y       z     vdW  Elec       q    Type
REMARK                         _______ _______ _______ _____ _____    ______ ____
ROOT
ATOM      1  C   UNL     1       4.866   4.862  17.125  0.00  0.00    +0.000 C 
ATOM      2  C   UNL     1       6.201   4.320  17.672  0.00  0.00    +0.000 C 
ATOM      3  O   UNL     1       7.313   4.463  17.187  0.00  0.00    +0.000 OA
ATOM      4  N   UNL     1       5.924   3.586  18.822  0.00  0.00    +0.000 N 
ATOM      5  C   UNL     1       4.589   3.448  18.997  0.00  0.00    +0.000 A 
ATOM      6  C   UNL     1       3.947   4.138  18.062  0.00  0.00    +0.000 A 
ATOM      7  C   UNL     1       2.498   4.111  18.000  0.00  0.00    +0.000 A 
ATOM      8  O   UNL     1       1.916   4.847  17.210  0.00  0.00    +0.000 OA
ATOM      9  N   UNL     1       1.900   3.206  18.863  0.00  0.00    +0.000 N 
ATOM     10  C   UNL     1       0.471   2.986  18.752  0.00  0.00    +0.000 C 
ATOM     11  C   UNL     1       2.564   2.522  19.893  0.00  0.00    +0.000 A 
ATOM     12  O   UNL     1       1.957   1.823  20.706  0.00  0.00    +0.000 OA
ATOM     13  N   UNL     1       3.953   2.694  19.937  0.00  0.00    +0.000 N 
ATOM     14  C   UNL     1       4.716   2.010  20.968  0.00  0.00    +0.000 C 
ATOM     15  H   UNL     1       6.645   3.081  19.319  0.00  0.00    +0.000 HD
ENDROOT
BRANCH   1  18
ATOM     16  C   UNL     1       5.514   4.824  14.690  0.00  0.00    +0.000 C 
ATOM     17  O   UNL     1       6.451   5.601  14.855  0.00  0.00    +0.000 OA
ATOM     18  N   UNL     1       4.661   4.476  15.708  0.00  0.00    +0.000 N 
ATOM     19  H   UNL     1       3.865   3.879  15.506  0.00  0.00    +0.000 HD
BRANCH  16  20
ATOM     20  C   UNL     1       5.199   4.175  13.353  0.00  0.00    +0.000 C 
BRANCH  20  22
ATOM     21  C   UNL     1       6.040   2.366  11.787  0.00  0.00    +0.000 C 
ATOM     22  C   UNL     1       6.437   3.514  12.721  0.00  0.00    +0.000 C 
ATOM     23  C   UNL     1       7.267   4.538  11.943  0.00  0.00    +0.000 C 
ENDBRANCH  20  22
ENDBRANCH  16  20
ENDBRANCH   1  18
BRANCH   1  24
ATOM     24  C   UNL     1       4.877   6.384  17.376  0.00  0.00    +0.000 C 
ATOM     25  F   UNL     1       4.201   6.682  18.519  0.00  0.00    +0.000 F 
ATOM     26  F   UNL     1       6.129   6.882  17.526  0.00  0.00    +0.000 F 
ATOM     27  F   UNL     1       4.302   7.107  16.389  0.00  0.00    +0.000 F 
ENDBRANCH   1  24
TORSDOF 4
ENDMDL
MODEL 3
REMARK VINA RESULT:      -6.6      0.567      1.181
REMARK  Name = 
REMARK  8 active torsions:
REMARK  status: ('A' for Active; 'I' for Inactive)
REMARK    1  A    between atoms: C_1  and  C_2
REMARK    2  A    between atoms: C_2  and  C_3
REMARK    3  A    between atoms: C_2  and  C_4
REMARK    4  A    between atoms: C_4  and  C_5
REMARK    5  A    between atoms: N_7  and  C_8
REMARK    6  A    between atoms: C_8  and  C_9
REMARK    7  A    between atoms: N_20  and  C_21
REMARK    8  A    between atoms: N_24  and  C_25
REMARK                            x       y       z     vdW  Elec       q    Type
REMARK                         _______ _______ _______ _____ _____    ______ ____
ROOT
ATOM      1  C   UNL     1       6.405   5.737  16.987  0.00  0.00    +0.000 C 
ATOM      2  C   UNL     1       7.251   4.535  17.448  0.00  0.00    +0.000 C 
ATOM      3  O   UNL     1       8.340   4.187  17.017  0.00  0.00    +0.000 OA
ATOM      4  N   UNL     1       6.537   3.865  18.438  0.00  0.00    +0.000 N 
ATOM      5  C   UNL     1       5.289   4.374  18.562  0.00  0.00    +0.000 A 
ATOM      6  C   UNL     1       5.159   5.423  17.758  0.00  0.00    +0.000 A 
ATOM      7  C   UNL     1       3.890   6.119  17.667  0.00  0.00    +0.000 A 
ATOM      8  O   UNL     1       3.818   7.157  17.016  0.00  0.00    +0.000 OA
ATOM      9  N   UNL     1       2.844   5.504  18.338  0.00  0.00    +0.000 N 
ATOM     10  C   UNL     1       1.505   6.032  18.163  0.00  0.00    +0.000 C 
ATOM     11  C   UNL     1       2.987   4.436  19.236  0.00  0.00    +0.000 A 
ATOM     12  O   UNL     1       2.038   4.009  19.895  0.00  0.00    +0.000 OA
ATOM     13  N   UNL     1       4.275   3.896  19.335  0.00  0.00    +0.000 N 
ATOM     14  C   UNL     1       4.504   2.778  20.236  0.00  0.00    +0.000 C 
ATOM     15  H   UNL     1       6.871   3.003  18.847  0.00  0.00    +0.000 HD
ENDROOT
BRANCH   1  18
ATOM     16  C   UNL     1       5.878   4.592  14.805  0.00  0.00    +0.000 C 
ATOM     17  O   UNL     1       5.881   3.473  15.311  0.00  0.00    +0.000 OA
ATOM     18  N   UNL     1       6.191   5.722  15.519  0.00  0.00    +0.000 N 
ATOM     19  H   UNL     1       6.235   6.616  15.041  0.00  0.00    +0.000 HD
BRANCH  16  20
ATOM     20  C   UNL     1       5.535   4.844  13.346  0.00  0.00    +0.000 C 
BRANCH  20  22
ATOM     21  C   UNL     1       8.043   5.043  13.024  0.00  0.00    +0.000 C 
ATOM     22  C   UNL     1       6.724   4.558  12.411  0.00  0.00    +0.000 C 
ATOM     23  C   UNL     1       6.828   3.064  12.099  0.00  0.00    +0.000 C 
ENDBRANCH  20  22
ENDBRANCH  16  20
ENDBRANCH   1  18
BRANCH   1  24
ATOM     24  C   UNL     1       7.117   7.000  17.514  0.00  0.00    +0.000 C 
ATOM     25  F   UNL     1       7.679   6.757  18.730  0.00  0.00    +0.000 F 
ATOM     26  F   UNL     1       8.119   7.415  16.701  0.00  0.00    +0.000 F 
ATOM     27  F   UNL     1       6.299   8.064  17.675  0.00  0.00    +0.000 F 
ENDBRANCH   1  24
TORSDOF 4
ENDMDL
MODEL 4
REMARK VINA RESULT:      -6.2      7.464      9.930
REMARK  Name = 
REMARK  8 active torsions:
REMARK  status: ('A' for Active; 'I' for Inactive)
REMARK    1  A    between atoms: C_1  and  C_2
REMARK    2  A    between atoms: C_2  and  C_3
REMARK    3  A    between atoms: C_2  and  C_4
REMARK    4  A    between atoms: C_4  and  C_5
REMARK    5  A    between atoms: N_7  and  C_8
REMARK    6  A    between atoms: C_8  and  C_9
REMARK    7  A    between atoms: N_20  and  C_21
REMARK    8  A    between atoms: N_24  and  C_25
REMARK                            x       y       z     vdW  Elec       q    Type
REMARK                         _______ _______ _______ _____ _____    ______ ____
ROOT
ATOM      1  C   UNL     1       0.661  10.634  19.714  0.00  0.00    +0.000 C 
ATOM      2  C   UNL     1       0.987   9.981  18.357  0.00  0.00    +0.000 C 
ATOM      3  O   UNL     1       2.081   9.618  17.953  0.00  0.00    +0.000 OA
ATOM      4  N   UNL     1      -0.196   9.904  17.626  0.00  0.00    +0.000 N 
ATOM      5  C   UNL     1      -1.197  10.559  18.258  0.00  0.00    +0.000 A 
ATOM      6  C   UNL     1      -0.764  11.000  19.434  0.00  0.00    +0.000 A 
ATOM      7  C   UNL     1      -1.638  11.783  20.287  0.00  0.00    +0.000 A 
ATOM      8  O   UNL     1      -1.268  12.077  21.418  0.00  0.00    +0.000 OA
ATOM      9  N   UNL     1      -2.843  12.144  19.703  0.00  0.00    +0.000 N 
ATOM     10  C   UNL     1      -3.706  13.067  20.414  0.00  0.00    +0.000 C 
ATOM     11  C   UNL     1      -3.332  11.633  18.491  0.00  0.00    +0.000 A 
ATOM     12  O   UNL     1      -4.462  11.899  18.082  0.00  0.00    +0.000 OA
ATOM     13  N   UNL     1      -2.453  10.800  17.788  0.00  0.00    +0.000 N 
ATOM     14  C   UNL     1      -2.879  10.238  16.517  0.00  0.00    +0.000 C 
ATOM     15  H   UNL     1      -0.213   9.566  16.674  0.00  0.00    +0.000 HD
ENDROOT
BRANCH   1  18
ATOM     16  C   UNL     1       1.626  12.882  19.108  0.00  0.00    +0.000 C 
ATOM     17  O   UNL     1       1.119  12.875  17.989  0.00  0.00    +0.000 OA
ATOM     18  N   UNL     1       1.518  11.818  19.969  0.00  0.00    +0.000 N 
ATOM     19  H   UNL     1       2.007  11.847  20.859  0.00  0.00    +0.000 HD
BRANCH  16  20
ATOM     20  C   UNL     1       2.423  14.055  19.652  0.00  0.00    +0.000 C 
BRANCH  20  22
ATOM     21  C   UNL     1       2.197  16.578  19.529  0.00  0.00    +0.000 C 
ATOM     22  C   UNL     1       2.357  15.283  18.726  0.00  0.00    +0.000 C 
ATOM     23  C   UNL     1       3.610  15.378  17.854  0.00  0.00    +0.000 C 
ENDBRANCH  20  22
ENDBRANCH  16  20
ENDBRANCH   1  18
BRANCH   1  24
ATOM     24  C   UNL     1       0.782   9.520  20.775  0.00  0.00    +0.000 C 
ATOM     25  F   UNL     1      -0.425   8.926  20.979  0.00  0.00    +0.000 F 
ATOM     26  F   UNL     1       1.640   8.537  20.407  0.00  0.00    +0.000 F 
ATOM     27  F   UNL     1       1.205   9.957  21.982  0.00  0.00    +0.000 F 
ENDBRANCH   1  24
TORSDOF 4
ENDMDL
MODEL 5
REMARK VINA RESULT:      -6.1      7.619      9.951
REMARK  Name = 
REMARK  8 active torsions:
REMARK  status: ('A' for Active; 'I' for Inactive)
REMARK    1  A    between atoms: C_1  and  C_2
REMARK    2  A    between atoms: C_2  and  C_3
REMARK    3  A    between atoms: C_2  and  C_4
REMARK    4  A    between atoms: C_4  and  C_5
REMARK    5  A    between atoms: N_7  and  C_8
REMARK    6  A    between atoms: C_8  and  C_9
REMARK    7  A    between atoms: N_20  and  C_21
REMARK    8  A    between atoms: N_24  and  C_25
REMARK                            x       y       z     vdW  Elec       q    Type
REMARK                         _______ _______ _______ _____ _____    ______ ____
ROOT
ATOM      1  C   UNL     1       0.509  10.751  19.798  0.00  0.00    +0.000 C 
ATOM      2  C   UNL     1       0.896  10.109  18.452  0.00  0.00    +0.000 C 
ATOM      3  O   UNL     1       2.012   9.771  18.086  0.00  0.00    +0.000 OA
ATOM      4  N   UNL     1      -0.258  10.008  17.680  0.00  0.00    +0.000 N 
ATOM      5  C   UNL     1      -1.296  10.639  18.278  0.00  0.00    +0.000 A 
ATOM      6  C   UNL     1      -0.914  11.086  19.469  0.00  0.00    +0.000 A 
ATOM      7  C   UNL     1      -1.834  11.848  20.292  0.00  0.00    +0.000 A 
ATOM      8  O   UNL     1      -1.510  12.148  21.436  0.00  0.00    +0.000 OA
ATOM      9  N   UNL     1      -3.025  12.184  19.667  0.00  0.00    +0.000 N 
ATOM     10  C   UNL     1      -3.932  13.086  20.349  0.00  0.00    +0.000 C 
ATOM     11  C   UNL     1      -3.460  11.665  18.438  0.00  0.00    +0.000 A 
ATOM     12  O   UNL     1      -4.581  11.907  17.990  0.00  0.00    +0.000 OA
ATOM     13  N   UNL     1      -2.539  10.853  17.765  0.00  0.00    +0.000 N 
ATOM     14  C   UNL     1      -2.908  10.285  16.478  0.00  0.00    +0.000 C 
ATOM     15  H   UNL     1      -0.236   9.672  16.727  0.00  0.00    +0.000 HD
ENDROOT
BRANCH   1  18
ATOM     16  C   UNL     1       1.429  13.030  19.238  0.00  0.00    +0.000 C 
ATOM     17  O   UNL     1       0.945  13.025  18.110  0.00  0.00    +0.000 OA
ATOM     18  N   UNL     1       1.330  11.953  20.084  0.00  0.00    +0.000 N 
ATOM     19  H   UNL     1       1.800  11.984  20.984  0.00  0.00    +0.000 HD
BRANCH  16  20
ATOM     20  C   UNL     1       2.184  14.216  19.813  0.00  0.00    +0.000 C 
BRANCH  20  22
ATOM     21  C   UNL     1       3.229  15.616  17.973  0.00  0.00    +0.000 C 
ATOM     22  C   UNL     1       3.469  14.526  19.023  0.00  0.00    +0.000 C 
ATOM     23  C   UNL     1       4.596  14.962  19.961  0.00  0.00    +0.000 C 
ENDBRANCH  20  22
ENDBRANCH  16  20
ENDBRANCH   1  18
BRANCH   1  24
ATOM     24  C   UNL     1       0.618   9.638  20.860  0.00  0.00    +0.000 C 
ATOM     25  F   UNL     1       0.843  10.175  22.090  0.00  0.00    +0.000 F 
ATOM     26  F   UNL     1      -0.514   8.899  20.962  0.00  0.00    +0.000 F 
ATOM     27  F   UNL     1       1.621   8.760  20.634  0.00  0.00    +0.000 F 
ENDBRANCH   1  24
TORSDOF 4
ENDMDL
MODEL 6
REMARK VINA RESULT:      -6.1      8.761     11.379
REMARK  Name = 
REMARK  8 active torsions:
REMARK  status: ('A' for Active; 'I' for Inactive)
REMARK    1  A    between atoms: C_1  and  C_2
REMARK    2  A    between atoms: C_2  and  C_3
REMARK    3  A    between atoms: C_2  and  C_4
REMARK    4  A    between atoms: C_4  and  C_5
REMARK    5  A    between atoms: N_7  and  C_8
REMARK    6  A    between atoms: C_8  and  C_9
REMARK    7  A    between atoms: N_20  and  C_21
REMARK    8  A    between atoms: N_24  and  C_25
REMARK                            x       y       z     vdW  Elec       q    Type
REMARK                         _______ _______ _______ _____ _____    ______ ____
ROOT
ATOM      1  C   UNL     1      10.030  12.609  19.179  0.00  0.00    +0.000 C 
ATOM      2  C   UNL     1      11.570  12.600  19.227  0.00  0.00    +0.000 C 
ATOM      3  O   UNL     1      12.292  11.721  19.670  0.00  0.00    +0.000 OA
ATOM      4  N   UNL     1      12.020  13.808  18.700  0.00  0.00    +0.000 N 
ATOM      5  C   UNL     1      10.985  14.651  18.473  0.00  0.00    +0.000 A 
ATOM      6  C   UNL     1       9.842  14.029  18.738  0.00  0.00    +0.000 A 
ATOM      7  C   UNL     1       8.582  14.737  18.622  0.00  0.00    +0.000 A 
ATOM      8  O   UNL     1       7.530  14.119  18.750  0.00  0.00    +0.000 OA
ATOM      9  N   UNL     1       8.703  16.098  18.385  0.00  0.00    +0.000 N 
ATOM     10  C   UNL     1       7.506  16.916  18.424  0.00  0.00    +0.000 C 
ATOM     11  C   UNL     1       9.899  16.748  18.043  0.00  0.00    +0.000 A 
ATOM     12  O   UNL     1       9.924  17.938  17.726  0.00  0.00    +0.000 OA
ATOM     13  N   UNL     1      11.051  15.954  18.082  0.00  0.00    +0.000 N 
ATOM     14  C   UNL     1      12.333  16.556  17.752  0.00  0.00    +0.000 C 
ATOM     15  H   UNL     1      13.000  14.053  18.688  0.00  0.00    +0.000 HD
ENDROOT
BRANCH   1  18
ATOM     16  C   UNL     1       9.628  13.152  21.607  0.00  0.00    +0.000 C 
ATOM     17  O   UNL     1      10.409  14.100  21.597  0.00  0.00    +0.000 OA
ATOM     18  N   UNL     1       9.443  12.342  20.515  0.00  0.00    +0.000 N 
ATOM     19  H   UNL     1       8.832  11.533  20.594  0.00  0.00    +0.000 HD
BRANCH  16  20
ATOM     20  C   UNL     1       8.794  12.776  22.821  0.00  0.00    +0.000 C 
BRANCH  20  22
ATOM     21  C   UNL     1       6.452  12.327  23.685  0.00  0.00    +0.000 C 
ATOM     22  C   UNL     1       7.287  12.973  22.574  0.00  0.00    +0.000 C 
ATOM     23  C   UNL     1       6.938  14.459  22.475  0.00  0.00    +0.000 C 
ENDBRANCH  20  22
ENDBRANCH  16  20
ENDBRANCH   1  18
BRANCH   1  24
ATOM     24  C   UNL     1       9.620  11.598  18.089  0.00  0.00    +0.000 C 
ATOM     25  F   UNL     1       8.643  12.121  17.299  0.00  0.00    +0.000 F 
ATOM     26  F   UNL     1      10.647  11.268  17.268  0.00  0.00    +0.000 F 
ATOM     27  F   UNL     1       9.137  10.433  18.575  0.00  0.00    +0.000 F 
ENDBRANCH   1  24
TORSDOF 4
ENDMDL
MODEL 7
REMARK VINA RESULT:      -6.1      7.857      9.717
REMARK  Name = 
REMARK  8 active torsions:
REMARK  status: ('A' for Active; 'I' for Inactive)
REMARK    1  A    between atoms: C_1  and  C_2
REMARK    2  A    between atoms: C_2  and  C_3
REMARK    3  A    between atoms: C_2  and  C_4
REMARK    4  A    between atoms: C_4  and  C_5
REMARK    5  A    between atoms: N_7  and  C_8
REMARK    6  A    between atoms: C_8  and  C_9
REMARK    7  A    between atoms: N_20  and  C_21
REMARK    8  A    between atoms: N_24  and  C_25
REMARK                            x       y       z     vdW  Elec       q    Type
REMARK                         _______ _______ _______ _____ _____    ______ ____
ROOT
ATOM      1  C   UNL     1       0.467  11.712  19.036  0.00  0.00    +0.000 C 
ATOM      2  C   UNL     1       0.946  10.275  19.319  0.00  0.00    +0.000 C 
ATOM      3  O   UNL     1       1.512   9.518  18.546  0.00  0.00    +0.000 OA
ATOM      4  N   UNL     1       0.585   9.955  20.625  0.00  0.00    +0.000 N 
ATOM      5  C   UNL     1      -0.197  10.921  21.161  0.00  0.00    +0.000 A 
ATOM      6  C   UNL     1      -0.304  11.929  20.303  0.00  0.00    +0.000 A 
ATOM      7  C   UNL     1      -1.136  13.073  20.622  0.00  0.00    +0.000 A 
ATOM      8  O   UNL     1      -1.130  14.048  19.877  0.00  0.00    +0.000 OA
ATOM      9  N   UNL     1      -1.895  12.933  21.774  0.00  0.00    +0.000 N 
ATOM     10  C   UNL     1      -2.881  13.951  22.080  0.00  0.00    +0.000 C 
ATOM     11  C   UNL     1      -1.740  11.904  22.715  0.00  0.00    +0.000 A 
ATOM     12  O   UNL     1      -2.360  11.897  23.779  0.00  0.00    +0.000 OA
ATOM     13  N   UNL     1      -0.835  10.895  22.364  0.00  0.00    +0.000 N 
ATOM     14  C   UNL     1      -0.626   9.785  23.280  0.00  0.00    +0.000 C 
ATOM     15  H   UNL     1       0.742   9.034  21.011  0.00  0.00    +0.000 HD
ENDROOT
BRANCH   1  18
ATOM     16  C   UNL     1      -1.530  11.027  17.660  0.00  0.00    +0.000 C 
ATOM     17  O   UNL     1      -1.861  10.147  18.451  0.00  0.00    +0.000 OA
ATOM     18  N   UNL     1      -0.390  11.772  17.826  0.00  0.00    +0.000 N 
ATOM     19  H   UNL     1      -0.127  12.445  17.112  0.00  0.00    +0.000 HD
BRANCH  16  20
ATOM     20  C   UNL     1      -2.338  11.378  16.422  0.00  0.00    +0.000 C 
BRANCH  20  22
ATOM     21  C   UNL     1      -4.848  11.274  16.773  0.00  0.00    +0.000 C 
ATOM     22  C   UNL     1      -3.607  10.516  16.291  0.00  0.00    +0.000 C 
ATOM     23  C   UNL     1      -3.816  10.066  14.844  0.00  0.00    +0.000 C 
ENDBRANCH  20  22
ENDBRANCH  16  20
ENDBRANCH   1  18
BRANCH   1  24
ATOM     24  C   UNL     1       1.734  12.589  18.964  0.00  0.00    +0.000 C 
ATOM     25  F   UNL     1       2.245  12.789  20.210  0.00  0.00    +0.000 F 
ATOM     26  F   UNL     1       2.721  12.025  18.227  0.00  0.00    +0.000 F 
ATOM     27  F   UNL     1       1.522  13.815  18.435  0.00  0.00    +0.000 F 
ENDBRANCH   1  24
TORSDOF 4
ENDMDL
MODEL 8
REMARK VINA RESULT:      -6.1      7.458     10.167
REMARK  Name = 
REMARK  8 active torsions:
REMARK  status: ('A' for Active; 'I' for Inactive)
REMARK    1  A    between atoms: C_1  and  C_2
REMARK    2  A    between atoms: C_2  and  C_3
REMARK    3  A    between atoms: C_2  and  C_4
REMARK    4  A    between atoms: C_4  and  C_5
REMARK    5  A    between atoms: N_7  and  C_8
REMARK    6  A    between atoms: C_8  and  C_9
REMARK    7  A    between atoms: N_20  and  C_21
REMARK    8  A    between atoms: N_24  and  C_25
REMARK                            x       y       z     vdW  Elec       q    Type
REMARK                         _______ _______ _______ _____ _____    ______ ____
ROOT
ATOM      1  C   UNL     1       0.637  10.589  19.807  0.00  0.00    +0.000 C 
ATOM      2  C   UNL     1       1.065   9.999  18.450  0.00  0.00    +0.000 C 
ATOM      3  O   UNL     1       2.189   9.664  18.109  0.00  0.00    +0.000 OA
ATOM      4  N   UNL     1      -0.062   9.943  17.635  0.00  0.00    +0.000 N 
ATOM      5  C   UNL     1      -1.114  10.561  18.222  0.00  0.00    +0.000 A 
ATOM      6  C   UNL     1      -0.769  10.954  19.443  0.00  0.00    +0.000 A 
ATOM      7  C   UNL     1      -1.711  11.690  20.265  0.00  0.00    +0.000 A 
ATOM      8  O   UNL     1      -1.424  11.939  21.432  0.00  0.00    +0.000 OA
ATOM      9  N   UNL     1      -2.875  12.066  19.614  0.00  0.00    +0.000 N 
ATOM     10  C   UNL     1      -3.797  12.949  20.302  0.00  0.00    +0.000 C 
ATOM     11  C   UNL     1      -3.272  11.603  18.350  0.00  0.00    +0.000 A 
ATOM     12  O   UNL     1      -4.374  11.877  17.874  0.00  0.00    +0.000 OA
ATOM     13  N   UNL     1      -2.336  10.810  17.676  0.00  0.00    +0.000 N 
ATOM     14  C   UNL     1      -2.666  10.300  16.354  0.00  0.00    +0.000 C 
ATOM     15  H   UNL     1      -0.009   9.647  16.670  0.00  0.00    +0.000 HD
ENDROOT
BRANCH   1  18
ATOM     16  C   UNL     1       1.625  12.864  19.362  0.00  0.00    +0.000 C 
ATOM     17  O   UNL     1       1.207  12.897  18.208  0.00  0.00    +0.000 OA
ATOM     18  N   UNL     1       1.460  11.768  20.172  0.00  0.00    +0.000 N 
ATOM     19  H   UNL     1       1.877  11.767  21.098  0.00  0.00    +0.000 HD
BRANCH  16  20
ATOM     20  C   UNL     1       2.365  14.022  20.011  0.00  0.00    +0.000 C 
BRANCH  20  22
ATOM     21  C   UNL     1       2.438  15.665  21.942  0.00  0.00    +0.000 C 
ATOM     22  C   UNL     1       1.631  14.558  21.253  0.00  0.00    +0.000 C 
ATOM     23  C   UNL     1       0.247  15.094  20.883  0.00  0.00    +0.000 C 
ENDBRANCH  20  22
ENDBRANCH  16  20
ENDBRANCH   1  18
BRANCH   1  24
ATOM     24  C   UNL     1       0.697   9.431  20.825  0.00  0.00    +0.000 C 
ATOM     25  F   UNL     1       1.035   9.898  22.058  0.00  0.00    +0.000 F 
ATOM     26  F   UNL     1      -0.491   8.794  20.965  0.00  0.00    +0.000 F 
ATOM     27  F   UNL     1       1.602   8.475  20.515  0.00  0.00    +0.000 F 
ENDBRANCH   1  24
TORSDOF 4
ENDMDL
MODEL 9
REMARK VINA RESULT:      -6.0      8.547     11.024
REMARK  Name = 
REMARK  8 active torsions:
REMARK  status: ('A' for Active; 'I' for Inactive)
REMARK    1  A    between atoms: C_1  and  C_2
REMARK    2  A    between atoms: C_2  and  C_3
REMARK    3  A    between atoms: C_2  and  C_4
REMARK    4  A    between atoms: C_4  and  C_5
REMARK    5  A    between atoms: N_7  and  C_8
REMARK    6  A    between atoms: C_8  and  C_9
REMARK    7  A    between atoms: N_20  and  C_21
REMARK    8  A    between atoms: N_24  and  C_25
REMARK                            x       y       z     vdW  Elec       q    Type
REMARK                         _______ _______ _______ _____ _____    ______ ____
ROOT
ATOM      1  C   UNL     1      -0.331  11.642  19.894  0.00  0.00    +0.000 C 
ATOM      2  C   UNL     1       0.465  11.009  18.736  0.00  0.00    +0.000 C 
ATOM      3  O   UNL     1       1.679  10.964  18.609  0.00  0.00    +0.000 OA
ATOM      4  N   UNL     1      -0.450  10.514  17.810  0.00  0.00    +0.000 N 
ATOM      5  C   UNL     1      -1.712  10.884  18.133  0.00  0.00    +0.000 A 
ATOM      6  C   UNL     1      -1.699  11.531  19.292  0.00  0.00    +0.000 A 
ATOM      7  C   UNL     1      -2.927  12.079  19.835  0.00  0.00    +0.000 A 
ATOM      8  O   UNL     1      -2.923  12.566  20.961  0.00  0.00    +0.000 OA
ATOM      9  N   UNL     1      -4.019  12.007  18.983  0.00  0.00    +0.000 N 
ATOM     10  C   UNL     1      -5.244  12.679  19.370  0.00  0.00    +0.000 C 
ATOM     11  C   UNL     1      -4.055  11.272  17.788  0.00  0.00    +0.000 A 
ATOM     12  O   UNL     1      -5.091  11.146  17.133  0.00  0.00    +0.000 OA
ATOM     13  N   UNL     1      -2.842  10.691  17.399  0.00  0.00    +0.000 N 
ATOM     14  C   UNL     1      -2.793   9.921  16.166  0.00  0.00    +0.000 C 
ATOM     15  H   UNL     1      -0.155  10.109  16.933  0.00  0.00    +0.000 HD
ENDROOT
BRANCH   1  18
ATOM     16  C   UNL     1       0.018  14.033  19.178  0.00  0.00    +0.000 C 
ATOM     17  O   UNL     1      -0.259  13.796  18.005  0.00  0.00    +0.000 OA
ATOM     18  N   UNL     1       0.079  13.047  20.132  0.00  0.00    +0.000 N 
ATOM     19  H   UNL     1       0.373  13.285  21.074  0.00  0.00    +0.000 HD
BRANCH  16  20
ATOM     20  C   UNL     1       0.325  15.429  19.693  0.00  0.00    +0.000 C 
BRANCH  20  22
ATOM     21  C   UNL     1      -0.956  17.277  18.519  0.00  0.00    +0.000 C 
ATOM     22  C   UNL     1       0.349  16.474  18.563  0.00  0.00    +0.000 C 
ATOM     23  C   UNL     1       1.530  17.432  18.729  0.00  0.00    +0.000 C 
ENDBRANCH  20  22
ENDBRANCH  16  20
ENDBRANCH   1  18
BRANCH   1  24
ATOM     24  C   UNL     1      -0.149  10.710  21.110  0.00  0.00    +0.000 C 
ATOM     25  F   UNL     1      -0.620   9.465  20.829  0.00  0.00    +0.000 F 
ATOM     26  F   UNL     1       1.150  10.561  21.466  0.00  0.00    +0.000 F 
ATOM     27  F   UNL     1      -0.799  11.125  22.220  0.00  0.00    +0.000 F 
ENDBRANCH   1  24
TORSDOF 4
ENDMDL
