MODEL 1
REMARK VINA RESULT:      -8.5      0.000      0.000
REMARK  Name = 
REMARK  8 active torsions:
REMARK  status: ('A' for Active; 'I' for Inactive)
REMARK    1  A    between atoms: C_1  and  C_2
REMARK    2  A    between atoms: C_3  and  C_4
REMARK    3  A    between atoms: C_4  and  C_5
REMARK    4  A    between atoms: C_5  and  N_6
REMARK    5  A    between atoms: N_19  and  C_20
REMARK    6  A    between atoms: C_20  and  C_21
REMARK    7  A    between atoms: N_23  and  C_24
REMARK    8  A    between atoms: C_24  and  C_25
REMARK                            x       y       z     vdW  Elec       q    Type
REMARK                         _______ _______ _______ _____ _____    ______ ____
ROOT
ATOM      1  C   UNL     1       5.988   7.411  17.240  0.00  0.00    +0.000 C 
ATOM      2  C   UNL     1       5.007   6.304  17.452  0.00  0.00    +0.000 A 
ATOM      3  C   UNL     1       3.656   6.352  17.772  0.00  0.00    +0.000 A 
ATOM      4  C   UNL     1       3.185   5.005  17.840  0.00  0.00    +0.000 A 
ATOM      5  C   UNL     1       1.919   4.437  18.099  0.00  0.00    +0.000 A 
ATOM      6  C   UNL     1       1.785   3.055  18.120  0.00  0.00    +0.000 A 
ATOM      7  F   UNL     1       0.585   2.518  18.386  0.00  0.00    +0.000 F 
ATOM      8  C   UNL     1       2.867   2.226  17.873  0.00  0.00    +0.000 A 
ATOM      9  C   UNL     1       4.128   2.761  17.591  0.00  0.00    +0.000 A 
ATOM     10  C   UNL     1       4.265   4.161  17.574  0.00  0.00    +0.000 A 
ATOM     11  N   UNL     1       5.353   4.973  17.306  0.00  0.00    +0.000 N 
ENDROOT
BRANCH   3  12
ATOM     12  C   UNL     1       2.807   7.574  17.970  0.00  0.00    +0.000 C 
BRANCH  12  13
ATOM     13  C   UNL     1       2.169   7.647  19.368  0.00  0.00    +0.000 C 
BRANCH  13  14
ATOM     14  N   UNL     1       1.596   8.935  19.760  0.00  0.00    +0.000 NA
ATOM     15  C   UNL     1       0.906   9.630  18.661  0.00  0.00    +0.000 C 
ATOM     16  C   UNL     1       0.521  11.043  19.117  0.00  0.00    +0.000 C 
ATOM     17  O   UNL     1      -0.346  10.997  20.261  0.00  0.00    +0.000 OA
ATOM     18  C   UNL     1       0.282  10.285  21.340  0.00  0.00    +0.000 C 
ATOM     19  C   UNL     1       0.682   8.862  20.915  0.00  0.00    +0.000 C 
ENDBRANCH  13  14
ENDBRANCH  12  13
ENDBRANCH   3  12
BRANCH  11  20
ATOM     20  C   UNL     1       6.653   4.494  16.842  0.00  0.00    +0.000 C 
BRANCH  20  21
ATOM     21  C   UNL     1       6.885   4.596  15.347  0.00  0.00    +0.000 C 
ATOM     22  O   UNL     1       7.534   5.528  14.871  0.00  0.00    +0.000 OA
ATOM     23  N   UNL     1       6.256   3.666  14.555  0.00  0.00    +0.000 N 
ATOM     24  H   UNL     1       5.824   2.852  14.977  0.00  0.00    +0.000 HD
BRANCH  23  25
ATOM     25  C   UNL     1       6.345   3.721  13.114  0.00  0.00    +0.000 C 
BRANCH  25  26
ATOM     26  C   UNL     1       5.207   2.950  12.527  0.00  0.00    +0.000 C 
ATOM     27  C   UNL     1       4.614   3.377  11.206  0.00  0.00    +0.000 C 
ATOM     28  C   UNL     1       5.386   2.091  11.301  0.00  0.00    +0.000 C 
ENDBRANCH  25  26
ENDBRANCH  23  25
ENDBRANCH  20  21
ENDBRANCH  11  20
TORSDOF 7
ENDMDL
MODEL 2
REMARK VINA RESULT:      -7.9      3.960      6.674
REMARK  Name = 
REMARK  8 active torsions:
REMARK  status: ('A' for Active; 'I' for Inactive)
REMARK    1  A    between atoms: C_1  and  C_2
REMARK    2  A    between atoms: C_3  and  C_4
REMARK    3  A    between atoms: C_4  and  C_5
REMARK    4  A    between atoms: C_5  and  N_6
REMARK    5  A    between atoms: N_19  and  C_20
REMARK    6  A    between atoms: C_20  and  C_21
REMARK    7  A    between atoms: N_23  and  C_24
REMARK    8  A    between atoms: C_24  and  C_25
REMARK                            x       y       z     vdW  Elec       q    Type
REMARK                         _______ _______ _______ _____ _____    ______ ____
ROOT
ATOM      1  C   UNL     1       4.975   5.343  19.342  0.00  0.00    +0.000 C 
ATOM      2  C   UNL     1       5.284   5.015  17.917  0.00  0.00    +0.000 A 
ATOM      3  C   UNL     1       4.494   4.419  16.943  0.00  0.00    +0.000 A 
ATOM      4  C   UNL     1       5.268   4.354  15.744  0.00  0.00    +0.000 A 
ATOM      5  C   UNL     1       4.997   3.881  14.443  0.00  0.00    +0.000 A 
ATOM      6  C   UNL     1       5.993   3.936  13.477  0.00  0.00    +0.000 A 
ATOM      7  F   UNL     1       5.738   3.467  12.246  0.00  0.00    +0.000 F 
ATOM      8  C   UNL     1       7.241   4.462  13.764  0.00  0.00    +0.000 A 
ATOM      9  C   UNL     1       7.532   4.960  15.038  0.00  0.00    +0.000 A 
ATOM     10  C   UNL     1       6.524   4.901  16.018  0.00  0.00    +0.000 A 
ATOM     11  N   UNL     1       6.498   5.328  17.334  0.00  0.00    +0.000 N 
ENDROOT
BRANCH   3  12
ATOM     12  C   UNL     1       3.071   3.958  17.076  0.00  0.00    +0.000 C 
BRANCH  12  13
ATOM     13  C   UNL     1       2.942   2.576  17.737  0.00  0.00    +0.000 C 
BRANCH  13  14
ATOM     14  N   UNL     1       2.493   2.555  19.130  0.00  0.00    +0.000 NA
ATOM     15  C   UNL     1       3.592   2.412  20.099  0.00  0.00    +0.000 C 
ATOM     16  C   UNL     1       3.007   2.200  21.501  0.00  0.00    +0.000 C 
ATOM     17  O   UNL     1       2.180   3.309  21.888  0.00  0.00    +0.000 OA
ATOM     18  C   UNL     1       1.121   3.503  20.936  0.00  0.00    +0.000 C 
ATOM     19  C   UNL     1       1.675   3.719  19.517  0.00  0.00    +0.000 C 
ENDBRANCH  13  14
ENDBRANCH  12  13
ENDBRANCH   3  12
BRANCH  11  20
ATOM     20  C   UNL     1       7.566   6.086  17.983  0.00  0.00    +0.000 C 
BRANCH  20  21
ATOM     21  C   UNL     1       7.571   7.574  17.692  0.00  0.00    +0.000 C 
ATOM     22  O   UNL     1       6.879   8.043  16.789  0.00  0.00    +0.000 OA
ATOM     23  N   UNL     1       8.452   8.346  18.410  0.00  0.00    +0.000 N 
ATOM     24  H   UNL     1       8.925   7.955  19.217  0.00  0.00    +0.000 HD
BRANCH  23  25
ATOM     25  C   UNL     1       8.595   9.761  18.156  0.00  0.00    +0.000 C 
BRANCH  25  26
ATOM     26  C   UNL     1       9.209  10.410  19.353  0.00  0.00    +0.000 C 
ATOM     27  C   UNL     1      10.566  11.063  19.241  0.00  0.00    +0.000 C 
ATOM     28  C   UNL     1       9.342  11.908  19.456  0.00  0.00    +0.000 C 
ENDBRANCH  25  26
ENDBRANCH  23  25
ENDBRANCH  20  21
ENDBRANCH  11  20
TORSDOF 7
ENDMDL
MODEL 3
REMARK VINA RESULT:      -7.7      4.042      6.755
REMARK  Name = 
REMARK  8 active torsions:
REMARK  status: ('A' for Active; 'I' for Inactive)
REMARK    1  A    between atoms: C_1  and  C_2
REMARK    2  A    between atoms: C_3  and  C_4
REMARK    3  A    between atoms: C_4  and  C_5
REMARK    4  A    between atoms: C_5  and  N_6
REMARK    5  A    between atoms: N_19  and  C_20
REMARK    6  A    between atoms: C_20  and  C_21
REMARK    7  A    between atoms: N_23  and  C_24
REMARK    8  A    between atoms: C_24  and  C_25
REMARK                            x       y       z     vdW  Elec       q    Type
REMARK                         _______ _______ _______ _____ _____    ______ ____
ROOT
ATOM      1  C   UNL     1       5.048   5.228  19.144  0.00  0.00    +0.000 C 
ATOM      2  C   UNL     1       5.380   4.958  17.713  0.00  0.00    +0.000 A 
ATOM      3  C   UNL     1       4.613   4.381  16.708  0.00  0.00    +0.000 A 
ATOM      4  C   UNL     1       5.403   4.376  15.517  0.00  0.00    +0.000 A 
ATOM      5  C   UNL     1       5.156   3.945  14.197  0.00  0.00    +0.000 A 
ATOM      6  C   UNL     1       6.162   4.055  13.245  0.00  0.00    +0.000 A 
ATOM      7  F   UNL     1       5.932   3.627  11.995  0.00  0.00    +0.000 F 
ATOM      8  C   UNL     1       7.396   4.596  13.567  0.00  0.00    +0.000 A 
ATOM      9  C   UNL     1       7.662   5.053  14.861  0.00  0.00    +0.000 A 
ATOM     10  C   UNL     1       6.644   4.938  15.826  0.00  0.00    +0.000 A 
ATOM     11  N   UNL     1       6.594   5.316  17.157  0.00  0.00    +0.000 N 
ENDROOT
BRANCH   3  12
ATOM     12  C   UNL     1       3.199   3.887  16.806  0.00  0.00    +0.000 C 
BRANCH  12  13
ATOM     13  C   UNL     1       3.046   2.672  17.736  0.00  0.00    +0.000 C 
BRANCH  13  14
ATOM     14  N   UNL     1       2.556   2.939  19.089  0.00  0.00    +0.000 NA
ATOM     15  C   UNL     1       1.112   2.698  19.248  0.00  0.00    +0.000 C 
ATOM     16  C   UNL     1       0.665   3.195  20.629  0.00  0.00    +0.000 C 
ATOM     17  O   UNL     1       1.374   2.514  21.676  0.00  0.00    +0.000 OA
ATOM     18  C   UNL     1       2.791   2.692  21.523  0.00  0.00    +0.000 C 
ATOM     19  C   UNL     1       3.274   2.204  20.146  0.00  0.00    +0.000 C 
ENDBRANCH  13  14
ENDBRANCH  12  13
ENDBRANCH   3  12
BRANCH  11  20
ATOM     20  C   UNL     1       7.637   6.072  17.845  0.00  0.00    +0.000 C 
BRANCH  20  21
ATOM     21  C   UNL     1       7.561   7.578  17.683  0.00  0.00    +0.000 C 
ATOM     22  O   UNL     1       6.795   8.085  16.863  0.00  0.00    +0.000 OA
ATOM     23  N   UNL     1       8.449   8.329  18.412  0.00  0.00    +0.000 N 
ATOM     24  H   UNL     1       8.987   7.896  19.155  0.00  0.00    +0.000 HD
BRANCH  23  25
ATOM     25  C   UNL     1       8.515   9.765  18.272  0.00  0.00    +0.000 C 
BRANCH  25  26
ATOM     26  C   UNL     1       9.622  10.287  19.129  0.00  0.00    +0.000 C 
ATOM     27  C   UNL     1       9.849  11.776  19.238  0.00  0.00    +0.000 C 
ATOM     28  C   UNL     1       9.344  11.005  20.425  0.00  0.00    +0.000 C 
ENDBRANCH  25  26
ENDBRANCH  23  25
ENDBRANCH  20  21
ENDBRANCH  11  20
TORSDOF 7
ENDMDL
MODEL 4
REMARK VINA RESULT:      -7.6      3.374      6.314
REMARK  Name = 
REMARK  8 active torsions:
REMARK  status: ('A' for Active; 'I' for Inactive)
REMARK    1  A    between atoms: C_1  and  C_2
REMARK    2  A    between atoms: C_3  and  C_4
REMARK    3  A    between atoms: C_4  and  C_5
REMARK    4  A    between atoms: C_5  and  N_6
REMARK    5  A    between atoms: N_19  and  C_20
REMARK    6  A    between atoms: C_20  and  C_21
REMARK    7  A    between atoms: N_23  and  C_24
REMARK    8  A    between atoms: C_24  and  C_25
REMARK                            x       y       z     vdW  Elec       q    Type
REMARK                         _______ _______ _______ _____ _____    ______ ____
ROOT
ATOM      1  C   UNL     1       5.434   4.552  19.348  0.00  0.00    +0.000 C 
ATOM      2  C   UNL     1       5.629   4.405  17.874  0.00  0.00    +0.000 A 
ATOM      3  C   UNL     1       4.861   3.734  16.931  0.00  0.00    +0.000 A 
ATOM      4  C   UNL     1       5.484   3.924  15.659  0.00  0.00    +0.000 A 
ATOM      5  C   UNL     1       5.158   3.506  14.351  0.00  0.00    +0.000 A 
ATOM      6  C   UNL     1       6.001   3.840  13.299  0.00  0.00    +0.000 A 
ATOM      7  F   UNL     1       5.698   3.425  12.060  0.00  0.00    +0.000 F 
ATOM      8  C   UNL     1       7.146   4.591  13.510  0.00  0.00    +0.000 A 
ATOM      9  C   UNL     1       7.482   5.039  14.790  0.00  0.00    +0.000 A 
ATOM     10  C   UNL     1       6.631   4.697  15.857  0.00  0.00    +0.000 A 
ATOM     11  N   UNL     1       6.679   5.006  17.205  0.00  0.00    +0.000 N 
ENDROOT
BRANCH   3  12
ATOM     12  C   UNL     1       3.584   2.980  17.160  0.00  0.00    +0.000 C 
BRANCH  12  13
ATOM     13  C   UNL     1       2.364   3.898  17.345  0.00  0.00    +0.000 C 
BRANCH  13  14
ATOM     14  N   UNL     1       1.868   4.061  18.713  0.00  0.00    +0.000 NA
ATOM     15  C   UNL     1       2.196   2.929  19.595  0.00  0.00    +0.000 C 
ATOM     16  C   UNL     1       1.466   3.103  20.934  0.00  0.00    +0.000 C 
ATOM     17  O   UNL     1       1.853   4.328  21.576  0.00  0.00    +0.000 OA
ATOM     18  C   UNL     1       1.587   5.451  20.721  0.00  0.00    +0.000 C 
ATOM     19  C   UNL     1       2.304   5.308  19.367  0.00  0.00    +0.000 C 
ENDBRANCH  13  14
ENDBRANCH  12  13
ENDBRANCH   3  12
BRANCH  11  20
ATOM     20  C   UNL     1       7.645   5.917  17.814  0.00  0.00    +0.000 C 
BRANCH  20  21
ATOM     21  C   UNL     1       7.385   7.392  17.575  0.00  0.00    +0.000 C 
ATOM     22  O   UNL     1       6.514   7.758  16.784  0.00  0.00    +0.000 OA
ATOM     23  N   UNL     1       8.226   8.282  18.196  0.00  0.00    +0.000 N 
ATOM     24  H   UNL     1       8.856   7.960  18.922  0.00  0.00    +0.000 HD
BRANCH  23  25
ATOM     25  C   UNL     1       8.116   9.705  17.973  0.00  0.00    +0.000 C 
BRANCH  25  26
ATOM     26  C   UNL     1       9.377  10.367  18.423  0.00  0.00    +0.000 C 
ATOM     27  C   UNL     1       9.349  11.805  18.880  0.00  0.00    +0.000 C 
ATOM     28  C   UNL     1       9.614  10.709  19.872  0.00  0.00    +0.000 C 
ENDBRANCH  25  26
ENDBRANCH  23  25
ENDBRANCH  20  21
ENDBRANCH  11  20
TORSDOF 7
ENDMDL
MODEL 5
REMARK VINA RESULT:      -7.4      3.190      6.003
REMARK  Name = 
REMARK  8 active torsions:
REMARK  status: ('A' for Active; 'I' for Inactive)
REMARK    1  A    between atoms: C_1  and  C_2
REMARK    2  A    between atoms: C_3  and  C_4
REMARK    3  A    between atoms: C_4  and  C_5
REMARK    4  A    between atoms: C_5  and  N_6
REMARK    5  A    between atoms: N_19  and  C_20
REMARK    6  A    between atoms: C_20  and  C_21
REMARK    7  A    between atoms: N_23  and  C_24
REMARK    8  A    between atoms: C_24  and  C_25
REMARK                            x       y       z     vdW  Elec       q    Type
REMARK                         _______ _______ _______ _____ _____    ______ ____
ROOT
ATOM      1  C   UNL     1       5.505   4.546  19.407  0.00  0.00    +0.000 C 
ATOM      2  C   UNL     1       5.690   4.425  17.930  0.00  0.00    +0.000 A 
ATOM      3  C   UNL     1       4.914   3.773  16.980  0.00  0.00    +0.000 A 
ATOM      4  C   UNL     1       5.529   3.984  15.707  0.00  0.00    +0.000 A 
ATOM      5  C   UNL     1       5.192   3.590  14.395  0.00  0.00    +0.000 A 
ATOM      6  C   UNL     1       6.028   3.942  13.343  0.00  0.00    +0.000 A 
ATOM      7  F   UNL     1       5.716   3.549  12.099  0.00  0.00    +0.000 F 
ATOM      8  C   UNL     1       7.176   4.687  13.559  0.00  0.00    +0.000 A 
ATOM      9  C   UNL     1       7.522   5.111  14.845  0.00  0.00    +0.000 A 
ATOM     10  C   UNL     1       6.678   4.752  15.911  0.00  0.00    +0.000 A 
ATOM     11  N   UNL     1       6.736   5.037  17.264  0.00  0.00    +0.000 N 
ENDROOT
BRANCH   3  12
ATOM     12  C   UNL     1       3.638   3.016  17.205  0.00  0.00    +0.000 C 
BRANCH  12  13
ATOM     13  C   UNL     1       2.420   3.933  17.415  0.00  0.00    +0.000 C 
BRANCH  13  14
ATOM     14  N   UNL     1       2.430   4.770  18.616  0.00  0.00    +0.000 NA
ATOM     15  C   UNL     1       2.209   6.199  18.337  0.00  0.00    +0.000 C 
ATOM     16  C   UNL     1       2.436   7.006  19.621  0.00  0.00    +0.000 C 
ATOM     17  O   UNL     1       1.538   6.586  20.660  0.00  0.00    +0.000 OA
ATOM     18  C   UNL     1       1.697   5.183  20.926  0.00  0.00    +0.000 C 
ATOM     19  C   UNL     1       1.477   4.342  19.656  0.00  0.00    +0.000 C 
ENDBRANCH  13  14
ENDBRANCH  12  13
ENDBRANCH   3  12
BRANCH  11  20
ATOM     20  C   UNL     1       7.708   5.936  17.883  0.00  0.00    +0.000 C 
BRANCH  20  21
ATOM     21  C   UNL     1       7.443   7.415  17.679  0.00  0.00    +0.000 C 
ATOM     22  O   UNL     1       6.494   7.797  16.994  0.00  0.00    +0.000 OA
ATOM     23  N   UNL     1       8.362   8.290  18.204  0.00  0.00    +0.000 N 
ATOM     24  H   UNL     1       9.066   7.956  18.852  0.00  0.00    +0.000 HD
BRANCH  23  25
ATOM     25  C   UNL     1       8.248   9.715  17.999  0.00  0.00    +0.000 C 
BRANCH  25  26
ATOM     26  C   UNL     1       9.313  10.407  18.786  0.00  0.00    +0.000 C 
ATOM     27  C   UNL     1      10.293  11.317  18.087  0.00  0.00    +0.000 C 
ATOM     28  C   UNL     1       9.274  11.895  19.027  0.00  0.00    +0.000 C 
ENDBRANCH  25  26
ENDBRANCH  23  25
ENDBRANCH  20  21
ENDBRANCH  11  20
TORSDOF 7
ENDMDL
MODEL 6
REMARK VINA RESULT:      -7.4      3.221      5.332
REMARK  Name = 
REMARK  8 active torsions:
REMARK  status: ('A' for Active; 'I' for Inactive)
REMARK    1  A    between atoms: C_1  and  C_2
REMARK    2  A    between atoms: C_3  and  C_4
REMARK    3  A    between atoms: C_4  and  C_5
REMARK    4  A    between atoms: C_5  and  N_6
REMARK    5  A    between atoms: N_19  and  C_20
REMARK    6  A    between atoms: C_20  and  C_21
REMARK    7  A    between atoms: N_23  and  C_24
REMARK    8  A    between atoms: C_24  and  C_25
REMARK                            x       y       z     vdW  Elec       q    Type
REMARK                         _______ _______ _______ _____ _____    ______ ____
ROOT
ATOM      1  C   UNL     1       1.419   4.595  17.812  0.00  0.00    +0.000 C 
ATOM      2  C   UNL     1       2.813   5.110  17.662  0.00  0.00    +0.000 A 
ATOM      3  C   UNL     1       3.317   6.394  17.831  0.00  0.00    +0.000 A 
ATOM      4  C   UNL     1       4.723   6.337  17.583  0.00  0.00    +0.000 A 
ATOM      5  C   UNL     1       5.750   7.304  17.622  0.00  0.00    +0.000 A 
ATOM      6  C   UNL     1       7.048   6.931  17.297  0.00  0.00    +0.000 A 
ATOM      7  F   UNL     1       8.019   7.857  17.316  0.00  0.00    +0.000 F 
ATOM      8  C   UNL     1       7.353   5.625  16.952  0.00  0.00    +0.000 A 
ATOM      9  C   UNL     1       6.361   4.641  16.927  0.00  0.00    +0.000 A 
ATOM     10  C   UNL     1       5.045   5.019  17.253  0.00  0.00    +0.000 A 
ATOM     11  N   UNL     1       3.875   4.285  17.342  0.00  0.00    +0.000 N 
ENDROOT
BRANCH   3  12
ATOM     12  C   UNL     1       2.563   7.625  18.242  0.00  0.00    +0.000 C 
BRANCH  12  13
ATOM     13  C   UNL     1       2.221   7.652  19.742  0.00  0.00    +0.000 C 
BRANCH  13  14
ATOM     14  N   UNL     1       1.129   8.538  20.149  0.00  0.00    +0.000 NA
ATOM     15  C   UNL     1       1.151   8.878  21.581  0.00  0.00    +0.000 C 
ATOM     16  C   UNL     1      -0.132   9.637  21.942  0.00  0.00    +0.000 C 
ATOM     17  O   UNL     1      -0.250  10.844  21.174  0.00  0.00    +0.000 OA
ATOM     18  C   UNL     1      -0.231  10.550  19.767  0.00  0.00    +0.000 C 
ATOM     19  C   UNL     1       1.046   9.788  19.371  0.00  0.00    +0.000 C 
ENDBRANCH  13  14
ENDBRANCH  12  13
ENDBRANCH   3  12
BRANCH  11  20
ATOM     20  C   UNL     1       3.794   2.832  17.212  0.00  0.00    +0.000 C 
BRANCH  20  21
ATOM     21  C   UNL     1       3.814   2.062  18.518  0.00  0.00    +0.000 C 
ATOM     22  O   UNL     1       3.695   0.837  18.530  0.00  0.00    +0.000 OA
ATOM     23  N   UNL     1       3.867   2.800  19.675  0.00  0.00    +0.000 N 
ATOM     24  H   UNL     1       4.074   3.792  19.633  0.00  0.00    +0.000 HD
BRANCH  23  25
ATOM     25  C   UNL     1       3.810   2.170  20.974  0.00  0.00    +0.000 C 
BRANCH  25  26
ATOM     26  C   UNL     1       2.562   2.604  21.671  0.00  0.00    +0.000 C 
ATOM     27  C   UNL     1       2.038   4.005  21.472  0.00  0.00    +0.000 C 
ATOM     28  C   UNL     1       1.277   2.834  20.916  0.00  0.00    +0.000 C 
ENDBRANCH  25  26
ENDBRANCH  23  25
ENDBRANCH  20  21
ENDBRANCH  11  20
TORSDOF 7
ENDMDL
MODEL 7
REMARK VINA RESULT:      -7.3      0.896      1.253
REMARK  Name = 
REMARK  8 active torsions:
REMARK  status: ('A' for Active; 'I' for Inactive)
REMARK    1  A    between atoms: C_1  and  C_2
REMARK    2  A    between atoms: C_3  and  C_4
REMARK    3  A    between atoms: C_4  and  C_5
REMARK    4  A    between atoms: C_5  and  N_6
REMARK    5  A    between atoms: N_19  and  C_20
REMARK    6  A    between atoms: C_20  and  C_21
REMARK    7  A    between atoms: N_23  and  C_24
REMARK    8  A    between atoms: C_24  and  C_25
REMARK                            x       y       z     vdW  Elec       q    Type
REMARK                         _______ _______ _______ _____ _____    ______ ____
ROOT
ATOM      1  C   UNL     1       6.138   7.136  17.279  0.00  0.00    +0.000 C 
ATOM      2  C   UNL     1       5.060   6.127  17.508  0.00  0.00    +0.000 A 
ATOM      3  C   UNL     1       3.805   6.272  18.083  0.00  0.00    +0.000 A 
ATOM      4  C   UNL     1       3.164   4.995  18.039  0.00  0.00    +0.000 A 
ATOM      5  C   UNL     1       1.894   4.537  18.447  0.00  0.00    +0.000 A 
ATOM      6  C   UNL     1       1.570   3.196  18.287  0.00  0.00    +0.000 A 
ATOM      7  F   UNL     1       0.368   2.759  18.694  0.00  0.00    +0.000 F 
ATOM      8  C   UNL     1       2.465   2.306  17.718  0.00  0.00    +0.000 A 
ATOM      9  C   UNL     1       3.722   2.735  17.283  0.00  0.00    +0.000 A 
ATOM     10  C   UNL     1       4.053   4.093  17.449  0.00  0.00    +0.000 A 
ATOM     11  N   UNL     1       5.184   4.811  17.102  0.00  0.00    +0.000 N 
ENDROOT
BRANCH   3  12
ATOM     12  C   UNL     1       3.184   7.528  18.619  0.00  0.00    +0.000 C 
BRANCH  12  13
ATOM     13  C   UNL     1       1.954   7.986  17.818  0.00  0.00    +0.000 C 
BRANCH  13  14
ATOM     14  N   UNL     1       1.337   9.249  18.227  0.00  0.00    +0.000 NA
ATOM     15  C   UNL     1       0.734   9.199  19.570  0.00  0.00    +0.000 C 
ATOM     16  C   UNL     1      -0.052  10.493  19.820  0.00  0.00    +0.000 C 
ATOM     17  O   UNL     1       0.804  11.642  19.730  0.00  0.00    +0.000 OA
ATOM     18  C   UNL     1       1.443  11.695  18.444  0.00  0.00    +0.000 C 
ATOM     19  C   UNL     1       2.242  10.411  18.161  0.00  0.00    +0.000 C 
ENDBRANCH  13  14
ENDBRANCH  12  13
ENDBRANCH   3  12
BRANCH  11  20
ATOM     20  C   UNL     1       6.304   4.276  16.333  0.00  0.00    +0.000 C 
BRANCH  20  21
ATOM     21  C   UNL     1       6.221   4.489  14.833  0.00  0.00    +0.000 C 
ATOM     22  O   UNL     1       6.000   5.607  14.367  0.00  0.00    +0.000 OA
ATOM     23  N   UNL     1       6.301   3.371  14.040  0.00  0.00    +0.000 N 
ATOM     24  H   UNL     1       6.592   2.486  14.440  0.00  0.00    +0.000 HD
BRANCH  23  25
ATOM     25  C   UNL     1       6.153   3.453  12.605  0.00  0.00    +0.000 C 
BRANCH  25  26
ATOM     26  C   UNL     1       4.707   3.309  12.256  0.00  0.00    +0.000 C 
ATOM     27  C   UNL     1       4.154   4.010  11.039  0.00  0.00    +0.000 C 
ATOM     28  C   UNL     1       4.262   2.511  11.057  0.00  0.00    +0.000 C 
ENDBRANCH  25  26
ENDBRANCH  23  25
ENDBRANCH  20  21
ENDBRANCH  11  20
TORSDOF 7
ENDMDL
MODEL 8
REMARK VINA RESULT:      -7.1      1.039      1.161
REMARK  Name = 
REMARK  8 active torsions:
REMARK  status: ('A' for Active; 'I' for Inactive)
REMARK    1  A    between atoms: C_1  and  C_2
REMARK    2  A    between atoms: C_3  and  C_4
REMARK    3  A    between atoms: C_4  and  C_5
REMARK    4  A    between atoms: C_5  and  N_6
REMARK    5  A    between atoms: N_19  and  C_20
REMARK    6  A    between atoms: C_20  and  C_21
REMARK    7  A    between atoms: N_23  and  C_24
REMARK    8  A    between atoms: C_24  and  C_25
REMARK                            x       y       z     vdW  Elec       q    Type
REMARK                         _______ _______ _______ _____ _____    ______ ____
ROOT
ATOM      1  C   UNL     1       5.329   7.460  17.504  0.00  0.00    +0.000 C 
ATOM      2  C   UNL     1       4.417   6.305  17.762  0.00  0.00    +0.000 A 
ATOM      3  C   UNL     1       3.154   6.272  18.339  0.00  0.00    +0.000 A 
ATOM      4  C   UNL     1       2.716   4.911  18.330  0.00  0.00    +0.000 A 
ATOM      5  C   UNL     1       1.530   4.276  18.754  0.00  0.00    +0.000 A 
ATOM      6  C   UNL     1       1.413   2.898  18.629  0.00  0.00    +0.000 A 
ATOM      7  F   UNL     1       0.292   2.294  19.052  0.00  0.00    +0.000 F 
ATOM      8  C   UNL     1       2.434   2.140  18.079  0.00  0.00    +0.000 A 
ATOM      9  C   UNL     1       3.611   2.744  17.628  0.00  0.00    +0.000 A 
ATOM     10  C   UNL     1       3.731   4.141  17.758  0.00  0.00    +0.000 A 
ATOM     11  N   UNL     1       4.740   5.013  17.389  0.00  0.00    +0.000 N 
ENDROOT
BRANCH   3  12
ATOM     12  C   UNL     1       2.350   7.433  18.846  0.00  0.00    +0.000 C 
BRANCH  12  13
ATOM     13  C   UNL     1       2.207   8.566  17.816  0.00  0.00    +0.000 C 
BRANCH  13  14
ATOM     14  N   UNL     1       1.248   9.625  18.135  0.00  0.00    +0.000 NA
ATOM     15  C   UNL     1      -0.146   9.268  17.821  0.00  0.00    +0.000 C 
ATOM     16  C   UNL     1      -1.037  10.504  18.001  0.00  0.00    +0.000 C 
ATOM     17  O   UNL     1      -0.970  10.996  19.349  0.00  0.00    +0.000 OA
ATOM     18  C   UNL     1       0.387  11.312  19.702  0.00  0.00    +0.000 C 
ATOM     19  C   UNL     1       1.310  10.093  19.532  0.00  0.00    +0.000 C 
ENDBRANCH  13  14
ENDBRANCH  12  13
ENDBRANCH   3  12
BRANCH  11  20
ATOM     20  C   UNL     1       5.928   4.635  16.629  0.00  0.00    +0.000 C 
BRANCH  20  21
ATOM     21  C   UNL     1       5.781   4.702  15.121  0.00  0.00    +0.000 C 
ATOM     22  O   UNL     1       4.886   5.373  14.604  0.00  0.00    +0.000 OA
ATOM     23  N   UNL     1       6.618   3.908  14.377  0.00  0.00    +0.000 N 
ATOM     24  H   UNL     1       7.411   3.456  14.819  0.00  0.00    +0.000 HD
BRANCH  23  25
ATOM     25  C   UNL     1       6.508   3.836  12.939  0.00  0.00    +0.000 C 
BRANCH  25  26
ATOM     26  C   UNL     1       5.391   2.910  12.582  0.00  0.00    +0.000 C 
ATOM     27  C   UNL     1       4.456   3.262  11.450  0.00  0.00    +0.000 C 
ATOM     28  C   UNL     1       5.409   2.109  11.305  0.00  0.00    +0.000 C 
ENDBRANCH  25  26
ENDBRANCH  23  25
ENDBRANCH  20  21
ENDBRANCH  11  20
TORSDOF 7
ENDMDL
MODEL 9
REMARK VINA RESULT:      -7.1      1.199      1.751
REMARK  Name = 
REMARK  8 active torsions:
REMARK  status: ('A' for Active; 'I' for Inactive)
REMARK    1  A    between atoms: C_1  and  C_2
REMARK    2  A    between atoms: C_3  and  C_4
REMARK    3  A    between atoms: C_4  and  C_5
REMARK    4  A    between atoms: C_5  and  N_6
REMARK    5  A    between atoms: N_19  and  C_20
REMARK    6  A    between atoms: C_20  and  C_21
REMARK    7  A    between atoms: N_23  and  C_24
REMARK    8  A    between atoms: C_24  and  C_25
REMARK                            x       y       z     vdW  Elec       q    Type
REMARK                         _______ _______ _______ _____ _____    ______ ____
ROOT
ATOM      1  C   UNL     1       5.718   7.020  17.471  0.00  0.00    +0.000 C 
ATOM      2  C   UNL     1       4.685   5.973  17.734  0.00  0.00    +0.000 A 
ATOM      3  C   UNL     1       3.457   6.067  18.378  0.00  0.00    +0.000 A 
ATOM      4  C   UNL     1       2.855   4.772  18.341  0.00  0.00    +0.000 A 
ATOM      5  C   UNL     1       1.622   4.266  18.805  0.00  0.00    +0.000 A 
ATOM      6  C   UNL     1       1.331   2.919  18.634  0.00  0.00    +0.000 A 
ATOM      7  F   UNL     1       0.166   2.438  19.094  0.00  0.00    +0.000 F 
ATOM      8  C   UNL     1       2.221   2.069  18.000  0.00  0.00    +0.000 A 
ATOM      9  C   UNL     1       3.440   2.546  17.508  0.00  0.00    +0.000 A 
ATOM     10  C   UNL     1       3.737   3.910  17.686  0.00  0.00    +0.000 A 
ATOM     11  N   UNL     1       4.826   4.670  17.295  0.00  0.00    +0.000 N 
ENDROOT
BRANCH   3  12
ATOM     12  C   UNL     1       2.829   7.293  18.973  0.00  0.00    +0.000 C 
BRANCH  12  13
ATOM     13  C   UNL     1       2.180   8.211  17.922  0.00  0.00    +0.000 C 
BRANCH  13  14
ATOM     14  N   UNL     1       1.351   9.305  18.431  0.00  0.00    +0.000 NA
ATOM     15  C   UNL     1       0.985   9.155  19.849  0.00  0.00    +0.000 C 
ATOM     16  C   UNL     1      -0.038  10.234  20.225  0.00  0.00    +0.000 C 
ATOM     17  O   UNL     1       0.499  11.549  20.015  0.00  0.00    +0.000 OA
ATOM     18  C   UNL     1       0.908  11.713  18.647  0.00  0.00    +0.000 C 
ATOM     19  C   UNL     1       1.936  10.644  18.236  0.00  0.00    +0.000 C 
ENDBRANCH  13  14
ENDBRANCH  12  13
ENDBRANCH   3  12
BRANCH  11  20
ATOM     20  C   UNL     1       5.920   4.185  16.457  0.00  0.00    +0.000 C 
BRANCH  20  21
ATOM     21  C   UNL     1       5.749   4.423  14.969  0.00  0.00    +0.000 C 
ATOM     22  O   UNL     1       5.094   5.380  14.555  0.00  0.00    +0.000 OA
ATOM     23  N   UNL     1       6.268   3.474  14.122  0.00  0.00    +0.000 N 
ATOM     24  H   UNL     1       6.893   2.762  14.483  0.00  0.00    +0.000 HD
BRANCH  23  25
ATOM     25  C   UNL     1       6.092   3.564  12.691  0.00  0.00    +0.000 C 
BRANCH  25  26
ATOM     26  C   UNL     1       7.351   4.084  12.078  0.00  0.00    +0.000 C 
ATOM     27  C   UNL     1       7.348   5.420  11.375  0.00  0.00    +0.000 C 
ATOM     28  C   UNL     1       8.090   5.257  12.670  0.00  0.00    +0.000 C 
ENDBRANCH  25  26
ENDBRANCH  23  25
ENDBRANCH  20  21
ENDBRANCH  11  20
TORSDOF 7
ENDMDL
