MODEL 1
REMARK VINA RESULT:      -7.7      0.000      0.000
REMARK  Name = 
REMARK  7 active torsions:
REMARK  status: ('A' for Active; 'I' for Inactive)
REMARK    1  A    between atoms: C_1  and  C_2
REMARK    2  A    between atoms: C_3  and  C_4
REMARK    3  A    between atoms: N_6  and  C_7
REMARK    4  A    between atoms: C_7  and  C_8
REMARK    5  A    between atoms: N_17  and  C_18
REMARK    6  A    between atoms: C_18  and  C_19
REMARK    7  A    between atoms: C_24  and  O_25
REMARK                            x       y       z     vdW  Elec       q    Type
REMARK                         _______ _______ _______ _____ _____    ______ ____
ROOT
ATOM      1  C   UNL     1       1.559   7.855  21.030  0.00  0.00    +0.000 C 
ATOM      2  C   UNL     1       2.065   7.943  19.641  0.00  0.00    +0.000 A 
ATOM      3  C   UNL     1       1.806   8.852  18.624  0.00  0.00    +0.000 A 
ATOM      4  N   UNL     1       2.535   8.492  17.512  0.00  0.00    +0.000 NA
ATOM      5  N   UNL     1       3.210   7.386  17.791  0.00  0.00    +0.000 NA
ATOM      6  N   UNL     1       2.937   7.046  19.071  0.00  0.00    +0.000 N 
ENDROOT
BRANCH   3   7
ATOM      7  C   UNL     1       0.896  10.000  18.638  0.00  0.00    +0.000 C 
ATOM      8  O   UNL     1       1.284  11.159  18.538  0.00  0.00    +0.000 OA
ATOM      9  N   UNL     1      -0.432   9.665  18.805  0.00  0.00    +0.000 N 
ATOM     10  H   UNL     1      -0.666   8.680  18.875  0.00  0.00    +0.000 HD
BRANCH   9  11
ATOM     11  C   UNL     1      -1.476  10.650  18.968  0.00  0.00    +0.000 C 
BRANCH  11  12
ATOM     12  C   UNL     1      -2.432  10.703  17.801  0.00  0.00    +0.000 A 
ATOM     13  C   UNL     1      -2.081  10.039  16.612  0.00  0.00    +0.000 A 
ATOM     14  C   UNL     1      -2.905  10.094  15.483  0.00  0.00    +0.000 A 
ATOM     15  C   UNL     1      -4.095  10.810  15.525  0.00  0.00    +0.000 A 
ATOM     16  C   UNL     1      -4.471  11.459  16.700  0.00  0.00    +0.000 A 
ATOM     17  C   UNL     1      -3.652  11.398  17.836  0.00  0.00    +0.000 A 
ATOM     18 CL   UNL     1      -4.201  12.212  19.258  0.00  0.00    +0.000 Cl
ENDBRANCH  11  12
ENDBRANCH   9  11
ENDBRANCH   3   7
BRANCH   6  19
ATOM     19  C   UNL     1       3.492   5.807  19.620  0.00  0.00    +0.000 C 
BRANCH  19  20
ATOM     20  C   UNL     1       2.594   4.622  19.349  0.00  0.00    +0.000 A 
ATOM     21  C   UNL     1       1.650   4.217  20.308  0.00  0.00    +0.000 A 
ATOM     22  C   UNL     1       0.752   3.183  20.033  0.00  0.00    +0.000 A 
ATOM     23  C   UNL     1       0.800   2.525  18.806  0.00  0.00    +0.000 A 
ATOM     24  C   UNL     1       1.769   2.874  17.867  0.00  0.00    +0.000 A 
ATOM     25  C   UNL     1       2.660   3.912  18.145  0.00  0.00    +0.000 A 
BRANCH  25  26
ATOM     26  O   UNL     1       3.612   4.254  17.225  0.00  0.00    +0.000 OA
ATOM     27  H   UNL     1       4.267   4.828  17.656  0.00  0.00    +0.000 HD
ENDBRANCH  25  26
ENDBRANCH  19  20
ENDBRANCH   6  19
TORSDOF 6
ENDMDL
MODEL 2
REMARK VINA RESULT:      -7.5      3.268      8.214
REMARK  Name = 
REMARK  7 active torsions:
REMARK  status: ('A' for Active; 'I' for Inactive)
REMARK    1  A    between atoms: C_1  and  C_2
REMARK    2  A    between atoms: C_3  and  C_4
REMARK    3  A    between atoms: N_6  and  C_7
REMARK    4  A    between atoms: C_7  and  C_8
REMARK    5  A    between atoms: N_17  and  C_18
REMARK    6  A    between atoms: C_18  and  C_19
REMARK    7  A    between atoms: C_24  and  O_25
REMARK                            x       y       z     vdW  Elec       q    Type
REMARK                         _______ _______ _______ _____ _____    ______ ____
ROOT
ATOM      1  C   UNL     1       2.474   8.521  17.686  0.00  0.00    +0.000 C 
ATOM      2  C   UNL     1       1.900   8.456  19.050  0.00  0.00    +0.000 A 
ATOM      3  C   UNL     1       1.862   7.430  19.983  0.00  0.00    +0.000 A 
ATOM      4  N   UNL     1       1.208   7.880  21.109  0.00  0.00    +0.000 NA
ATOM      5  N   UNL     1       0.819   9.128  20.899  0.00  0.00    +0.000 NA
ATOM      6  N   UNL     1       1.231   9.489  19.663  0.00  0.00    +0.000 N 
ENDROOT
BRANCH   3   7
ATOM      7  C   UNL     1       2.370   6.062  19.855  0.00  0.00    +0.000 C 
ATOM      8  O   UNL     1       1.653   5.073  19.956  0.00  0.00    +0.000 OA
ATOM      9  N   UNL     1       3.732   5.984  19.643  0.00  0.00    +0.000 N 
ATOM     10  H   UNL     1       4.249   6.853  19.568  0.00  0.00    +0.000 HD
BRANCH   9  11
ATOM     11  C   UNL     1       4.450   4.731  19.610  0.00  0.00    +0.000 C 
BRANCH  11  12
ATOM     12  C   UNL     1       5.234   4.527  18.337  0.00  0.00    +0.000 A 
ATOM     13  C   UNL     1       6.603   4.852  18.329  0.00  0.00    +0.000 A 
ATOM     14  C   UNL     1       7.369   4.730  17.166  0.00  0.00    +0.000 A 
ATOM     15  C   UNL     1       6.781   4.278  15.990  0.00  0.00    +0.000 A 
ATOM     16  C   UNL     1       5.430   3.933  15.981  0.00  0.00    +0.000 A 
ATOM     17  C   UNL     1       4.663   4.045  17.148  0.00  0.00    +0.000 A 
ATOM     18 CL   UNL     1       3.001   3.576  17.056  0.00  0.00    +0.000 Cl
ENDBRANCH  11  12
ENDBRANCH   9  11
ENDBRANCH   3   7
BRANCH   6  19
ATOM     19  C   UNL     1       0.861  10.804  19.136  0.00  0.00    +0.000 C 
BRANCH  19  20
ATOM     20  C   UNL     1      -0.572  10.834  18.658  0.00  0.00    +0.000 A 
ATOM     21  C   UNL     1      -1.006   9.931  17.672  0.00  0.00    +0.000 A 
ATOM     22  C   UNL     1      -2.348   9.885  17.286  0.00  0.00    +0.000 A 
ATOM     23  C   UNL     1      -3.270  10.755  17.865  0.00  0.00    +0.000 A 
ATOM     24  C   UNL     1      -2.846  11.697  18.800  0.00  0.00    +0.000 A 
ATOM     25  C   UNL     1      -1.504  11.734  19.185  0.00  0.00    +0.000 A 
BRANCH  25  26
ATOM     26  O   UNL     1      -1.086  12.659  20.101  0.00  0.00    +0.000 OA
ATOM     27  H   UNL     1      -0.316  12.301  20.574  0.00  0.00    +0.000 HD
ENDBRANCH  25  26
ENDBRANCH  19  20
ENDBRANCH   6  19
TORSDOF 6
ENDMDL
MODEL 3
REMARK VINA RESULT:      -7.5      2.375      3.181
REMARK  Name = 
REMARK  7 active torsions:
REMARK  status: ('A' for Active; 'I' for Inactive)
REMARK    1  A    between atoms: C_1  and  C_2
REMARK    2  A    between atoms: C_3  and  C_4
REMARK    3  A    between atoms: N_6  and  C_7
REMARK    4  A    between atoms: C_7  and  C_8
REMARK    5  A    between atoms: N_17  and  C_18
REMARK    6  A    between atoms: C_18  and  C_19
REMARK    7  A    between atoms: C_24  and  O_25
REMARK                            x       y       z     vdW  Elec       q    Type
REMARK                         _______ _______ _______ _____ _____    ______ ____
ROOT
ATOM      1  C   UNL     1       1.839   5.652  20.451  0.00  0.00    +0.000 C 
ATOM      2  C   UNL     1       2.386   6.459  19.336  0.00  0.00    +0.000 A 
ATOM      3  C   UNL     1       2.210   7.793  18.993  0.00  0.00    +0.000 A 
ATOM      4  N   UNL     1       2.944   8.059  17.859  0.00  0.00    +0.000 NA
ATOM      5  N   UNL     1       3.542   6.942  17.473  0.00  0.00    +0.000 NA
ATOM      6  N   UNL     1       3.216   5.971  18.355  0.00  0.00    +0.000 N 
ENDROOT
BRANCH   3   7
ATOM      7  C   UNL     1       1.372   8.799  19.650  0.00  0.00    +0.000 C 
ATOM      8  O   UNL     1       1.251   8.874  20.867  0.00  0.00    +0.000 OA
ATOM      9  N   UNL     1       0.706   9.635  18.777  0.00  0.00    +0.000 N 
ATOM     10  H   UNL     1       0.867   9.506  17.783  0.00  0.00    +0.000 HD
BRANCH   9  11
ATOM     11  C   UNL     1      -0.263  10.614  19.212  0.00  0.00    +0.000 C 
BRANCH  11  12
ATOM     12  C   UNL     1      -1.497  10.657  18.345  0.00  0.00    +0.000 A 
ATOM     13  C   UNL     1      -1.536   9.857  17.188  0.00  0.00    +0.000 A 
ATOM     14  C   UNL     1      -2.632   9.892  16.322  0.00  0.00    +0.000 A 
ATOM     15  C   UNL     1      -3.711  10.724  16.597  0.00  0.00    +0.000 A 
ATOM     16  C   UNL     1      -3.701  11.510  17.749  0.00  0.00    +0.000 A 
ATOM     17  C   UNL     1      -2.607  11.470  18.624  0.00  0.00    +0.000 A 
ATOM     18 CL   UNL     1      -2.684  12.460  20.039  0.00  0.00    +0.000 Cl
ENDBRANCH  11  12
ENDBRANCH   9  11
ENDBRANCH   3   7
BRANCH   6  19
ATOM     19  C   UNL     1       3.679   4.601  18.121  0.00  0.00    +0.000 C 
BRANCH  19  20
ATOM     20  C   UNL     1       4.981   4.573  17.355  0.00  0.00    +0.000 A 
ATOM     21  C   UNL     1       4.974   4.441  15.955  0.00  0.00    +0.000 A 
ATOM     22  C   UNL     1       6.163   4.505  15.226  0.00  0.00    +0.000 A 
ATOM     23  C   UNL     1       7.377   4.680  15.886  0.00  0.00    +0.000 A 
ATOM     24  C   UNL     1       7.409   4.753  17.277  0.00  0.00    +0.000 A 
ATOM     25  C   UNL     1       6.216   4.693  18.000  0.00  0.00    +0.000 A 
BRANCH  25  26
ATOM     26  O   UNL     1       6.246   4.763  19.365  0.00  0.00    +0.000 OA
ATOM     27  H   UNL     1       7.088   5.166  19.637  0.00  0.00    +0.000 HD
ENDBRANCH  25  26
ENDBRANCH  19  20
ENDBRANCH   6  19
TORSDOF 6
ENDMDL
MODEL 4
REMARK VINA RESULT:      -7.5      2.445      3.746
REMARK  Name = 
REMARK  7 active torsions:
REMARK  status: ('A' for Active; 'I' for Inactive)
REMARK    1  A    between atoms: C_1  and  C_2
REMARK    2  A    between atoms: C_3  and  C_4
REMARK    3  A    between atoms: N_6  and  C_7
REMARK    4  A    between atoms: C_7  and  C_8
REMARK    5  A    between atoms: N_17  and  C_18
REMARK    6  A    between atoms: C_18  and  C_19
REMARK    7  A    between atoms: C_24  and  O_25
REMARK                            x       y       z     vdW  Elec       q    Type
REMARK                         _______ _______ _______ _____ _____    ______ ____
ROOT
ATOM      1  C   UNL     1       2.798   8.387  17.554  0.00  0.00    +0.000 C 
ATOM      2  C   UNL     1       2.618   7.390  18.634  0.00  0.00    +0.000 A 
ATOM      3  C   UNL     1       1.927   7.452  19.837  0.00  0.00    +0.000 A 
ATOM      4  N   UNL     1       2.068   6.247  20.490  0.00  0.00    +0.000 NA
ATOM      5  N   UNL     1       2.836   5.457  19.755  0.00  0.00    +0.000 NA
ATOM      6  N   UNL     1       3.172   6.132  18.633  0.00  0.00    +0.000 N 
ENDROOT
BRANCH   3   7
ATOM      7  C   UNL     1       1.187   8.581  20.406  0.00  0.00    +0.000 C 
ATOM      8  O   UNL     1       0.987   8.708  21.608  0.00  0.00    +0.000 OA
ATOM      9  N   UNL     1       0.707   9.471  19.467  0.00  0.00    +0.000 N 
ATOM     10  H   UNL     1       0.922   9.291  18.492  0.00  0.00    +0.000 HD
BRANCH   9  11
ATOM     11  C   UNL     1      -0.150  10.583  19.806  0.00  0.00    +0.000 C 
BRANCH  11  12
ATOM     12  C   UNL     1      -1.327  10.734  18.873  0.00  0.00    +0.000 A 
ATOM     13  C   UNL     1      -1.334   9.999  17.673  0.00  0.00    +0.000 A 
ATOM     14  C   UNL     1      -2.374  10.134  16.749  0.00  0.00    +0.000 A 
ATOM     15  C   UNL     1      -3.426  11.005  17.008  0.00  0.00    +0.000 A 
ATOM     16  C   UNL     1      -3.448  11.729  18.199  0.00  0.00    +0.000 A 
ATOM     17  C   UNL     1      -2.411  11.587  19.132  0.00  0.00    +0.000 A 
ATOM     18 CL   UNL     1      -2.525  12.504  20.593  0.00  0.00    +0.000 Cl
ENDBRANCH  11  12
ENDBRANCH   9  11
ENDBRANCH   3   7
BRANCH   6  19
ATOM     19  C   UNL     1       4.091   5.519  17.673  0.00  0.00    +0.000 C 
BRANCH  19  20
ATOM     20  C   UNL     1       5.524   5.925  17.929  0.00  0.00    +0.000 A 
ATOM     21  C   UNL     1       6.096   6.989  17.210  0.00  0.00    +0.000 A 
ATOM     22  C   UNL     1       7.387   7.435  17.501  0.00  0.00    +0.000 A 
ATOM     23  C   UNL     1       8.133   6.811  18.498  0.00  0.00    +0.000 A 
ATOM     24  C   UNL     1       7.604   5.716  19.180  0.00  0.00    +0.000 A 
ATOM     25  C   UNL     1       6.311   5.279  18.889  0.00  0.00    +0.000 A 
BRANCH  25  26
ATOM     26  O   UNL     1       5.791   4.205  19.556  0.00  0.00    +0.000 OA
ATOM     27  H   UNL     1       6.523   3.697  19.945  0.00  0.00    +0.000 HD
ENDBRANCH  25  26
ENDBRANCH  19  20
ENDBRANCH   6  19
TORSDOF 6
ENDMDL
MODEL 5
REMARK VINA RESULT:      -7.3      1.057      1.152
REMARK  Name = 
REMARK  7 active torsions:
REMARK  status: ('A' for Active; 'I' for Inactive)
REMARK    1  A    between atoms: C_1  and  C_2
REMARK    2  A    between atoms: C_3  and  C_4
REMARK    3  A    between atoms: N_6  and  C_7
REMARK    4  A    between atoms: C_7  and  C_8
REMARK    5  A    between atoms: N_17  and  C_18
REMARK    6  A    between atoms: C_18  and  C_19
REMARK    7  A    between atoms: C_24  and  O_25
REMARK                            x       y       z     vdW  Elec       q    Type
REMARK                         _______ _______ _______ _____ _____    ______ ____
ROOT
ATOM      1  C   UNL     1       1.453   8.069  21.422  0.00  0.00    +0.000 C 
ATOM      2  C   UNL     1       1.680   8.245  19.970  0.00  0.00    +0.000 A 
ATOM      3  C   UNL     1       1.160   9.158  19.062  0.00  0.00    +0.000 A 
ATOM      4  N   UNL     1       1.695   8.900  17.819  0.00  0.00    +0.000 NA
ATOM      5  N   UNL     1       2.500   7.852  17.917  0.00  0.00    +0.000 NA
ATOM      6  N   UNL     1       2.502   7.450  19.208  0.00  0.00    +0.000 N 
ENDROOT
BRANCH   3   7
ATOM      7  C   UNL     1       0.176  10.218  19.297  0.00  0.00    +0.000 C 
ATOM      8  O   UNL     1      -0.568  10.231  20.271  0.00  0.00    +0.000 OA
ATOM      9  N   UNL     1       0.138  11.181  18.310  0.00  0.00    +0.000 N 
ATOM     10  H   UNL     1       0.793  11.095  17.539  0.00  0.00    +0.000 HD
BRANCH   9  11
ATOM     11  C   UNL     1      -0.841  12.243  18.287  0.00  0.00    +0.000 C 
BRANCH  11  12
ATOM     12  C   UNL     1      -2.229  11.765  17.936  0.00  0.00    +0.000 A 
ATOM     13  C   UNL     1      -2.435  11.154  16.686  0.00  0.00    +0.000 A 
ATOM     14  C   UNL     1      -3.708  10.736  16.287  0.00  0.00    +0.000 A 
ATOM     15  C   UNL     1      -4.797  10.918  17.132  0.00  0.00    +0.000 A 
ATOM     16  C   UNL     1      -4.610  11.504  18.383  0.00  0.00    +0.000 A 
ATOM     17  C   UNL     1      -3.334  11.915  18.789  0.00  0.00    +0.000 A 
ATOM     18 CL   UNL     1      -3.186  12.613  20.364  0.00  0.00    +0.000 Cl
ENDBRANCH  11  12
ENDBRANCH   9  11
ENDBRANCH   3   7
BRANCH   6  19
ATOM     19  C   UNL     1       3.251   6.250  19.586  0.00  0.00    +0.000 C 
BRANCH  19  20
ATOM     20  C   UNL     1       2.429   4.995  19.405  0.00  0.00    +0.000 A 
ATOM     21  C   UNL     1       1.609   4.530  20.448  0.00  0.00    +0.000 A 
ATOM     22  C   UNL     1       0.775   3.425  20.262  0.00  0.00    +0.000 A 
ATOM     23  C   UNL     1       0.765   2.756  19.040  0.00  0.00    +0.000 A 
ATOM     24  C   UNL     1       1.615   3.167  18.015  0.00  0.00    +0.000 A 
ATOM     25  C   UNL     1       2.442   4.275  18.205  0.00  0.00    +0.000 A 
BRANCH  25  26
ATOM     26  O   UNL     1       3.278   4.677  17.201  0.00  0.00    +0.000 OA
ATOM     27  H   UNL     1       4.094   4.151  17.246  0.00  0.00    +0.000 HD
ENDBRANCH  25  26
ENDBRANCH  19  20
ENDBRANCH   6  19
TORSDOF 6
ENDMDL
MODEL 6
REMARK VINA RESULT:      -7.3      4.157      5.970
REMARK  Name = 
REMARK  7 active torsions:
REMARK  status: ('A' for Active; 'I' for Inactive)
REMARK    1  A    between atoms: C_1  and  C_2
REMARK    2  A    between atoms: C_3  and  C_4
REMARK    3  A    between atoms: N_6  and  C_7
REMARK    4  A    between atoms: C_7  and  C_8
REMARK    5  A    between atoms: N_17  and  C_18
REMARK    6  A    between atoms: C_18  and  C_19
REMARK    7  A    between atoms: C_24  and  O_25
REMARK                            x       y       z     vdW  Elec       q    Type
REMARK                         _______ _______ _______ _____ _____    ______ ____
ROOT
ATOM      1  C   UNL     1       4.492   6.766  16.706  0.00  0.00    +0.000 C 
ATOM      2  C   UNL     1       5.204   5.738  17.499  0.00  0.00    +0.000 A 
ATOM      3  C   UNL     1       4.875   5.104  18.690  0.00  0.00    +0.000 A 
ATOM      4  N   UNL     1       5.880   4.219  19.012  0.00  0.00    +0.000 NA
ATOM      5  N   UNL     1       6.826   4.301  18.088  0.00  0.00    +0.000 NA
ATOM      6  N   UNL     1       6.430   5.211  17.170  0.00  0.00    +0.000 N 
ENDROOT
BRANCH   3   7
ATOM      7  C   UNL     1       3.700   5.313  19.539  0.00  0.00    +0.000 C 
ATOM      8  O   UNL     1       3.114   4.395  20.102  0.00  0.00    +0.000 OA
ATOM      9  N   UNL     1       3.291   6.628  19.623  0.00  0.00    +0.000 N 
ATOM     10  H   UNL     1       3.837   7.325  19.127  0.00  0.00    +0.000 HD
BRANCH   9  11
ATOM     11  C   UNL     1       2.085   7.033  20.307  0.00  0.00    +0.000 C 
BRANCH  11  12
ATOM     12  C   UNL     1       1.526   8.342  19.804  0.00  0.00    +0.000 A 
ATOM     13  C   UNL     1       1.804   8.729  18.480  0.00  0.00    +0.000 A 
ATOM     14  C   UNL     1       1.354   9.952  17.975  0.00  0.00    +0.000 A 
ATOM     15  C   UNL     1       0.615  10.809  18.783  0.00  0.00    +0.000 A 
ATOM     16  C   UNL     1       0.312  10.436  20.092  0.00  0.00    +0.000 A 
ATOM     17  C   UNL     1       0.755   9.206  20.598  0.00  0.00    +0.000 A 
ATOM     18 CL   UNL     1       0.318   8.811  22.223  0.00  0.00    +0.000 Cl
ENDBRANCH  11  12
ENDBRANCH   9  11
ENDBRANCH   3   7
BRANCH   6  19
ATOM     19  C   UNL     1       7.331   5.562  16.070  0.00  0.00    +0.000 C 
BRANCH  19  20
ATOM     20  C   UNL     1       6.953   4.856  14.788  0.00  0.00    +0.000 A 
ATOM     21  C   UNL     1       5.869   3.960  14.768  0.00  0.00    +0.000 A 
ATOM     22  C   UNL     1       5.452   3.371  13.573  0.00  0.00    +0.000 A 
ATOM     23  C   UNL     1       6.123   3.652  12.385  0.00  0.00    +0.000 A 
ATOM     24  C   UNL     1       7.236   4.491  12.396  0.00  0.00    +0.000 A 
ATOM     25  C   UNL     1       7.645   5.081  13.593  0.00  0.00    +0.000 A 
BRANCH  25  26
ATOM     26  O   UNL     1       8.737   5.903  13.606  0.00  0.00    +0.000 OA
ATOM     27  H   UNL     1       8.930   6.177  12.694  0.00  0.00    +0.000 HD
ENDBRANCH  25  26
ENDBRANCH  19  20
ENDBRANCH   6  19
TORSDOF 6
ENDMDL
MODEL 7
REMARK VINA RESULT:      -7.2      4.097      8.643
REMARK  Name = 
REMARK  7 active torsions:
REMARK  status: ('A' for Active; 'I' for Inactive)
REMARK    1  A    between atoms: C_1  and  C_2
REMARK    2  A    between atoms: C_3  and  C_4
REMARK    3  A    between atoms: N_6  and  C_7
REMARK    4  A    between atoms: C_7  and  C_8
REMARK    5  A    between atoms: N_17  and  C_18
REMARK    6  A    between atoms: C_18  and  C_19
REMARK    7  A    between atoms: C_24  and  O_25
REMARK                            x       y       z     vdW  Elec       q    Type
REMARK                         _______ _______ _______ _____ _____    ______ ____
ROOT
ATOM      1  C   UNL     1       2.051   8.622  17.623  0.00  0.00    +0.000 C 
ATOM      2  C   UNL     1       1.670   8.588  19.053  0.00  0.00    +0.000 A 
ATOM      3  C   UNL     1       1.833   7.610  20.025  0.00  0.00    +0.000 A 
ATOM      4  N   UNL     1       1.303   8.072  21.210  0.00  0.00    +0.000 NA
ATOM      5  N   UNL     1       0.798   9.279  21.004  0.00  0.00    +0.000 NA
ATOM      6  N   UNL     1       1.015   9.603  19.709  0.00  0.00    +0.000 N 
ENDROOT
BRANCH   3   7
ATOM      7  C   UNL     1       2.419   6.275  19.885  0.00  0.00    +0.000 C 
ATOM      8  O   UNL     1       1.770   5.245  20.026  0.00  0.00    +0.000 OA
ATOM      9  N   UNL     1       3.771   6.278  19.611  0.00  0.00    +0.000 N 
ATOM     10  H   UNL     1       4.230   7.177  19.506  0.00  0.00    +0.000 HD
BRANCH   9  11
ATOM     11  C   UNL     1       4.564   5.072  19.556  0.00  0.00    +0.000 C 
BRANCH  11  12
ATOM     12  C   UNL     1       5.256   4.875  18.230  0.00  0.00    +0.000 A 
ATOM     13  C   UNL     1       4.499   4.415  17.136  0.00  0.00    +0.000 A 
ATOM     14  C   UNL     1       5.095   4.168  15.896  0.00  0.00    +0.000 A 
ATOM     15  C   UNL     1       6.459   4.378  15.726  0.00  0.00    +0.000 A 
ATOM     16  C   UNL     1       7.224   4.852  16.791  0.00  0.00    +0.000 A 
ATOM     17  C   UNL     1       6.626   5.110  18.033  0.00  0.00    +0.000 A 
ATOM     18 CL   UNL     1       7.641   5.715  19.294  0.00  0.00    +0.000 Cl
ENDBRANCH  11  12
ENDBRANCH   9  11
ENDBRANCH   3   7
BRANCH   6  19
ATOM     19  C   UNL     1       0.482  10.862  19.184  0.00  0.00    +0.000 C 
BRANCH  19  20
ATOM     20  C   UNL     1       1.462  11.999  19.353  0.00  0.00    +0.000 A 
ATOM     21  C   UNL     1       2.283  12.391  18.281  0.00  0.00    +0.000 A 
ATOM     22  C   UNL     1       3.127  13.498  18.395  0.00  0.00    +0.000 A 
ATOM     23  C   UNL     1       3.179  14.216  19.587  0.00  0.00    +0.000 A 
ATOM     24  C   UNL     1       2.416  13.806  20.680  0.00  0.00    +0.000 A 
ATOM     25  C   UNL     1       1.571  12.702  20.558  0.00  0.00    +0.000 A 
BRANCH  25  26
ATOM     26  O   UNL     1       0.824  12.298  21.630  0.00  0.00    +0.000 OA
ATOM     27  H   UNL     1       1.320  11.618  22.115  0.00  0.00    +0.000 HD
ENDBRANCH  25  26
ENDBRANCH  19  20
ENDBRANCH   6  19
TORSDOF 6
ENDMDL
MODEL 8
REMARK VINA RESULT:      -7.2      3.310      4.680
REMARK  Name = 
REMARK  7 active torsions:
REMARK  status: ('A' for Active; 'I' for Inactive)
REMARK    1  A    between atoms: C_1  and  C_2
REMARK    2  A    between atoms: C_3  and  C_4
REMARK    3  A    between atoms: N_6  and  C_7
REMARK    4  A    between atoms: C_7  and  C_8
REMARK    5  A    between atoms: N_17  and  C_18
REMARK    6  A    between atoms: C_18  and  C_19
REMARK    7  A    between atoms: C_24  and  O_25
REMARK                            x       y       z     vdW  Elec       q    Type
REMARK                         _______ _______ _______ _____ _____    ______ ____
ROOT
ATOM      1  C   UNL     1       2.397   7.957  18.034  0.00  0.00    +0.000 C 
ATOM      2  C   UNL     1       2.452   6.803  18.960  0.00  0.00    +0.000 A 
ATOM      3  C   UNL     1       1.894   6.605  20.216  0.00  0.00    +0.000 A 
ATOM      4  N   UNL     1       2.243   5.349  20.662  0.00  0.00    +0.000 NA
ATOM      5  N   UNL     1       3.013   4.777  19.748  0.00  0.00    +0.000 NA
ATOM      6  N   UNL     1       3.145   5.641  18.717  0.00  0.00    +0.000 N 
ENDROOT
BRANCH   3   7
ATOM      7  C   UNL     1       1.094   7.537  21.015  0.00  0.00    +0.000 C 
ATOM      8  O   UNL     1      -0.106   7.385  21.212  0.00  0.00    +0.000 OA
ATOM      9  N   UNL     1       1.804   8.616  21.501  0.00  0.00    +0.000 N 
ATOM     10  H   UNL     1       2.796   8.661  21.294  0.00  0.00    +0.000 HD
BRANCH   9  11
ATOM     11  C   UNL     1       1.181   9.711  22.207  0.00  0.00    +0.000 C 
BRANCH  11  12
ATOM     12  C   UNL     1       0.444  10.663  21.297  0.00  0.00    +0.000 A 
ATOM     13  C   UNL     1       0.973  10.920  20.019  0.00  0.00    +0.000 A 
ATOM     14  C   UNL     1       0.359  11.829  19.152  0.00  0.00    +0.000 A 
ATOM     15  C   UNL     1      -0.795  12.496  19.546  0.00  0.00    +0.000 A 
ATOM     16  C   UNL     1      -1.347  12.241  20.801  0.00  0.00    +0.000 A 
ATOM     17  C   UNL     1      -0.739  11.323  21.668  0.00  0.00    +0.000 A 
ATOM     18 CL   UNL     1      -1.498  11.050  23.197  0.00  0.00    +0.000 Cl
ENDBRANCH  11  12
ENDBRANCH   9  11
ENDBRANCH   3   7
BRANCH   6  19
ATOM     19  C   UNL     1       4.019   5.293  17.595  0.00  0.00    +0.000 C 
BRANCH  19  20
ATOM     20  C   UNL     1       5.431   5.786  17.810  0.00  0.00    +0.000 A 
ATOM     21  C   UNL     1       5.865   6.975  17.198  0.00  0.00    +0.000 A 
ATOM     22  C   UNL     1       7.136   7.490  17.461  0.00  0.00    +0.000 A 
ATOM     23  C   UNL     1       7.999   6.814  18.322  0.00  0.00    +0.000 A 
ATOM     24  C   UNL     1       7.607   5.603  18.890  0.00  0.00    +0.000 A 
ATOM     25  C   UNL     1       6.333   5.097  18.627  0.00  0.00    +0.000 A 
BRANCH  25  26
ATOM     26  O   UNL     1       5.948   3.908  19.183  0.00  0.00    +0.000 OA
ATOM     27  H   UNL     1       5.036   3.999  19.508  0.00  0.00    +0.000 HD
ENDBRANCH  25  26
ENDBRANCH  19  20
ENDBRANCH   6  19
TORSDOF 6
ENDMDL
MODEL 9
REMARK VINA RESULT:      -7.2      3.537      8.239
REMARK  Name = 
REMARK  7 active torsions:
REMARK  status: ('A' for Active; 'I' for Inactive)
REMARK    1  A    between atoms: C_1  and  C_2
REMARK    2  A    between atoms: C_3  and  C_4
REMARK    3  A    between atoms: N_6  and  C_7
REMARK    4  A    between atoms: C_7  and  C_8
REMARK    5  A    between atoms: N_17  and  C_18
REMARK    6  A    between atoms: C_18  and  C_19
REMARK    7  A    between atoms: C_24  and  O_25
REMARK                            x       y       z     vdW  Elec       q    Type
REMARK                         _______ _______ _______ _____ _____    ______ ____
ROOT
ATOM      1  C   UNL     1       2.309   8.635  17.724  0.00  0.00    +0.000 C 
ATOM      2  C   UNL     1       1.784   8.691  19.107  0.00  0.00    +0.000 A 
ATOM      3  C   UNL     1       1.761   7.743  20.121  0.00  0.00    +0.000 A 
ATOM      4  N   UNL     1       1.157   8.295  21.229  0.00  0.00    +0.000 NA
ATOM      5  N   UNL     1       0.783   9.531  20.933  0.00  0.00    +0.000 NA
ATOM      6  N   UNL     1       1.157   9.783  19.659  0.00  0.00    +0.000 N 
ENDROOT
BRANCH   3   7
ATOM      7  C   UNL     1       2.238   6.358  20.086  0.00  0.00    +0.000 C 
ATOM      8  O   UNL     1       1.597   5.421  20.546  0.00  0.00    +0.000 OA
ATOM      9  N   UNL     1       3.487   6.207  19.518  0.00  0.00    +0.000 N 
ATOM     10  H   UNL     1       3.946   7.037  19.158  0.00  0.00    +0.000 HD
BRANCH   9  11
ATOM     11  C   UNL     1       4.191   4.946  19.495  0.00  0.00    +0.000 C 
BRANCH  11  12
ATOM     12  C   UNL     1       5.038   4.760  18.260  0.00  0.00    +0.000 A 
ATOM     13  C   UNL     1       4.418   4.317  17.077  0.00  0.00    +0.000 A 
ATOM     14  C   UNL     1       5.160   4.080  15.916  0.00  0.00    +0.000 A 
ATOM     15  C   UNL     1       6.535   4.285  15.916  0.00  0.00    +0.000 A 
ATOM     16  C   UNL     1       7.166   4.743  17.072  0.00  0.00    +0.000 A 
ATOM     17  C   UNL     1       6.423   4.989  18.234  0.00  0.00    +0.000 A 
ATOM     18 CL   UNL     1       7.279   5.575  19.617  0.00  0.00    +0.000 Cl
ENDBRANCH  11  12
ENDBRANCH   9  11
ENDBRANCH   3   7
BRANCH   6  19
ATOM     19  C   UNL     1       0.793  11.060  19.041  0.00  0.00    +0.000 C 
BRANCH  19  20
ATOM     20  C   UNL     1      -0.704  11.268  19.024  0.00  0.00    +0.000 A 
ATOM     21  C   UNL     1      -1.311  12.104  19.977  0.00  0.00    +0.000 A 
ATOM     22  C   UNL     1      -2.679  12.378  19.918  0.00  0.00    +0.000 A 
ATOM     23  C   UNL     1      -3.463  11.804  18.919  0.00  0.00    +0.000 A 
ATOM     24  C   UNL     1      -2.888  10.926  18.002  0.00  0.00    +0.000 A 
ATOM     25  C   UNL     1      -1.519  10.660  18.064  0.00  0.00    +0.000 A 
BRANCH  25  26
ATOM     26  O   UNL     1      -0.954   9.798  17.165  0.00  0.00    +0.000 OA
ATOM     27  H   UNL     1      -1.487   9.805  16.352  0.00  0.00    +0.000 HD
ENDBRANCH  25  26
ENDBRANCH  19  20
ENDBRANCH   6  19
TORSDOF 6
ENDMDL
