MODEL 1
REMARK VINA RESULT:      -8.3      0.000      0.000
REMARK  Name = 
REMARK  4 active torsions:
REMARK  status: ('A' for Active; 'I' for Inactive)
REMARK    1  A    between atoms: C_2  and  C_3
REMARK    2  A    between atoms: C_5  and  C_6
REMARK    3  A    between atoms: C_10  and  N_11
REMARK    4  A    between atoms: N_21  and  C_22
REMARK                            x       y       z     vdW  Elec       q    Type
REMARK                         _______ _______ _______ _____ _____    ______ ____
ROOT
ATOM      1  C   UNL     1       2.295   6.012  19.344  0.00  0.00    +0.000 C 
ATOM      2  C   UNL     1       1.526   6.121  20.643  0.00  0.00    +0.000 C 
ATOM      3  C   UNL     1       2.296   7.313  20.127  0.00  0.00    +0.000 C 
ENDROOT
BRANCH   1   5
ATOM      4  O   UNL     1       3.519   4.142  20.104  0.00  0.00    +0.000 OA
ATOM      5  C   UNL     1       3.479   5.088  19.321  0.00  0.00    +0.000 C 
ATOM      6  N   UNL     1       4.464   5.299  18.358  0.00  0.00    +0.000 N 
ATOM      7  C   UNL     1       4.496   6.457  17.470  0.00  0.00    +0.000 C 
ATOM      8  C   UNL     1       5.904   6.738  16.916  0.00  0.00    +0.000 C 
ATOM      9  N   UNL     1       6.584   5.583  16.296  0.00  0.00    +0.000 NA
ATOM     10  C   UNL     1       6.562   4.448  17.244  0.00  0.00    +0.000 C 
ATOM     11  C   UNL     1       5.202   4.124  17.891  0.00  0.00    +0.000 C 
BRANCH   9  12
ATOM     12  C   UNL     1       5.979   5.240  14.998  0.00  0.00    +0.000 C 
ATOM     13  C   UNL     1       7.106   5.157  13.929  0.00  0.00    +0.000 C 
ATOM     14  C   UNL     1       6.478   3.839  13.448  0.00  0.00    +0.000 C 
ATOM     15  C   UNL     1       5.858   3.698  14.854  0.00  0.00    +0.000 C 
ENDBRANCH   9  12
ENDBRANCH   1   5
BRANCH   3  16
ATOM     16  C   UNL     1       1.488   8.523  19.696  0.00  0.00    +0.000 A 
ATOM     17  C   UNL     1       1.541   9.032  18.395  0.00  0.00    +0.000 A 
ATOM     18  C   UNL     1       0.810  10.166  18.038  0.00  0.00    +0.000 A 
ATOM     19  C   UNL     1       0.033  10.835  18.987  0.00  0.00    +0.000 A 
ATOM     20  C   UNL     1      -0.033  10.385  20.307  0.00  0.00    +0.000 A 
ATOM     21  C   UNL     1       0.677   9.211  20.628  0.00  0.00    +0.000 A 
BRANCH  20  22
ATOM     22  N   UNL     1      -0.754  11.096  21.309  0.00  0.00    +0.000 N 
ATOM     23  C   UNL     1      -1.829  12.008  20.993  0.00  0.00    +0.000 C 
ATOM     24  C   UNL     1      -2.148  12.694  22.305  0.00  0.00    +0.000 C 
ATOM     25  C   UNL     1      -1.810  11.644  23.343  0.00  0.00    +0.000 C 
ATOM     26  C   UNL     1      -0.705  10.848  22.692  0.00  0.00    +0.000 C 
ATOM     27  O   UNL     1       0.019  10.085  23.316  0.00  0.00    +0.000 OA
ENDBRANCH  20  22
ENDBRANCH   3  16
TORSDOF 4
ENDMDL
MODEL 2
REMARK VINA RESULT:      -8.2      1.442      1.824
REMARK  Name = 
REMARK  4 active torsions:
REMARK  status: ('A' for Active; 'I' for Inactive)
REMARK    1  A    between atoms: C_2  and  C_3
REMARK    2  A    between atoms: C_5  and  C_6
REMARK    3  A    between atoms: C_10  and  N_11
REMARK    4  A    between atoms: N_21  and  C_22
REMARK                            x       y       z     vdW  Elec       q    Type
REMARK                         _______ _______ _______ _____ _____    ______ ____
ROOT
ATOM      1  C   UNL     1       2.752   5.305  18.005  0.00  0.00    +0.000 C 
ATOM      2  C   UNL     1       1.924   5.184  19.266  0.00  0.00    +0.000 C 
ATOM      3  C   UNL     1       2.864   6.353  19.099  0.00  0.00    +0.000 C 
ENDROOT
BRANCH   1   5
ATOM      4  O   UNL     1       3.662   3.140  18.240  0.00  0.00    +0.000 OA
ATOM      5  C   UNL     1       3.814   4.267  17.777  0.00  0.00    +0.000 C 
ATOM      6  N   UNL     1       4.909   4.605  16.984  0.00  0.00    +0.000 N 
ATOM      7  C   UNL     1       5.168   5.954  16.489  0.00  0.00    +0.000 C 
ATOM      8  C   UNL     1       6.648   6.177  16.132  0.00  0.00    +0.000 C 
ATOM      9  N   UNL     1       7.245   5.166  15.235  0.00  0.00    +0.000 NA
ATOM     10  C   UNL     1       6.992   3.821  15.794  0.00  0.00    +0.000 C 
ATOM     11  C   UNL     1       5.545   3.522  16.230  0.00  0.00    +0.000 C 
BRANCH   9  12
ATOM     12  C   UNL     1       6.736   5.305  13.860  0.00  0.00    +0.000 C 
ATOM     13  C   UNL     1       7.946   5.334  12.882  0.00  0.00    +0.000 C 
ATOM     14  C   UNL     1       7.187   4.328  12.001  0.00  0.00    +0.000 C 
ATOM     15  C   UNL     1       6.408   3.907  13.265  0.00  0.00    +0.000 C 
ENDBRANCH   9  12
ENDBRANCH   1   5
BRANCH   3  16
ATOM     16  C   UNL     1       2.238   7.730  18.974  0.00  0.00    +0.000 A 
ATOM     17  C   UNL     1       2.485   8.566  17.880  0.00  0.00    +0.000 A 
ATOM     18  C   UNL     1       1.919   9.840  17.810  0.00  0.00    +0.000 A 
ATOM     19  C   UNL     1       1.119  10.318  18.851  0.00  0.00    +0.000 A 
ATOM     20  C   UNL     1       0.863   9.534  19.978  0.00  0.00    +0.000 A 
ATOM     21  C   UNL     1       1.407   8.235  20.001  0.00  0.00    +0.000 A 
BRANCH  20  22
ATOM     22  N   UNL     1       0.115  10.029  21.085  0.00  0.00    +0.000 N 
ATOM     23  C   UNL     1       0.393   9.639  22.447  0.00  0.00    +0.000 C 
ATOM     24  C   UNL     1      -0.756  10.209  23.252  0.00  0.00    +0.000 C 
ATOM     25  C   UNL     1      -1.147  11.451  22.478  0.00  0.00    +0.000 C 
ATOM     26  C   UNL     1      -0.792  11.103  21.052  0.00  0.00    +0.000 C 
ATOM     27  O   UNL     1      -1.206  11.737  20.091  0.00  0.00    +0.000 OA
ENDBRANCH  20  22
ENDBRANCH   3  16
TORSDOF 4
ENDMDL
MODEL 3
REMARK VINA RESULT:      -8.2      2.625      9.401
REMARK  Name = 
REMARK  4 active torsions:
REMARK  status: ('A' for Active; 'I' for Inactive)
REMARK    1  A    between atoms: C_2  and  C_3
REMARK    2  A    between atoms: C_5  and  C_6
REMARK    3  A    between atoms: C_10  and  N_11
REMARK    4  A    between atoms: N_21  and  C_22
REMARK                            x       y       z     vdW  Elec       q    Type
REMARK                         _______ _______ _______ _____ _____    ______ ____
ROOT
ATOM      1  C   UNL     1       1.343   9.912  19.007  0.00  0.00    +0.000 C 
ATOM      2  C   UNL     1       0.581   9.288  17.858  0.00  0.00    +0.000 C 
ATOM      3  C   UNL     1       2.090   9.314  17.827  0.00  0.00    +0.000 C 
ENDROOT
BRANCH   1   5
ATOM      4  O   UNL     1       1.784  12.158  18.433  0.00  0.00    +0.000 OA
ATOM      5  C   UNL     1       1.204  11.395  19.201  0.00  0.00    +0.000 C 
ATOM      6  N   UNL     1       0.359  11.853  20.210  0.00  0.00    +0.000 N 
ATOM      7  C   UNL     1      -0.277  10.983  21.194  0.00  0.00    +0.000 C 
ATOM      8  C   UNL     1      -0.684  11.736  22.473  0.00  0.00    +0.000 C 
ATOM      9  N   UNL     1      -1.482  12.962  22.262  0.00  0.00    +0.000 NA
ATOM     10  C   UNL     1      -0.781  13.828  21.290  0.00  0.00    +0.000 C 
ATOM     11  C   UNL     1      -0.289  13.149  19.998  0.00  0.00    +0.000 C 
BRANCH   9  12
ATOM     12  C   UNL     1      -2.854  12.639  21.837  0.00  0.00    +0.000 C 
ATOM     13  C   UNL     1      -3.769  12.601  23.093  0.00  0.00    +0.000 C 
ATOM     14  C   UNL     1      -4.787  13.446  22.310  0.00  0.00    +0.000 C 
ATOM     15  C   UNL     1      -3.611  13.936  21.439  0.00  0.00    +0.000 C 
ENDBRANCH   9  12
ENDBRANCH   1   5
BRANCH   3  16
ATOM     16  C   UNL     1       2.805   7.978  17.909  0.00  0.00    +0.000 A 
ATOM     17  C   UNL     1       3.964   7.705  17.174  0.00  0.00    +0.000 A 
ATOM     18  C   UNL     1       4.581   6.456  17.247  0.00  0.00    +0.000 A 
ATOM     19  C   UNL     1       4.033   5.440  18.034  0.00  0.00    +0.000 A 
ATOM     20  C   UNL     1       2.862   5.652  18.766  0.00  0.00    +0.000 A 
ATOM     21  C   UNL     1       2.287   6.936  18.712  0.00  0.00    +0.000 A 
BRANCH  20  22
ATOM     22  N   UNL     1       2.243   4.607  19.512  0.00  0.00    +0.000 N 
ATOM     23  C   UNL     1       2.192   4.608  20.955  0.00  0.00    +0.000 C 
ATOM     24  C   UNL     1       1.660   3.238  21.321  0.00  0.00    +0.000 C 
ATOM     25  C   UNL     1       0.772   2.879  20.148  0.00  0.00    +0.000 C 
ATOM     26  C   UNL     1       1.414   3.600  18.987  0.00  0.00    +0.000 C 
ATOM     27  O   UNL     1       1.153   3.343  17.820  0.00  0.00    +0.000 OA
ENDBRANCH  20  22
ENDBRANCH   3  16
TORSDOF 4
ENDMDL
MODEL 4
REMARK VINA RESULT:      -8.1      1.151      1.248
REMARK  Name = 
REMARK  4 active torsions:
REMARK  status: ('A' for Active; 'I' for Inactive)
REMARK    1  A    between atoms: C_2  and  C_3
REMARK    2  A    between atoms: C_5  and  C_6
REMARK    3  A    between atoms: C_10  and  N_11
REMARK    4  A    between atoms: N_21  and  C_22
REMARK                            x       y       z     vdW  Elec       q    Type
REMARK                         _______ _______ _______ _____ _____    ______ ____
ROOT
ATOM      1  C   UNL     1       2.771   5.366  18.426  0.00  0.00    +0.000 C 
ATOM      2  C   UNL     1       1.991   5.294  19.722  0.00  0.00    +0.000 C 
ATOM      3  C   UNL     1       2.823   6.517  19.417  0.00  0.00    +0.000 C 
ENDROOT
BRANCH   1   5
ATOM      4  O   UNL     1       3.889   3.333  18.858  0.00  0.00    +0.000 OA
ATOM      5  C   UNL     1       3.911   4.403  18.255  0.00  0.00    +0.000 C 
ATOM      6  N   UNL     1       4.925   4.732  17.358  0.00  0.00    +0.000 N 
ATOM      7  C   UNL     1       5.031   6.027  16.691  0.00  0.00    +0.000 C 
ATOM      8  C   UNL     1       6.462   6.330  16.215  0.00  0.00    +0.000 C 
ATOM      9  N   UNL     1       7.101   5.270  15.408  0.00  0.00    +0.000 NA
ATOM     10  C   UNL     1       7.005   3.988  16.139  0.00  0.00    +0.000 C 
ATOM     11  C   UNL     1       5.618   3.623  16.699  0.00  0.00    +0.000 C 
BRANCH   9  12
ATOM     12  C   UNL     1       6.510   5.194  14.062  0.00  0.00    +0.000 C 
ATOM     13  C   UNL     1       7.658   5.127  13.016  0.00  0.00    +0.000 C 
ATOM     14  C   UNL     1       6.897   3.979  12.334  0.00  0.00    +0.000 C 
ATOM     15  C   UNL     1       6.211   3.715  13.691  0.00  0.00    +0.000 C 
ENDBRANCH   9  12
ENDBRANCH   1   5
BRANCH   3  16
ATOM     16  C   UNL     1       2.078   7.820  19.191  0.00  0.00    +0.000 A 
ATOM     17  C   UNL     1       2.114   8.498  17.968  0.00  0.00    +0.000 A 
ATOM     18  C   UNL     1       1.444   9.711  17.801  0.00  0.00    +0.000 A 
ATOM     19  C   UNL     1       0.749  10.288  18.867  0.00  0.00    +0.000 A 
ATOM     20  C   UNL     1       0.704   9.665  20.116  0.00  0.00    +0.000 A 
ATOM     21  C   UNL     1       1.349   8.420  20.244  0.00  0.00    +0.000 A 
BRANCH  20  22
ATOM     22  N   UNL     1       0.069  10.274  21.238  0.00  0.00    +0.000 N 
ATOM     23  C   UNL     1      -0.205  11.690  21.301  0.00  0.00    +0.000 C 
ATOM     24  C   UNL     1      -0.667  11.928  22.724  0.00  0.00    +0.000 C 
ATOM     25  C   UNL     1      -1.328  10.619  23.104  0.00  0.00    +0.000 C 
ATOM     26  C   UNL     1      -0.578   9.596  22.286  0.00  0.00    +0.000 C 
ATOM     27  O   UNL     1      -0.632   8.395  22.514  0.00  0.00    +0.000 OA
ENDBRANCH  20  22
ENDBRANCH   3  16
TORSDOF 4
ENDMDL
MODEL 5
REMARK VINA RESULT:      -8.0      2.538      9.336
REMARK  Name = 
REMARK  4 active torsions:
REMARK  status: ('A' for Active; 'I' for Inactive)
REMARK    1  A    between atoms: C_2  and  C_3
REMARK    2  A    between atoms: C_5  and  C_6
REMARK    3  A    between atoms: C_10  and  N_11
REMARK    4  A    between atoms: N_21  and  C_22
REMARK                            x       y       z     vdW  Elec       q    Type
REMARK                         _______ _______ _______ _____ _____    ______ ____
ROOT
ATOM      1  C   UNL     1       1.358   9.762  19.051  0.00  0.00    +0.000 C 
ATOM      2  C   UNL     1       0.630   9.269  17.819  0.00  0.00    +0.000 C 
ATOM      3  C   UNL     1       2.139   9.243  17.856  0.00  0.00    +0.000 C 
ENDROOT
BRANCH   1   5
ATOM      4  O   UNL     1       1.865  12.036  18.672  0.00  0.00    +0.000 OA
ATOM      5  C   UNL     1       1.258  11.227  19.369  0.00  0.00    +0.000 C 
ATOM      6  N   UNL     1       0.419  11.622  20.409  0.00  0.00    +0.000 N 
ATOM      7  C   UNL     1      -0.248  10.689  21.312  0.00  0.00    +0.000 C 
ATOM      8  C   UNL     1      -0.644  11.342  22.649  0.00  0.00    +0.000 C 
ATOM      9  N   UNL     1      -1.406  12.603  22.538  0.00  0.00    +0.000 NA
ATOM     10  C   UNL     1      -0.675  13.529  21.648  0.00  0.00    +0.000 C 
ATOM     11  C   UNL     1      -0.192  12.948  20.305  0.00  0.00    +0.000 C 
BRANCH   9  12
ATOM     12  C   UNL     1      -2.783  12.356  22.080  0.00  0.00    +0.000 C 
ATOM     13  C   UNL     1      -3.747  12.514  23.290  0.00  0.00    +0.000 C 
ATOM     14  C   UNL     1      -4.656  13.362  22.386  0.00  0.00    +0.000 C 
ATOM     15  C   UNL     1      -3.409  13.667  21.530  0.00  0.00    +0.000 C 
ENDBRANCH   9  12
ENDBRANCH   1   5
BRANCH   3  16
ATOM     16  C   UNL     1       2.807   7.880  17.850  0.00  0.00    +0.000 A 
ATOM     17  C   UNL     1       4.023   7.647  17.200  0.00  0.00    +0.000 A 
ATOM     18  C   UNL     1       4.596   6.375  17.186  0.00  0.00    +0.000 A 
ATOM     19  C   UNL     1       3.946   5.299  17.795  0.00  0.00    +0.000 A 
ATOM     20  C   UNL     1       2.716   5.471  18.434  0.00  0.00    +0.000 A 
ATOM     21  C   UNL     1       2.184   6.775  18.474  0.00  0.00    +0.000 A 
BRANCH  20  22
ATOM     22  N   UNL     1       1.998   4.375  18.992  0.00  0.00    +0.000 N 
ATOM     23  C   UNL     1       1.556   3.251  18.200  0.00  0.00    +0.000 C 
ATOM     24  C   UNL     1       0.661   2.455  19.127  0.00  0.00    +0.000 C 
ATOM     25  C   UNL     1       1.245   2.726  20.498  0.00  0.00    +0.000 C 
ATOM     26  C   UNL     1       1.835   4.109  20.363  0.00  0.00    +0.000 C 
ATOM     27  O   UNL     1       2.156   4.791  21.327  0.00  0.00    +0.000 OA
ENDBRANCH  20  22
ENDBRANCH   3  16
TORSDOF 4
ENDMDL
MODEL 6
REMARK VINA RESULT:      -8.0      1.727     10.064
REMARK  Name = 
REMARK  4 active torsions:
REMARK  status: ('A' for Active; 'I' for Inactive)
REMARK    1  A    between atoms: C_2  and  C_3
REMARK    2  A    between atoms: C_5  and  C_6
REMARK    3  A    between atoms: C_10  and  N_11
REMARK    4  A    between atoms: N_21  and  C_22
REMARK                            x       y       z     vdW  Elec       q    Type
REMARK                         _______ _______ _______ _____ _____    ______ ____
ROOT
ATOM      1  C   UNL     1       1.000   9.680  19.261  0.00  0.00    +0.000 C 
ATOM      2  C   UNL     1       0.801   9.364  17.795  0.00  0.00    +0.000 C 
ATOM      3  C   UNL     1       2.130   9.073  18.449  0.00  0.00    +0.000 C 
ENDROOT
BRANCH   1   5
ATOM      4  O   UNL     1       1.599  11.945  18.978  0.00  0.00    +0.000 OA
ATOM      5  C   UNL     1       0.986  11.128  19.661  0.00  0.00    +0.000 C 
ATOM      6  N   UNL     1       0.217  11.504  20.760  0.00  0.00    +0.000 N 
ATOM      7  C   UNL     1      -0.454  10.555  21.644  0.00  0.00    +0.000 C 
ATOM      8  C   UNL     1      -0.754  11.151  23.030  0.00  0.00    +0.000 C 
ATOM      9  N   UNL     1      -1.459  12.450  23.024  0.00  0.00    +0.000 NA
ATOM     10  C   UNL     1      -0.724  13.389  22.149  0.00  0.00    +0.000 C 
ATOM     11  C   UNL     1      -0.333  12.861  20.756  0.00  0.00    +0.000 C 
BRANCH   9  12
ATOM     12  C   UNL     1      -2.865  12.293  22.621  0.00  0.00    +0.000 C 
ATOM     13  C   UNL     1      -3.752  12.283  23.899  0.00  0.00    +0.000 C 
ATOM     14  C   UNL     1      -4.693  13.268  23.187  0.00  0.00    +0.000 C 
ATOM     15  C   UNL     1      -3.493  13.680  22.310  0.00  0.00    +0.000 C 
ENDBRANCH   9  12
ENDBRANCH   1   5
BRANCH   3  16
ATOM     16  C   UNL     1       2.533   7.615  18.576  0.00  0.00    +0.000 A 
ATOM     17  C   UNL     1       1.962   6.763  19.528  0.00  0.00    +0.000 A 
ATOM     18  C   UNL     1       2.376   5.436  19.642  0.00  0.00    +0.000 A 
ATOM     19  C   UNL     1       3.396   4.940  18.825  0.00  0.00    +0.000 A 
ATOM     20  C   UNL     1       4.018   5.756  17.878  0.00  0.00    +0.000 A 
ATOM     21  C   UNL     1       3.548   7.078  17.752  0.00  0.00    +0.000 A 
BRANCH  20  22
ATOM     22  N   UNL     1       5.112   5.295  17.090  0.00  0.00    +0.000 N 
ATOM     23  C   UNL     1       5.256   5.624  15.691  0.00  0.00    +0.000 C 
ATOM     24  C   UNL     1       6.403   4.761  15.210  0.00  0.00    +0.000 C 
ATOM     25  C   UNL     1       7.271   4.609  16.442  0.00  0.00    +0.000 C 
ATOM     26  C   UNL     1       6.284   4.692  17.580  0.00  0.00    +0.000 C 
ATOM     27  O   UNL     1       6.555   4.342  18.721  0.00  0.00    +0.000 OA
ENDBRANCH  20  22
ENDBRANCH   3  16
TORSDOF 4
ENDMDL
MODEL 7
REMARK VINA RESULT:      -7.9      3.049      8.733
REMARK  Name = 
REMARK  4 active torsions:
REMARK  status: ('A' for Active; 'I' for Inactive)
REMARK    1  A    between atoms: C_2  and  C_3
REMARK    2  A    between atoms: C_5  and  C_6
REMARK    3  A    between atoms: C_10  and  N_11
REMARK    4  A    between atoms: N_21  and  C_22
REMARK                            x       y       z     vdW  Elec       q    Type
REMARK                         _______ _______ _______ _____ _____    ______ ____
ROOT
ATOM      1  C   UNL     1       0.993  10.285  21.512  0.00  0.00    +0.000 C 
ATOM      2  C   UNL     1       0.348   9.015  22.022  0.00  0.00    +0.000 C 
ATOM      3  C   UNL     1       0.496   9.233  20.536  0.00  0.00    +0.000 C 
ENDROOT
BRANCH   1   5
ATOM      4  O   UNL     1      -0.427  11.698  22.760  0.00  0.00    +0.000 OA
ATOM      5  C   UNL     1       0.257  11.573  21.747  0.00  0.00    +0.000 C 
ATOM      6  N   UNL     1       0.434  12.612  20.835  0.00  0.00    +0.000 N 
ATOM      7  C   UNL     1       1.166  12.474  19.579  0.00  0.00    +0.000 C 
ATOM      8  C   UNL     1       0.764  13.537  18.542  0.00  0.00    +0.000 C 
ATOM      9  N   UNL     1       0.798  14.935  19.018  0.00  0.00    +0.000 NA
ATOM     10  C   UNL     1       0.013  15.034  20.268  0.00  0.00    +0.000 C 
ATOM     11  C   UNL     1       0.310  13.978  21.348  0.00  0.00    +0.000 C 
BRANCH   9  12
ATOM     12  C   UNL     1       2.182  15.408  19.188  0.00  0.00    +0.000 C 
ATOM     13  C   UNL     1       2.976  15.103  17.886  0.00  0.00    +0.000 C 
ATOM     14  C   UNL     1       3.531  16.535  17.953  0.00  0.00    +0.000 C 
ATOM     15  C   UNL     1       2.289  16.906  18.791  0.00  0.00    +0.000 C 
ENDBRANCH   9  12
ENDBRANCH   1   5
BRANCH   3  16
ATOM     16  C   UNL     1       1.437   8.303  19.792  0.00  0.00    +0.000 A 
ATOM     17  C   UNL     1       2.000   8.642  18.557  0.00  0.00    +0.000 A 
ATOM     18  C   UNL     1       2.837   7.752  17.882  0.00  0.00    +0.000 A 
ATOM     19  C   UNL     1       3.102   6.488  18.415  0.00  0.00    +0.000 A 
ATOM     20  C   UNL     1       2.544   6.090  19.631  0.00  0.00    +0.000 A 
ATOM     21  C   UNL     1       1.741   7.025  20.313  0.00  0.00    +0.000 A 
BRANCH  20  22
ATOM     22  N   UNL     1       2.737   4.778  20.154  0.00  0.00    +0.000 N 
ATOM     23  C   UNL     1       1.725   4.090  20.921  0.00  0.00    +0.000 C 
ATOM     24  C   UNL     1       2.420   2.855  21.454  0.00  0.00    +0.000 C 
ATOM     25  C   UNL     1       3.454   2.546  20.390  0.00  0.00    +0.000 C 
ATOM     26  C   UNL     1       3.782   3.902  19.814  0.00  0.00    +0.000 C 
ATOM     27  O   UNL     1       4.769   4.107  19.121  0.00  0.00    +0.000 OA
ENDBRANCH  20  22
ENDBRANCH   3  16
TORSDOF 4
ENDMDL
MODEL 8
REMARK VINA RESULT:      -7.7      2.012     10.266
REMARK  Name = 
REMARK  4 active torsions:
REMARK  status: ('A' for Active; 'I' for Inactive)
REMARK    1  A    between atoms: C_2  and  C_3
REMARK    2  A    between atoms: C_5  and  C_6
REMARK    3  A    between atoms: C_10  and  N_11
REMARK    4  A    between atoms: N_21  and  C_22
REMARK                            x       y       z     vdW  Elec       q    Type
REMARK                         _______ _______ _______ _____ _____    ______ ____
ROOT
ATOM      1  C   UNL     1      -0.477  10.315  18.953  0.00  0.00    +0.000 C 
ATOM      2  C   UNL     1      -0.079   9.917  17.548  0.00  0.00    +0.000 C 
ATOM      3  C   UNL     1       0.961   9.937  18.642  0.00  0.00    +0.000 C 
ENDROOT
BRANCH   1   5
ATOM      4  O   UNL     1      -0.920  12.514  18.216  0.00  0.00    +0.000 OA
ATOM      5  C   UNL     1      -0.903  11.740  19.170  0.00  0.00    +0.000 C 
ATOM      6  N   UNL     1      -1.333  12.115  20.441  0.00  0.00    +0.000 N 
ATOM      7  C   UNL     1      -1.246  11.252  21.615  0.00  0.00    +0.000 C 
ATOM      8  C   UNL     1      -1.258  12.045  22.933  0.00  0.00    +0.000 C 
ATOM      9  N   UNL     1      -2.360  13.019  23.078  0.00  0.00    +0.000 NA
ATOM     10  C   UNL     1      -2.385  13.895  21.887  0.00  0.00    +0.000 C 
ATOM     11  C   UNL     1      -2.323  13.190  20.519  0.00  0.00    +0.000 C 
BRANCH   9  12
ATOM     12  C   UNL     1      -3.647  12.340  23.301  0.00  0.00    +0.000 C 
ATOM     13  C   UNL     1      -4.129  12.647  24.748  0.00  0.00    +0.000 C 
ATOM     14  C   UNL     1      -5.519  12.945  24.162  0.00  0.00    +0.000 C 
ATOM     15  C   UNL     1      -4.819  13.240  22.819  0.00  0.00    +0.000 C 
ENDBRANCH   9  12
ENDBRANCH   1   5
BRANCH   3  16
ATOM     16  C   UNL     1       1.559   8.604  19.051  0.00  0.00    +0.000 A 
ATOM     17  C   UNL     1       1.445   8.102  20.352  0.00  0.00    +0.000 A 
ATOM     18  C   UNL     1       2.034   6.887  20.706  0.00  0.00    +0.000 A 
ATOM     19  C   UNL     1       2.778   6.162  19.772  0.00  0.00    +0.000 A 
ATOM     20  C   UNL     1       2.945   6.632  18.467  0.00  0.00    +0.000 A 
ATOM     21  C   UNL     1       2.301   7.837  18.124  0.00  0.00    +0.000 A 
BRANCH  20  22
ATOM     22  N   UNL     1       3.764   5.950  17.521  0.00  0.00    +0.000 N 
ATOM     23  C   UNL     1       4.951   6.543  16.951  0.00  0.00    +0.000 C 
ATOM     24  C   UNL     1       5.371   5.585  15.856  0.00  0.00    +0.000 C 
ATOM     25  C   UNL     1       4.900   4.238  16.366  0.00  0.00    +0.000 C 
ATOM     26  C   UNL     1       3.691   4.582  17.203  0.00  0.00    +0.000 C 
ATOM     27  O   UNL     1       2.873   3.747  17.563  0.00  0.00    +0.000 OA
ENDBRANCH  20  22
ENDBRANCH   3  16
TORSDOF 4
ENDMDL
MODEL 9
REMARK VINA RESULT:      -7.7      1.873      9.257
REMARK  Name = 
REMARK  4 active torsions:
REMARK  status: ('A' for Active; 'I' for Inactive)
REMARK    1  A    between atoms: C_2  and  C_3
REMARK    2  A    between atoms: C_5  and  C_6
REMARK    3  A    between atoms: C_10  and  N_11
REMARK    4  A    between atoms: N_21  and  C_22
REMARK                            x       y       z     vdW  Elec       q    Type
REMARK                         _______ _______ _______ _____ _____    ______ ____
ROOT
ATOM      1  C   UNL     1       0.456   8.137  20.588  0.00  0.00    +0.000 C 
ATOM      2  C   UNL     1       1.831   8.558  20.116  0.00  0.00    +0.000 C 
ATOM      3  C   UNL     1       1.681   7.324  20.972  0.00  0.00    +0.000 C 
ENDROOT
BRANCH   1   5
ATOM      4  O   UNL     1      -0.353   8.692  22.735  0.00  0.00    +0.000 OA
ATOM      5  C   UNL     1      -0.244   9.041  21.562  0.00  0.00    +0.000 C 
ATOM      6  N   UNL     1      -0.688  10.282  21.110  0.00  0.00    +0.000 N 
ATOM      7  C   UNL     1      -0.655  10.696  19.711  0.00  0.00    +0.000 C 
ATOM      8  C   UNL     1      -1.661  11.819  19.403  0.00  0.00    +0.000 C 
ATOM      9  N   UNL     1      -1.596  12.993  20.299  0.00  0.00    +0.000 NA
ATOM     10  C   UNL     1      -1.672  12.530  21.701  0.00  0.00    +0.000 C 
ATOM     11  C   UNL     1      -0.736  11.370  22.090  0.00  0.00    +0.000 C 
BRANCH   9  12
ATOM     12  C   UNL     1      -0.391  13.797  20.039  0.00  0.00    +0.000 C 
ATOM     13  C   UNL     1      -0.273  14.038  18.507  0.00  0.00    +0.000 C 
ATOM     14  C   UNL     1       0.016  15.515  18.817  0.00  0.00    +0.000 C 
ATOM     15  C   UNL     1      -0.720  15.311  20.157  0.00  0.00    +0.000 C 
ENDBRANCH   9  12
ENDBRANCH   1   5
BRANCH   3  16
ATOM     16  C   UNL     1       2.008   5.991  20.325  0.00  0.00    +0.000 A 
ATOM     17  C   UNL     1       1.269   4.832  20.586  0.00  0.00    +0.000 A 
ATOM     18  C   UNL     1       1.615   3.614  20.000  0.00  0.00    +0.000 A 
ATOM     19  C   UNL     1       2.730   3.522  19.163  0.00  0.00    +0.000 A 
ATOM     20  C   UNL     1       3.517   4.643  18.890  0.00  0.00    +0.000 A 
ATOM     21  C   UNL     1       3.118   5.869  19.457  0.00  0.00    +0.000 A 
BRANCH  20  22
ATOM     22  N   UNL     1       4.702   4.556  18.104  0.00  0.00    +0.000 N 
ATOM     23  C   UNL     1       4.673   4.463  16.663  0.00  0.00    +0.000 C 
ATOM     24  C   UNL     1       6.105   4.168  16.269  0.00  0.00    +0.000 C 
ATOM     25  C   UNL     1       6.916   4.848  17.352  0.00  0.00    +0.000 C 
ATOM     26  C   UNL     1       6.012   4.787  18.559  0.00  0.00    +0.000 C 
ATOM     27  O   UNL     1       6.411   4.986  19.698  0.00  0.00    +0.000 OA
ENDBRANCH  20  22
ENDBRANCH   3  16
TORSDOF 4
ENDMDL
