MODEL 1
REMARK VINA RESULT:      -7.6      0.000      0.000
REMARK  Name = 
REMARK  3 active torsions:
REMARK  status: ('A' for Active; 'I' for Inactive)
REMARK    1  A    between atoms: C_2  and  C_4
REMARK    2  A    between atoms: N_7  and  C_8
REMARK    3  A    between atoms: N_12  and  C_13
REMARK                            x       y       z     vdW  Elec       q    Type
REMARK                         _______ _______ _______ _____ _____    ______ ____
ROOT
ATOM      1  C   UNL     1       5.729   4.920  18.457  0.00  0.00    +0.000 C 
ATOM      2  C   UNL     1       4.863   6.071  17.973  0.00  0.00    +0.000 C 
ATOM      3  C   UNL     1       5.066   6.101  16.485  0.00  0.00    +0.000 C 
ATOM      4  O   UNL     1       4.432   6.866  15.769  0.00  0.00    +0.000 OA
ATOM      5  N   UNL     1       6.024   5.182  16.127  0.00  0.00    +0.000 N 
ATOM      6  C   UNL     1       6.575   4.578  17.237  0.00  0.00    +0.000 C 
ATOM      7  O   UNL     1       7.598   3.908  17.295  0.00  0.00    +0.000 OA
ENDROOT
BRANCH   5   8
ATOM      8  C   UNL     1       6.453   4.912  14.793  0.00  0.00    +0.000 A 
ATOM      9  C   UNL     1       7.543   5.581  14.213  0.00  0.00    +0.000 A 
ATOM     10  C   UNL     1       7.957   5.293  12.907  0.00  0.00    +0.000 A 
ATOM     11  C   UNL     1       7.274   4.348  12.155  0.00  0.00    +0.000 A 
ATOM     12  F   UNL     1       7.692   4.089  10.907  0.00  0.00    +0.000 F 
ATOM     13  C   UNL     1       6.176   3.690  12.692  0.00  0.00    +0.000 A 
ATOM     14 CL   UNL     1       5.300   2.539  11.757  0.00  0.00    +0.000 Cl
ATOM     15  C   UNL     1       5.769   3.968  13.999  0.00  0.00    +0.000 A 
ENDBRANCH   5   8
BRANCH   1  19
ATOM     16  C   UNL     1       2.465   2.264  19.504  0.00  0.00    +0.000 C 
ATOM     17  C   UNL     1       3.267   2.923  20.627  0.00  0.00    +0.000 C 
ATOM     18  C   UNL     1       4.074   4.115  20.108  0.00  0.00    +0.000 C 
ATOM     19  N   UNL     1       4.974   3.751  19.000  0.00  0.00    +0.000 NA
ATOM     20  C   UNL     1       4.278   3.035  17.913  0.00  0.00    +0.000 C 
ATOM     21  C   UNL     1       3.445   1.849  18.404  0.00  0.00    +0.000 C 
BRANCH  16  23
ATOM     22  N   UNL     1       0.550   3.732  19.971  0.00  0.00    +0.000 N 
ATOM     23  C   UNL     1       1.350   3.193  19.013  0.00  0.00    +0.000 C 
ATOM     24  O   UNL     1       1.173   3.501  17.839  0.00  0.00    +0.000 OA
ATOM     25  H   UNL     1      -0.131   4.409  19.651  0.00  0.00    +0.000 HD
ATOM     26  H   UNL     1       0.821   3.761  20.945  0.00  0.00    +0.000 HD
ENDBRANCH  16  23
ENDBRANCH   1  19
TORSDOF 3
ENDMDL
MODEL 2
REMARK VINA RESULT:      -7.3      5.861      7.593
REMARK  Name = 
REMARK  3 active torsions:
REMARK  status: ('A' for Active; 'I' for Inactive)
REMARK    1  A    between atoms: C_2  and  C_4
REMARK    2  A    between atoms: N_7  and  C_8
REMARK    3  A    between atoms: N_12  and  C_13
REMARK                            x       y       z     vdW  Elec       q    Type
REMARK                         _______ _______ _______ _____ _____    ______ ____
ROOT
ATOM      1  C   UNL     1       2.705   6.567  19.378  0.00  0.00    +0.000 C 
ATOM      2  C   UNL     1       2.232   6.756  20.810  0.00  0.00    +0.000 C 
ATOM      3  C   UNL     1       1.405   8.009  20.776  0.00  0.00    +0.000 C 
ATOM      4  O   UNL     1       0.794   8.399  21.763  0.00  0.00    +0.000 OA
ATOM      5  N   UNL     1       1.472   8.578  19.526  0.00  0.00    +0.000 N 
ATOM      6  C   UNL     1       2.345   7.889  18.711  0.00  0.00    +0.000 C 
ATOM      7  O   UNL     1       2.817   8.252  17.642  0.00  0.00    +0.000 OA
ENDROOT
BRANCH   5   8
ATOM      8  C   UNL     1       0.786   9.761  19.117  0.00  0.00    +0.000 A 
ATOM      9  C   UNL     1       1.254  11.043  19.450  0.00  0.00    +0.000 A 
ATOM     10  C   UNL     1       0.574  12.193  19.030  0.00  0.00    +0.000 A 
ATOM     11  C   UNL     1      -0.593  12.076  18.289  0.00  0.00    +0.000 A 
ATOM     12  F   UNL     1      -1.225  13.193  17.896  0.00  0.00    +0.000 F 
ATOM     13  C   UNL     1      -1.094  10.823  17.967  0.00  0.00    +0.000 A 
ATOM     14 CL   UNL     1      -2.559  10.665  17.076  0.00  0.00    +0.000 Cl
ATOM     15  C   UNL     1      -0.410   9.675  18.377  0.00  0.00    +0.000 A 
ENDBRANCH   5   8
BRANCH   1  19
ATOM     16  C   UNL     1       2.033   2.471  18.123  0.00  0.00    +0.000 C 
ATOM     17  C   UNL     1       2.517   3.488  17.089  0.00  0.00    +0.000 C 
ATOM     18  C   UNL     1       3.091   4.736  17.762  0.00  0.00    +0.000 C 
ATOM     19  N   UNL     1       2.134   5.376  18.681  0.00  0.00    +0.000 NA
ATOM     20  C   UNL     1       1.563   4.429  19.659  0.00  0.00    +0.000 C 
ATOM     21  C   UNL     1       0.999   3.160  19.016  0.00  0.00    +0.000 C 
BRANCH  16  23
ATOM     22  N   UNL     1       3.938   0.923  18.256  0.00  0.00    +0.000 N 
ATOM     23  C   UNL     1       3.215   1.879  18.898  0.00  0.00    +0.000 C 
ATOM     24  O   UNL     1       3.559   2.242  20.019  0.00  0.00    +0.000 OA
ATOM     25  H   UNL     1       4.766   0.595  18.738  0.00  0.00    +0.000 HD
ATOM     26  H   UNL     1       3.897   0.799  17.253  0.00  0.00    +0.000 HD
ENDBRANCH  16  23
ENDBRANCH   1  19
TORSDOF 3
ENDMDL
MODEL 3
REMARK VINA RESULT:      -7.3      5.984      7.746
REMARK  Name = 
REMARK  3 active torsions:
REMARK  status: ('A' for Active; 'I' for Inactive)
REMARK    1  A    between atoms: C_2  and  C_4
REMARK    2  A    between atoms: N_7  and  C_8
REMARK    3  A    between atoms: N_12  and  C_13
REMARK                            x       y       z     vdW  Elec       q    Type
REMARK                         _______ _______ _______ _____ _____    ______ ____
ROOT
ATOM      1  C   UNL     1       2.694   6.571  19.395  0.00  0.00    +0.000 C 
ATOM      2  C   UNL     1       2.213   6.766  20.823  0.00  0.00    +0.000 C 
ATOM      3  C   UNL     1       1.388   8.020  20.780  0.00  0.00    +0.000 C 
ATOM      4  O   UNL     1       0.773   8.414  21.763  0.00  0.00    +0.000 OA
ATOM      5  N   UNL     1       1.464   8.585  19.529  0.00  0.00    +0.000 N 
ATOM      6  C   UNL     1       2.340   7.891  18.721  0.00  0.00    +0.000 C 
ATOM      7  O   UNL     1       2.819   8.250  17.653  0.00  0.00    +0.000 OA
ENDROOT
BRANCH   5   8
ATOM      8  C   UNL     1       0.783   9.768  19.112  0.00  0.00    +0.000 A 
ATOM      9  C   UNL     1      -0.517   9.728  18.580  0.00  0.00    +0.000 A 
ATOM     10  C   UNL     1      -1.174  10.900  18.188  0.00  0.00    +0.000 A 
ATOM     11  C   UNL     1      -0.534  12.126  18.304  0.00  0.00    +0.000 A 
ATOM     12  F   UNL     1      -1.187  13.235  17.924  0.00  0.00    +0.000 F 
ATOM     13  C   UNL     1       0.759  12.194  18.801  0.00  0.00    +0.000 A 
ATOM     14 CL   UNL     1       1.576  13.706  18.920  0.00  0.00    +0.000 Cl
ATOM     15  C   UNL     1       1.412  11.026  19.203  0.00  0.00    +0.000 A 
ENDBRANCH   5   8
BRANCH   1  19
ATOM     16  C   UNL     1       2.039   2.475  18.131  0.00  0.00    +0.000 C 
ATOM     17  C   UNL     1       2.507   3.498  17.097  0.00  0.00    +0.000 C 
ATOM     18  C   UNL     1       3.078   4.748  17.769  0.00  0.00    +0.000 C 
ATOM     19  N   UNL     1       2.125   5.378  18.698  0.00  0.00    +0.000 NA
ATOM     20  C   UNL     1       1.569   4.424  19.678  0.00  0.00    +0.000 C 
ATOM     21  C   UNL     1       1.008   3.154  19.036  0.00  0.00    +0.000 C 
BRANCH  16  23
ATOM     22  N   UNL     1       3.924   0.903  18.264  0.00  0.00    +0.000 N 
ATOM     23  C   UNL     1       3.231   1.888  18.894  0.00  0.00    +0.000 C 
ATOM     24  O   UNL     1       3.608   2.278  19.995  0.00  0.00    +0.000 OA
ATOM     25  H   UNL     1       4.759   0.577  18.734  0.00  0.00    +0.000 HD
ATOM     26  H   UNL     1       3.855   0.750  17.266  0.00  0.00    +0.000 HD
ENDBRANCH  16  23
ENDBRANCH   1  19
TORSDOF 3
ENDMDL
MODEL 4
REMARK VINA RESULT:      -7.2      1.457      1.835
REMARK  Name = 
REMARK  3 active torsions:
REMARK  status: ('A' for Active; 'I' for Inactive)
REMARK    1  A    between atoms: C_2  and  C_4
REMARK    2  A    between atoms: N_7  and  C_8
REMARK    3  A    between atoms: N_12  and  C_13
REMARK                            x       y       z     vdW  Elec       q    Type
REMARK                         _______ _______ _______ _____ _____    ______ ____
ROOT
ATOM      1  C   UNL     1       4.441   5.097  18.097  0.00  0.00    +0.000 C 
ATOM      2  C   UNL     1       4.268   6.518  17.586  0.00  0.00    +0.000 C 
ATOM      3  C   UNL     1       4.827   6.493  16.193  0.00  0.00    +0.000 C 
ATOM      4  O   UNL     1       4.760   7.472  15.460  0.00  0.00    +0.000 OA
ATOM      5  N   UNL     1       5.383   5.262  15.936  0.00  0.00    +0.000 N 
ATOM      6  C   UNL     1       5.347   4.456  17.053  0.00  0.00    +0.000 C 
ATOM      7  O   UNL     1       5.957   3.412  17.244  0.00  0.00    +0.000 OA
ENDROOT
BRANCH   5   8
ATOM      8  C   UNL     1       5.980   4.866  14.701  0.00  0.00    +0.000 A 
ATOM      9  C   UNL     1       7.252   5.319  14.312  0.00  0.00    +0.000 A 
ATOM     10  C   UNL     1       7.826   4.909  13.103  0.00  0.00    +0.000 A 
ATOM     11  C   UNL     1       7.129   4.058  12.257  0.00  0.00    +0.000 A 
ATOM     12  F   UNL     1       7.703   3.678  11.105  0.00  0.00    +0.000 F 
ATOM     13  C   UNL     1       5.861   3.615  12.603  0.00  0.00    +0.000 A 
ATOM     14 CL   UNL     1       4.973   2.584  11.546  0.00  0.00    +0.000 Cl
ATOM     15  C   UNL     1       5.291   4.014  13.814  0.00  0.00    +0.000 A 
ENDBRANCH   5   8
BRANCH   1  19
ATOM     16  C   UNL     1       1.294   2.807  20.011  0.00  0.00    +0.000 C 
ATOM     17  C   UNL     1       2.074   2.169  18.860  0.00  0.00    +0.000 C 
ATOM     18  C   UNL     1       3.380   2.919  18.589  0.00  0.00    +0.000 C 
ATOM     19  N   UNL     1       3.166   4.350  18.314  0.00  0.00    +0.000 NA
ATOM     20  C   UNL     1       2.347   5.013  19.348  0.00  0.00    +0.000 C 
ATOM     21  C   UNL     1       1.043   4.274  19.656  0.00  0.00    +0.000 C 
BRANCH  16  23
ATOM     22  N   UNL     1       1.255   2.436  22.440  0.00  0.00    +0.000 N 
ATOM     23  C   UNL     1       2.033   2.617  21.340  0.00  0.00    +0.000 C 
ATOM     24  O   UNL     1       3.254   2.578  21.454  0.00  0.00    +0.000 OA
ATOM     25  H   UNL     1       1.746   2.228  23.301  0.00  0.00    +0.000 HD
ATOM     26  H   UNL     1       0.284   2.163  22.374  0.00  0.00    +0.000 HD
ENDBRANCH  16  23
ENDBRANCH   1  19
TORSDOF 3
ENDMDL
MODEL 5
REMARK VINA RESULT:      -7.2      4.255      6.941
REMARK  Name = 
REMARK  3 active torsions:
REMARK  status: ('A' for Active; 'I' for Inactive)
REMARK    1  A    between atoms: C_2  and  C_4
REMARK    2  A    between atoms: N_7  and  C_8
REMARK    3  A    between atoms: N_12  and  C_13
REMARK                            x       y       z     vdW  Elec       q    Type
REMARK                         _______ _______ _______ _____ _____    ______ ____
ROOT
ATOM      1  C   UNL     1       4.049   3.243  18.419  0.00  0.00    +0.000 C 
ATOM      2  C   UNL     1       2.755   3.034  17.652  0.00  0.00    +0.000 C 
ATOM      3  C   UNL     1       1.945   4.269  17.925  0.00  0.00    +0.000 C 
ATOM      4  O   UNL     1       0.868   4.461  17.376  0.00  0.00    +0.000 OA
ATOM      5  N   UNL     1       2.600   5.062  18.838  0.00  0.00    +0.000 N 
ATOM      6  C   UNL     1       3.747   4.452  19.297  0.00  0.00    +0.000 C 
ATOM      7  O   UNL     1       4.423   4.760  20.270  0.00  0.00    +0.000 OA
ENDROOT
BRANCH   5   8
ATOM      8  C   UNL     1       2.143   6.330  19.310  0.00  0.00    +0.000 A 
ATOM      9  C   UNL     1       1.542   6.480  20.571  0.00  0.00    +0.000 A 
ATOM     10  C   UNL     1       1.112   7.733  21.022  0.00  0.00    +0.000 A 
ATOM     11  C   UNL     1       1.257   8.850  20.211  0.00  0.00    +0.000 A 
ATOM     12  F   UNL     1       0.839  10.040  20.668  0.00  0.00    +0.000 F 
ATOM     13  C   UNL     1       1.824   8.728  18.950  0.00  0.00    +0.000 A 
ATOM     14 CL   UNL     1       1.981  10.101  17.922  0.00  0.00    +0.000 Cl
ATOM     15  C   UNL     1       2.264   7.479  18.503  0.00  0.00    +0.000 A 
ENDBRANCH   5   8
BRANCH   1  19
ATOM     16  C   UNL     1       7.140   5.092  16.002  0.00  0.00    +0.000 C 
ATOM     17  C   UNL     1       6.191   4.090  15.344  0.00  0.00    +0.000 C 
ATOM     18  C   UNL     1       4.942   3.862  16.197  0.00  0.00    +0.000 C 
ATOM     19  N   UNL     1       5.263   3.420  17.566  0.00  0.00    +0.000 NA
ATOM     20  C   UNL     1       6.241   4.302  18.234  0.00  0.00    +0.000 C 
ATOM     21  C   UNL     1       7.493   4.564  17.394  0.00  0.00    +0.000 C 
BRANCH  16  23
ATOM     22  N   UNL     1       7.155   7.421  16.786  0.00  0.00    +0.000 N 
ATOM     23  C   UNL     1       6.524   6.495  16.017  0.00  0.00    +0.000 C 
ATOM     24  O   UNL     1       5.545   6.828  15.357  0.00  0.00    +0.000 OA
ATOM     25  H   UNL     1       6.796   8.366  16.728  0.00  0.00    +0.000 HD
ATOM     26  H   UNL     1       8.108   7.299  17.104  0.00  0.00    +0.000 HD
ENDBRANCH  16  23
ENDBRANCH   1  19
TORSDOF 3
ENDMDL
MODEL 6
REMARK VINA RESULT:      -7.1      4.538      6.988
REMARK  Name = 
REMARK  3 active torsions:
REMARK  status: ('A' for Active; 'I' for Inactive)
REMARK    1  A    between atoms: C_2  and  C_4
REMARK    2  A    between atoms: N_7  and  C_8
REMARK    3  A    between atoms: N_12  and  C_13
REMARK                            x       y       z     vdW  Elec       q    Type
REMARK                         _______ _______ _______ _____ _____    ______ ____
ROOT
ATOM      1  C   UNL     1       4.030   3.511  18.623  0.00  0.00    +0.000 C 
ATOM      2  C   UNL     1       2.741   3.187  17.886  0.00  0.00    +0.000 C 
ATOM      3  C   UNL     1       1.948   4.461  17.926  0.00  0.00    +0.000 C 
ATOM      4  O   UNL     1       0.880   4.568  17.336  0.00  0.00    +0.000 OA
ATOM      5  N   UNL     1       2.604   5.394  18.694  0.00  0.00    +0.000 N 
ATOM      6  C   UNL     1       3.736   4.859  19.270  0.00  0.00    +0.000 C 
ATOM      7  O   UNL     1       4.405   5.325  20.183  0.00  0.00    +0.000 OA
ENDROOT
BRANCH   5   8
ATOM      8  C   UNL     1       2.162   6.731  18.929  0.00  0.00    +0.000 A 
ATOM      9  C   UNL     1       2.190   7.710  17.922  0.00  0.00    +0.000 A 
ATOM     10  C   UNL     1       1.740   9.013  18.168  0.00  0.00    +0.000 A 
ATOM     11  C   UNL     1       1.276   9.360  19.429  0.00  0.00    +0.000 A 
ATOM     12  F   UNL     1       0.848  10.615  19.639  0.00  0.00    +0.000 F 
ATOM     13  C   UNL     1       1.261   8.421  20.450  0.00  0.00    +0.000 A 
ATOM     14 CL   UNL     1       0.717   8.848  22.028  0.00  0.00    +0.000 Cl
ATOM     15  C   UNL     1       1.699   7.118  20.203  0.00  0.00    +0.000 A 
ENDBRANCH   5   8
BRANCH   1  19
ATOM     16  C   UNL     1       7.303   4.908  16.144  0.00  0.00    +0.000 C 
ATOM     17  C   UNL     1       6.252   3.986  15.525  0.00  0.00    +0.000 C 
ATOM     18  C   UNL     1       4.985   3.932  16.381  0.00  0.00    +0.000 C 
ATOM     19  N   UNL     1       5.256   3.518  17.769  0.00  0.00    +0.000 NA
ATOM     20  C   UNL     1       6.323   4.317  18.403  0.00  0.00    +0.000 C 
ATOM     21  C   UNL     1       7.596   4.407  17.560  0.00  0.00    +0.000 C 
BRANCH  16  23
ATOM     22  N   UNL     1       7.627   7.269  16.743  0.00  0.00    +0.000 N 
ATOM     23  C   UNL     1       6.843   6.368  16.094  0.00  0.00    +0.000 C 
ATOM     24  O   UNL     1       5.855   6.762  15.483  0.00  0.00    +0.000 OA
ATOM     25  H   UNL     1       7.366   8.242  16.638  0.00  0.00    +0.000 HD
ATOM     26  H   UNL     1       8.584   7.064  17.001  0.00  0.00    +0.000 HD
ENDBRANCH  16  23
ENDBRANCH   1  19
TORSDOF 3
ENDMDL
MODEL 7
REMARK VINA RESULT:      -7.1      6.487      8.334
REMARK  Name = 
REMARK  3 active torsions:
REMARK  status: ('A' for Active; 'I' for Inactive)
REMARK    1  A    between atoms: C_2  and  C_4
REMARK    2  A    between atoms: N_7  and  C_8
REMARK    3  A    between atoms: N_12  and  C_13
REMARK                            x       y       z     vdW  Elec       q    Type
REMARK                         _______ _______ _______ _____ _____    ______ ____
ROOT
ATOM      1  C   UNL     1       2.425   8.153  19.175  0.00  0.00    +0.000 C 
ATOM      2  C   UNL     1       1.769   8.022  20.540  0.00  0.00    +0.000 C 
ATOM      3  C   UNL     1       0.449   8.724  20.397  0.00  0.00    +0.000 C 
ATOM      4  O   UNL     1      -0.375   8.725  21.303  0.00  0.00    +0.000 OA
ATOM      5  N   UNL     1       0.368   9.316  19.158  0.00  0.00    +0.000 N 
ATOM      6  C   UNL     1       1.546   9.169  18.458  0.00  0.00    +0.000 C 
ATOM      7  O   UNL     1       1.896   9.766  17.448  0.00  0.00    +0.000 OA
ENDROOT
BRANCH   5   8
ATOM      8  C   UNL     1      -0.756  10.043  18.661  0.00  0.00    +0.000 A 
ATOM      9  C   UNL     1      -1.307  11.128  19.363  0.00  0.00    +0.000 A 
ATOM     10  C   UNL     1      -2.401  11.837  18.853  0.00  0.00    +0.000 A 
ATOM     11  C   UNL     1      -2.972  11.459  17.646  0.00  0.00    +0.000 A 
ATOM     12  F   UNL     1      -4.018  12.156  17.178  0.00  0.00    +0.000 F 
ATOM     13  C   UNL     1      -2.465  10.374  16.944  0.00  0.00    +0.000 A 
ATOM     14 CL   UNL     1      -3.185   9.875  15.461  0.00  0.00    +0.000 Cl
ATOM     15  C   UNL     1      -1.367   9.673  17.446  0.00  0.00    +0.000 A 
ENDBRANCH   5   8
BRANCH   1  19
ATOM     16  C   UNL     1       3.840   4.227  17.994  0.00  0.00    +0.000 C 
ATOM     17  C   UNL     1       4.055   5.404  17.043  0.00  0.00    +0.000 C 
ATOM     18  C   UNL     1       3.887   6.742  17.765  0.00  0.00    +0.000 C 
ATOM     19  N   UNL     1       2.577   6.868  18.427  0.00  0.00    +0.000 NA
ATOM     20  C   UNL     1       2.267   5.720  19.302  0.00  0.00    +0.000 C 
ATOM     21  C   UNL     1       2.447   4.366  18.612  0.00  0.00    +0.000 C 
BRANCH  16  23
ATOM     22  N   UNL     1       5.147   2.950  19.638  0.00  0.00    +0.000 N 
ATOM     23  C   UNL     1       4.965   4.153  19.032  0.00  0.00    +0.000 C 
ATOM     24  O   UNL     1       5.715   5.084  19.307  0.00  0.00    +0.000 OA
ATOM     25  H   UNL     1       5.943   2.882  20.260  0.00  0.00    +0.000 HD
ATOM     26  H   UNL     1       4.777   2.091  19.253  0.00  0.00    +0.000 HD
ENDBRANCH  16  23
ENDBRANCH   1  19
TORSDOF 3
ENDMDL
MODEL 8
REMARK VINA RESULT:      -7.0      3.662      4.653
REMARK  Name = 
REMARK  3 active torsions:
REMARK  status: ('A' for Active; 'I' for Inactive)
REMARK    1  A    between atoms: C_2  and  C_4
REMARK    2  A    between atoms: N_7  and  C_8
REMARK    3  A    between atoms: N_12  and  C_13
REMARK                            x       y       z     vdW  Elec       q    Type
REMARK                         _______ _______ _______ _____ _____    ______ ____
ROOT
ATOM      1  C   UNL     1       4.176   4.339  16.597  0.00  0.00    +0.000 C 
ATOM      2  C   UNL     1       5.269   3.956  15.614  0.00  0.00    +0.000 C 
ATOM      3  C   UNL     1       6.441   4.817  15.991  0.00  0.00    +0.000 C 
ATOM      4  O   UNL     1       7.529   4.691  15.444  0.00  0.00    +0.000 OA
ATOM      5  N   UNL     1       6.072   5.697  16.981  0.00  0.00    +0.000 N 
ATOM      6  C   UNL     1       4.727   5.592  17.265  0.00  0.00    +0.000 C 
ATOM      7  O   UNL     1       4.033   6.373  17.904  0.00  0.00    +0.000 OA
ENDROOT
BRANCH   5   8
ATOM      8  C   UNL     1       6.935   6.645  17.608  0.00  0.00    +0.000 A 
ATOM      9  C   UNL     1       7.774   6.292  18.678  0.00  0.00    +0.000 A 
ATOM     10  C   UNL     1       8.623   7.234  19.272  0.00  0.00    +0.000 A 
ATOM     11  C   UNL     1       8.629   8.546  18.819  0.00  0.00    +0.000 A 
ATOM     12  F   UNL     1       9.453   9.428  19.404  0.00  0.00    +0.000 F 
ATOM     13  C   UNL     1       7.792   8.930  17.782  0.00  0.00    +0.000 A 
ATOM     14 CL   UNL     1       7.767  10.562  17.232  0.00  0.00    +0.000 Cl
ATOM     15  C   UNL     1       6.952   7.989  17.181  0.00  0.00    +0.000 A 
ENDBRANCH   5   8
BRANCH   1  19
ATOM     16  C   UNL     1       2.421   2.311  20.006  0.00  0.00    +0.000 C 
ATOM     17  C   UNL     1       3.944   2.406  19.909  0.00  0.00    +0.000 C 
ATOM     18  C   UNL     1       4.373   3.480  18.908  0.00  0.00    +0.000 C 
ATOM     19  N   UNL     1       3.801   3.267  17.567  0.00  0.00    +0.000 NA
ATOM     20  C   UNL     1       2.336   3.084  17.595  0.00  0.00    +0.000 C 
ATOM     21  C   UNL     1       1.876   2.030  18.604  0.00  0.00    +0.000 C 
BRANCH  16  23
ATOM     22  N   UNL     1       0.586   3.927  20.251  0.00  0.00    +0.000 N 
ATOM     23  C   UNL     1       1.837   3.573  20.648  0.00  0.00    +0.000 C 
ATOM     24  O   UNL     1       2.405   4.239  21.508  0.00  0.00    +0.000 OA
ATOM     25  H   UNL     1       0.171   4.712  20.738  0.00  0.00    +0.000 HD
ATOM     26  H   UNL     1      -0.037   3.277  19.790  0.00  0.00    +0.000 HD
ENDBRANCH  16  23
ENDBRANCH   1  19
TORSDOF 3
ENDMDL
MODEL 9
REMARK VINA RESULT:      -7.0      1.228      1.572
REMARK  Name = 
REMARK  3 active torsions:
REMARK  status: ('A' for Active; 'I' for Inactive)
REMARK    1  A    between atoms: C_2  and  C_4
REMARK    2  A    between atoms: N_7  and  C_8
REMARK    3  A    between atoms: N_12  and  C_13
REMARK                            x       y       z     vdW  Elec       q    Type
REMARK                         _______ _______ _______ _____ _____    ______ ____
ROOT
ATOM      1  C   UNL     1       5.398   5.021  18.995  0.00  0.00    +0.000 C 
ATOM      2  C   UNL     1       4.529   6.156  18.481  0.00  0.00    +0.000 C 
ATOM      3  C   UNL     1       4.731   6.147  16.993  0.00  0.00    +0.000 C 
ATOM      4  O   UNL     1       4.096   6.893  16.257  0.00  0.00    +0.000 OA
ATOM      5  N   UNL     1       5.691   5.221  16.658  0.00  0.00    +0.000 N 
ATOM      6  C   UNL     1       6.244   4.648  17.784  0.00  0.00    +0.000 C 
ATOM      7  O   UNL     1       7.268   3.981  17.859  0.00  0.00    +0.000 OA
ENDROOT
BRANCH   5   8
ATOM      8  C   UNL     1       6.120   4.917  15.332  0.00  0.00    +0.000 A 
ATOM      9  C   UNL     1       5.453   3.972  14.534  0.00  0.00    +0.000 A 
ATOM     10  C   UNL     1       5.882   3.695  13.230  0.00  0.00    +0.000 A 
ATOM     11  C   UNL     1       6.995   4.344  12.713  0.00  0.00    +0.000 A 
ATOM     12  F   UNL     1       7.383   4.063  11.460  0.00  0.00    +0.000 F 
ATOM     13  C   UNL     1       7.689   5.263  13.487  0.00  0.00    +0.000 A 
ATOM     14 CL   UNL     1       9.091   6.050  12.868  0.00  0.00    +0.000 Cl
ATOM     15  C   UNL     1       7.256   5.547  14.785  0.00  0.00    +0.000 A 
ENDBRANCH   5   8
BRANCH   1  19
ATOM     16  C   UNL     1       2.195   2.232  19.876  0.00  0.00    +0.000 C 
ATOM     17  C   UNL     1       2.752   3.095  21.008  0.00  0.00    +0.000 C 
ATOM     18  C   UNL     1       3.551   4.281  20.464  0.00  0.00    +0.000 C 
ATOM     19  N   UNL     1       4.645   3.865  19.569  0.00  0.00    +0.000 NA
ATOM     20  C   UNL     1       4.189   2.960  18.495  0.00  0.00    +0.000 C 
ATOM     21  C   UNL     1       3.369   1.774  19.008  0.00  0.00    +0.000 C 
BRANCH  16  23
ATOM     22  N   UNL     1       0.111   3.535  19.831  0.00  0.00    +0.000 N 
ATOM     23  C   UNL     1       1.116   2.990  19.095  0.00  0.00    +0.000 C 
ATOM     24  O   UNL     1       1.132   3.162  17.881  0.00  0.00    +0.000 OA
ATOM     25  H   UNL     1      -0.554   4.104  19.322  0.00  0.00    +0.000 HD
ATOM     26  H   UNL     1       0.194   3.686  20.828  0.00  0.00    +0.000 HD
ENDBRANCH  16  23
ENDBRANCH   1  19
TORSDOF 3
ENDMDL
