MODEL 1
REMARK VINA RESULT:      -9.0      0.000      0.000
REMARK  Name = 
REMARK  6 active torsions:
REMARK  status: ('A' for Active; 'I' for Inactive)
REMARK    1  A    between atoms: C_1  and  N_2
REMARK    2  A    between atoms: C_3  and  C_4
REMARK    3  A    between atoms: C_7  and  C_8
REMARK    4  A    between atoms: C_12  and  C_13
REMARK    5  A    between atoms: C_18  and  C_19
REMARK    6  A    between atoms: C_19  and  C_20
REMARK                            x       y       z     vdW  Elec       q    Type
REMARK                         _______ _______ _______ _____ _____    ______ ____
ROOT
ATOM      1  C   UNL     1       1.306   8.198  20.662  0.00  0.00    +0.000 C 
ATOM      2  N   UNL     1       1.766   8.495  19.333  0.00  0.00    +0.000 N 
ATOM      3  C   UNL     1       2.540   7.717  18.496  0.00  0.00    +0.000 A 
ATOM      4  N   UNL     1       2.653   8.347  17.341  0.00  0.00    +0.000 NA
ATOM      5  N   UNL     1       1.986   9.543  17.421  0.00  0.00    +0.000 NA
ATOM      6  C   UNL     1       1.472   9.637  18.627  0.00  0.00    +0.000 A 
ENDROOT
BRANCH   3   7
ATOM      7  C   UNL     1       3.059   6.373  18.772  0.00  0.00    +0.000 A 
ATOM      8  C   UNL     1       2.315   5.538  19.629  0.00  0.00    +0.000 A 
ATOM      9  C   UNL     1       2.703   4.225  19.894  0.00  0.00    +0.000 A 
ATOM     10  C   UNL     1       3.825   3.686  19.266  0.00  0.00    +0.000 A 
ATOM     11  C   UNL     1       4.570   4.495  18.393  0.00  0.00    +0.000 A 
ATOM     12  C   UNL     1       4.202   5.834  18.144  0.00  0.00    +0.000 A 
BRANCH  10  13
ATOM     13  C   UNL     1       4.254   2.276  19.474  0.00  0.00    +0.000 C 
ATOM     14  N   UNL     1       3.928   1.337  18.545  0.00  0.00    +0.000 N 
ATOM     15  O   UNL     1       4.897   1.963  20.474  0.00  0.00    +0.000 OA
ATOM     16  H   UNL     1       3.401   1.497  17.706  0.00  0.00    +0.000 HD
ATOM     17  H   UNL     1       4.254   0.394  18.725  0.00  0.00    +0.000 HD
ENDBRANCH  10  13
BRANCH  12  18
ATOM     18  C   UNL     1       5.099   6.652  17.285  0.00  0.00    +0.000 C 
ATOM     19  N   UNL     1       4.871   6.616  15.937  0.00  0.00    +0.000 N 
ATOM     20  O   UNL     1       6.039   7.280  17.750  0.00  0.00    +0.000 OA
ATOM     21  H   UNL     1       4.086   6.161  15.500  0.00  0.00    +0.000 HD
ATOM     22  H   UNL     1       5.457   7.209  15.360  0.00  0.00    +0.000 HD
ENDBRANCH  12  18
ENDBRANCH   3   7
BRANCH   6  23
ATOM     23  C   UNL     1       0.835  10.935  19.171  0.00  0.00    +0.000 C 
ATOM     24  C   UNL     1       1.230  11.257  20.648  0.00  0.00    +0.000 C 
ATOM     25  C   UNL     1       1.362  12.733  20.220  0.00  0.00    +0.000 C 
ATOM     26  C   UNL     1       1.616  12.233  18.784  0.00  0.00    +0.000 C 
BRANCH  23  27
ATOM     27  C   UNL     1      -0.748  10.829  18.812  0.00  0.00    +0.000 A 
ATOM     28  C   UNL     1      -1.174   9.990  17.754  0.00  0.00    +0.000 A 
ATOM     29  C   UNL     1      -2.451  10.084  17.196  0.00  0.00    +0.000 A 
ATOM     30  C   UNL     1      -3.353  11.006  17.706  0.00  0.00    +0.000 A 
ATOM     31 CL   UNL     1      -4.873  11.241  16.937  0.00  0.00    +0.000 Cl
ATOM     32  C   UNL     1      -3.015  11.771  18.816  0.00  0.00    +0.000 A 
ATOM     33  C   UNL     1      -1.735  11.665  19.373  0.00  0.00    +0.000 A 
ENDBRANCH  23  27
ENDBRANCH   6  23
TORSDOF 5
ENDMDL
MODEL 2
REMARK VINA RESULT:      -8.8      2.113      3.237
REMARK  Name = 
REMARK  6 active torsions:
REMARK  status: ('A' for Active; 'I' for Inactive)
REMARK    1  A    between atoms: C_1  and  N_2
REMARK    2  A    between atoms: C_3  and  C_4
REMARK    3  A    between atoms: C_7  and  C_8
REMARK    4  A    between atoms: C_12  and  C_13
REMARK    5  A    between atoms: C_18  and  C_19
REMARK    6  A    between atoms: C_19  and  C_20
REMARK                            x       y       z     vdW  Elec       q    Type
REMARK                         _______ _______ _______ _____ _____    ______ ____
ROOT
ATOM      1  C   UNL     1       2.176   9.702  17.904  0.00  0.00    +0.000 C 
ATOM      2  N   UNL     1       1.908   8.745  18.942  0.00  0.00    +0.000 N 
ATOM      3  C   UNL     1       2.350   7.442  19.049  0.00  0.00    +0.000 A 
ATOM      4  N   UNL     1       1.927   6.960  20.203  0.00  0.00    +0.000 NA
ATOM      5  N   UNL     1       1.188   7.923  20.842  0.00  0.00    +0.000 NA
ATOM      6  C   UNL     1       1.162   8.987  20.071  0.00  0.00    +0.000 A 
ENDROOT
BRANCH   3   7
ATOM      7  C   UNL     1       3.233   6.733  18.116  0.00  0.00    +0.000 A 
ATOM      8  C   UNL     1       4.362   7.415  17.624  0.00  0.00    +0.000 A 
ATOM      9  C   UNL     1       5.287   6.794  16.784  0.00  0.00    +0.000 A 
ATOM     10  C   UNL     1       5.136   5.449  16.450  0.00  0.00    +0.000 A 
ATOM     11  C   UNL     1       4.027   4.745  16.946  0.00  0.00    +0.000 A 
ATOM     12  C   UNL     1       3.071   5.374  17.770  0.00  0.00    +0.000 A 
BRANCH  10  13
ATOM     13  C   UNL     1       6.119   4.723  15.599  0.00  0.00    +0.000 C 
ATOM     14  N   UNL     1       7.233   5.374  15.166  0.00  0.00    +0.000 N 
ATOM     15  O   UNL     1       5.926   3.549  15.290  0.00  0.00    +0.000 OA
ATOM     16  H   UNL     1       7.469   6.329  15.360  0.00  0.00    +0.000 HD
ATOM     17  H   UNL     1       7.878   4.834  14.601  0.00  0.00    +0.000 HD
ENDBRANCH  10  13
BRANCH  12  18
ATOM     18  C   UNL     1       1.875   4.587  18.172  0.00  0.00    +0.000 C 
ATOM     19  N   UNL     1       1.853   4.095  19.448  0.00  0.00    +0.000 N 
ATOM     20  O   UNL     1       0.977   4.333  17.382  0.00  0.00    +0.000 OA
ATOM     21  H   UNL     1       2.536   4.312  20.157  0.00  0.00    +0.000 HD
ATOM     22  H   UNL     1       1.017   3.597  19.729  0.00  0.00    +0.000 HD
ENDBRANCH  12  18
ENDBRANCH   3   7
BRANCH   6  23
ATOM     23  C   UNL     1       0.249  10.202  20.347  0.00  0.00    +0.000 C 
ATOM     24  C   UNL     1      -0.464  10.150  21.737  0.00  0.00    +0.000 C 
ATOM     25  C   UNL     1      -0.168  11.657  21.871  0.00  0.00    +0.000 C 
ATOM     26  C   UNL     1       1.009  11.453  20.897  0.00  0.00    +0.000 C 
BRANCH  23  27
ATOM     27  C   UNL     1      -0.680  10.362  19.021  0.00  0.00    +0.000 A 
ATOM     28  C   UNL     1      -0.784  11.622  18.384  0.00  0.00    +0.000 A 
ATOM     29  C   UNL     1      -1.783  11.905  17.450  0.00  0.00    +0.000 A 
ATOM     30  C   UNL     1      -2.692  10.916  17.102  0.00  0.00    +0.000 A 
ATOM     31 CL   UNL     1      -4.016  11.288  16.071  0.00  0.00    +0.000 Cl
ATOM     32  C   UNL     1      -2.558   9.633  17.619  0.00  0.00    +0.000 A 
ATOM     33  C   UNL     1      -1.550   9.357  18.550  0.00  0.00    +0.000 A 
ENDBRANCH  23  27
ENDBRANCH   6  23
TORSDOF 5
ENDMDL
MODEL 3
REMARK VINA RESULT:      -8.4      4.002      8.208
REMARK  Name = 
REMARK  6 active torsions:
REMARK  status: ('A' for Active; 'I' for Inactive)
REMARK    1  A    between atoms: C_1  and  N_2
REMARK    2  A    between atoms: C_3  and  C_4
REMARK    3  A    between atoms: C_7  and  C_8
REMARK    4  A    between atoms: C_12  and  C_13
REMARK    5  A    between atoms: C_18  and  C_19
REMARK    6  A    between atoms: C_19  and  C_20
REMARK                            x       y       z     vdW  Elec       q    Type
REMARK                         _______ _______ _______ _____ _____    ______ ____
ROOT
ATOM      1  C   UNL     1       1.857   5.277  20.621  0.00  0.00    +0.000 C 
ATOM      2  N   UNL     1       2.457   6.058  19.574  0.00  0.00    +0.000 N 
ATOM      3  C   UNL     1       2.311   7.406  19.313  0.00  0.00    +0.000 A 
ATOM      4  N   UNL     1       3.109   7.716  18.307  0.00  0.00    +0.000 NA
ATOM      5  N   UNL     1       3.755   6.581  17.887  0.00  0.00    +0.000 NA
ATOM      6  C   UNL     1       3.345   5.583  18.638  0.00  0.00    +0.000 A 
ENDROOT
BRANCH   3   7
ATOM      7  C   UNL     1       1.510   8.369  20.076  0.00  0.00    +0.000 A 
ATOM      8  C   UNL     1       1.434   8.209  21.473  0.00  0.00    +0.000 A 
ATOM      9  C   UNL     1       0.747   9.115  22.280  0.00  0.00    +0.000 A 
ATOM     10  C   UNL     1       0.154  10.244  21.716  0.00  0.00    +0.000 A 
ATOM     11  C   UNL     1       0.234  10.434  20.327  0.00  0.00    +0.000 A 
ATOM     12  C   UNL     1       0.901   9.505  19.501  0.00  0.00    +0.000 A 
BRANCH  10  13
ATOM     13  C   UNL     1      -0.548  11.270  22.536  0.00  0.00    +0.000 C 
ATOM     14  N   UNL     1      -1.590  10.892  23.326  0.00  0.00    +0.000 N 
ATOM     15  O   UNL     1      -0.191  12.446  22.500  0.00  0.00    +0.000 OA
ATOM     16  H   UNL     1      -1.955   9.962  23.413  0.00  0.00    +0.000 HD
ATOM     17  H   UNL     1      -2.027  11.624  23.875  0.00  0.00    +0.000 HD
ENDBRANCH  10  13
BRANCH  12  18
ATOM     18  C   UNL     1       0.855   9.726  18.031  0.00  0.00    +0.000 C 
ATOM     19  N   UNL     1       1.906  10.398  17.471  0.00  0.00    +0.000 N 
ATOM     20  O   UNL     1      -0.105   9.381  17.357  0.00  0.00    +0.000 OA
ATOM     21  H   UNL     1       2.745  10.662  17.962  0.00  0.00    +0.000 HD
ATOM     22  H   UNL     1       1.891  10.509  16.463  0.00  0.00    +0.000 HD
ENDBRANCH  12  18
ENDBRANCH   3   7
BRANCH   6  23
ATOM     23  C   UNL     1       3.681   4.107  18.331  0.00  0.00    +0.000 C 
ATOM     24  C   UNL     1       3.968   3.251  19.607  0.00  0.00    +0.000 C 
ATOM     25  C   UNL     1       3.153   2.119  18.949  0.00  0.00    +0.000 C 
ATOM     26  C   UNL     1       2.422   3.201  18.130  0.00  0.00    +0.000 C 
BRANCH  23  27
ATOM     27  C   UNL     1       4.818   4.149  17.170  0.00  0.00    +0.000 A 
ATOM     28  C   UNL     1       6.137   4.550  17.493  0.00  0.00    +0.000 A 
ATOM     29  C   UNL     1       7.069   4.904  16.515  0.00  0.00    +0.000 A 
ATOM     30  C   UNL     1       6.713   4.836  15.176  0.00  0.00    +0.000 A 
ATOM     31 CL   UNL     1       7.793   5.410  13.967  0.00  0.00    +0.000 Cl
ATOM     32  C   UNL     1       5.467   4.341  14.811  0.00  0.00    +0.000 A 
ATOM     33  C   UNL     1       4.541   3.983  15.798  0.00  0.00    +0.000 A 
ENDBRANCH  23  27
ENDBRANCH   6  23
TORSDOF 5
ENDMDL
MODEL 4
REMARK VINA RESULT:      -8.3      1.965      3.125
REMARK  Name = 
REMARK  6 active torsions:
REMARK  status: ('A' for Active; 'I' for Inactive)
REMARK    1  A    between atoms: C_1  and  N_2
REMARK    2  A    between atoms: C_3  and  C_4
REMARK    3  A    between atoms: C_7  and  C_8
REMARK    4  A    between atoms: C_12  and  C_13
REMARK    5  A    between atoms: C_18  and  C_19
REMARK    6  A    between atoms: C_19  and  C_20
REMARK                            x       y       z     vdW  Elec       q    Type
REMARK                         _______ _______ _______ _____ _____    ______ ____
ROOT
ATOM      1  C   UNL     1       1.784  10.048  18.183  0.00  0.00    +0.000 C 
ATOM      2  N   UNL     1       1.465   9.250  19.335  0.00  0.00    +0.000 N 
ATOM      3  C   UNL     1       1.814   7.941  19.600  0.00  0.00    +0.000 A 
ATOM      4  N   UNL     1       1.378   7.637  20.809  0.00  0.00    +0.000 NA
ATOM      5  N   UNL     1       0.722   8.724  21.330  0.00  0.00    +0.000 NA
ATOM      6  C   UNL     1       0.760   9.684  20.432  0.00  0.00    +0.000 A 
ENDROOT
BRANCH   3   7
ATOM      7  C   UNL     1       2.625   7.057  18.755  0.00  0.00    +0.000 A 
ATOM      8  C   UNL     1       3.383   7.641  17.721  0.00  0.00    +0.000 A 
ATOM      9  C   UNL     1       4.230   6.884  16.913  0.00  0.00    +0.000 A 
ATOM     10  C   UNL     1       4.385   5.518  17.148  0.00  0.00    +0.000 A 
ATOM     11  C   UNL     1       3.654   4.919  18.186  0.00  0.00    +0.000 A 
ATOM     12  C   UNL     1       2.771   5.673  18.988  0.00  0.00    +0.000 A 
BRANCH  10  13
ATOM     13  C   UNL     1       5.313   4.672  16.349  0.00  0.00    +0.000 C 
ATOM     14  N   UNL     1       5.417   3.345  16.634  0.00  0.00    +0.000 N 
ATOM     15  O   UNL     1       5.979   5.166  15.442  0.00  0.00    +0.000 OA
ATOM     16  H   UNL     1       4.922   2.858  17.358  0.00  0.00    +0.000 HD
ATOM     17  H   UNL     1       6.052   2.809  16.054  0.00  0.00    +0.000 HD
ENDBRANCH  10  13
BRANCH  12  18
ATOM     18  C   UNL     1       1.960   4.946  20.001  0.00  0.00    +0.000 C 
ATOM     19  N   UNL     1       2.438   4.925  21.282  0.00  0.00    +0.000 N 
ATOM     20  O   UNL     1       0.944   4.339  19.696  0.00  0.00    +0.000 OA
ATOM     21  H   UNL     1       3.238   5.446  21.603  0.00  0.00    +0.000 HD
ATOM     22  H   UNL     1       1.860   4.466  21.976  0.00  0.00    +0.000 HD
ENDBRANCH  12  18
ENDBRANCH   3   7
BRANCH   6  23
ATOM     23  C   UNL     1      -0.058  10.989  20.562  0.00  0.00    +0.000 C 
ATOM     24  C   UNL     1      -0.679  11.201  21.981  0.00  0.00    +0.000 C 
ATOM     25  C   UNL     1      -0.284  12.686  21.858  0.00  0.00    +0.000 C 
ATOM     26  C   UNL     1       0.812  12.253  20.865  0.00  0.00    +0.000 C 
BRANCH  23  27
ATOM     27  C   UNL     1      -1.059  11.007  19.281  0.00  0.00    +0.000 A 
ATOM     28  C   UNL     1      -1.766   9.833  18.925  0.00  0.00    +0.000 A 
ATOM     29  C   UNL     1      -2.388   9.685  17.684  0.00  0.00    +0.000 A 
ATOM     30  C   UNL     1      -2.346  10.728  16.770  0.00  0.00    +0.000 A 
ATOM     31 CL   UNL     1      -2.974  10.510  15.184  0.00  0.00    +0.000 Cl
ATOM     32  C   UNL     1      -1.759  11.939  17.121  0.00  0.00    +0.000 A 
ATOM     33  C   UNL     1      -1.143  12.080  18.370  0.00  0.00    +0.000 A 
ENDBRANCH  23  27
ENDBRANCH   6  23
TORSDOF 5
ENDMDL
MODEL 5
REMARK VINA RESULT:      -8.2      0.664      1.102
REMARK  Name = 
REMARK  6 active torsions:
REMARK  status: ('A' for Active; 'I' for Inactive)
REMARK    1  A    between atoms: C_1  and  N_2
REMARK    2  A    between atoms: C_3  and  C_4
REMARK    3  A    between atoms: C_7  and  C_8
REMARK    4  A    between atoms: C_12  and  C_13
REMARK    5  A    between atoms: C_18  and  C_19
REMARK    6  A    between atoms: C_19  and  C_20
REMARK                            x       y       z     vdW  Elec       q    Type
REMARK                         _______ _______ _______ _____ _____    ______ ____
ROOT
ATOM      1  C   UNL     1       1.207   8.626  20.773  0.00  0.00    +0.000 C 
ATOM      2  N   UNL     1       1.654   8.723  19.411  0.00  0.00    +0.000 N 
ATOM      3  C   UNL     1       2.393   7.815  18.680  0.00  0.00    +0.000 A 
ATOM      4  N   UNL     1       2.505   8.277  17.447  0.00  0.00    +0.000 NA
ATOM      5  N   UNL     1       1.870   9.491  17.369  0.00  0.00    +0.000 NA
ATOM      6  C   UNL     1       1.378   9.764  18.557  0.00  0.00    +0.000 A 
ENDROOT
BRANCH   3   7
ATOM      7  C   UNL     1       2.881   6.508  19.133  0.00  0.00    +0.000 A 
ATOM      8  C   UNL     1       2.144   5.834  20.126  0.00  0.00    +0.000 A 
ATOM      9  C   UNL     1       2.501   4.560  20.568  0.00  0.00    +0.000 A 
ATOM     10  C   UNL     1       3.583   3.897  19.991  0.00  0.00    +0.000 A 
ATOM     11  C   UNL     1       4.321   4.544  18.987  0.00  0.00    +0.000 A 
ATOM     12  C   UNL     1       3.984   5.844  18.556  0.00  0.00    +0.000 A 
BRANCH  10  13
ATOM     13  C   UNL     1       3.978   2.518  20.389  0.00  0.00    +0.000 C 
ATOM     14  N   UNL     1       4.818   1.808  19.588  0.00  0.00    +0.000 N 
ATOM     15  O   UNL     1       3.548   2.025  21.430  0.00  0.00    +0.000 OA
ATOM     16  H   UNL     1       5.210   2.123  18.721  0.00  0.00    +0.000 HD
ATOM     17  H   UNL     1       5.067   0.879  19.909  0.00  0.00    +0.000 HD
ENDBRANCH  10  13
BRANCH  12  18
ATOM     18  C   UNL     1       4.875   6.497  17.559  0.00  0.00    +0.000 C 
ATOM     19  N   UNL     1       4.655   6.201  16.242  0.00  0.00    +0.000 N 
ATOM     20  O   UNL     1       5.802   7.218  17.898  0.00  0.00    +0.000 OA
ATOM     21  H   UNL     1       3.880   5.658  15.898  0.00  0.00    +0.000 HD
ATOM     22  H   UNL     1       5.236   6.682  15.565  0.00  0.00    +0.000 HD
ENDBRANCH  12  18
ENDBRANCH   3   7
BRANCH   6  23
ATOM     23  C   UNL     1       0.783  11.142  18.923  0.00  0.00    +0.000 C 
ATOM     24  C   UNL     1       1.054  11.570  20.402  0.00  0.00    +0.000 C 
ATOM     25  C   UNL     1       1.331  12.991  19.870  0.00  0.00    +0.000 C 
ATOM     26  C   UNL     1       1.688  12.350  18.514  0.00  0.00    +0.000 C 
BRANCH  23  27
ATOM     27  C   UNL     1      -0.760  11.103  18.412  0.00  0.00    +0.000 A 
ATOM     28  C   UNL     1      -1.680  12.072  18.880  0.00  0.00    +0.000 A 
ATOM     29  C   UNL     1      -3.061  11.920  18.736  0.00  0.00    +0.000 A 
ATOM     30  C   UNL     1      -3.560  10.801  18.086  0.00  0.00    +0.000 A 
ATOM     31 CL   UNL     1      -5.256  10.522  18.032  0.00  0.00    +0.000 Cl
ATOM     32  C   UNL     1      -2.690   9.881  17.513  0.00  0.00    +0.000 A 
ATOM     33  C   UNL     1      -1.307  10.045  17.658  0.00  0.00    +0.000 A 
ENDBRANCH  23  27
ENDBRANCH   6  23
TORSDOF 5
ENDMDL
MODEL 6
REMARK VINA RESULT:      -8.0      2.508      3.563
REMARK  Name = 
REMARK  6 active torsions:
REMARK  status: ('A' for Active; 'I' for Inactive)
REMARK    1  A    between atoms: C_1  and  N_2
REMARK    2  A    between atoms: C_3  and  C_4
REMARK    3  A    between atoms: C_7  and  C_8
REMARK    4  A    between atoms: C_12  and  C_13
REMARK    5  A    between atoms: C_18  and  C_19
REMARK    6  A    between atoms: C_19  and  C_20
REMARK                            x       y       z     vdW  Elec       q    Type
REMARK                         _______ _______ _______ _____ _____    ______ ____
ROOT
ATOM      1  C   UNL     1       2.440   7.099  20.651  0.00  0.00    +0.000 C 
ATOM      2  N   UNL     1       2.060   7.907  19.525  0.00  0.00    +0.000 N 
ATOM      3  C   UNL     1       2.511   7.839  18.223  0.00  0.00    +0.000 A 
ATOM      4  N   UNL     1       1.832   8.717  17.507  0.00  0.00    +0.000 NA
ATOM      5  N   UNL     1       0.959   9.380  18.332  0.00  0.00    +0.000 NA
ATOM      6  C   UNL     1       1.114   8.905  19.547  0.00  0.00    +0.000 A 
ENDROOT
BRANCH   3   7
ATOM      7  C   UNL     1       3.487   6.889  17.678  0.00  0.00    +0.000 A 
ATOM      8  C   UNL     1       4.736   7.389  17.258  0.00  0.00    +0.000 A 
ATOM      9  C   UNL     1       5.743   6.547  16.788  0.00  0.00    +0.000 A 
ATOM     10  C   UNL     1       5.551   5.167  16.771  0.00  0.00    +0.000 A 
ATOM     11  C   UNL     1       4.321   4.645  17.203  0.00  0.00    +0.000 A 
ATOM     12  C   UNL     1       3.286   5.493  17.650  0.00  0.00    +0.000 A 
BRANCH  10  13
ATOM     13  C   UNL     1       6.610   4.219  16.326  0.00  0.00    +0.000 C 
ATOM     14  N   UNL     1       6.286   3.211  15.472  0.00  0.00    +0.000 N 
ATOM     15  O   UNL     1       7.765   4.346  16.727  0.00  0.00    +0.000 OA
ATOM     16  H   UNL     1       5.373   3.025  15.101  0.00  0.00    +0.000 HD
ATOM     17  H   UNL     1       7.044   2.601  15.189  0.00  0.00    +0.000 HD
ENDBRANCH  10  13
BRANCH  12  18
ATOM     18  C   UNL     1       1.980   4.869  17.997  0.00  0.00    +0.000 C 
ATOM     19  N   UNL     1       1.863   4.325  19.246  0.00  0.00    +0.000 N 
ATOM     20  O   UNL     1       1.070   4.788  17.185  0.00  0.00    +0.000 OA
ATOM     21  H   UNL     1       2.556   4.404  19.973  0.00  0.00    +0.000 HD
ATOM     22  H   UNL     1       0.958   3.940  19.492  0.00  0.00    +0.000 HD
ENDBRANCH  12  18
ENDBRANCH   3   7
BRANCH   6  23
ATOM     23  C   UNL     1       0.464   9.550  20.791  0.00  0.00    +0.000 C 
ATOM     24  C   UNL     1      -0.610   8.646  21.479  0.00  0.00    +0.000 C 
ATOM     25  C   UNL     1      -0.028   9.100  22.833  0.00  0.00    +0.000 C 
ATOM     26  C   UNL     1       1.300   9.380  22.102  0.00  0.00    +0.000 C 
BRANCH  23  27
ATOM     27  C   UNL     1       0.018  11.044  20.327  0.00  0.00    +0.000 A 
ATOM     28  C   UNL     1       0.927  12.121  20.460  0.00  0.00    +0.000 A 
ATOM     29  C   UNL     1       0.519  13.455  20.378  0.00  0.00    +0.000 A 
ATOM     30  C   UNL     1      -0.813  13.747  20.128  0.00  0.00    +0.000 A 
ATOM     31 CL   UNL     1      -1.361  15.377  20.173  0.00  0.00    +0.000 Cl
ATOM     32  C   UNL     1      -1.717  12.721  19.880  0.00  0.00    +0.000 A 
ATOM     33  C   UNL     1      -1.298  11.388  19.958  0.00  0.00    +0.000 A 
ENDBRANCH  23  27
ENDBRANCH   6  23
TORSDOF 5
ENDMDL
MODEL 7
REMARK VINA RESULT:      -8.0      2.687      4.264
REMARK  Name = 
REMARK  6 active torsions:
REMARK  status: ('A' for Active; 'I' for Inactive)
REMARK    1  A    between atoms: C_1  and  N_2
REMARK    2  A    between atoms: C_3  and  C_4
REMARK    3  A    between atoms: C_7  and  C_8
REMARK    4  A    between atoms: C_12  and  C_13
REMARK    5  A    between atoms: C_18  and  C_19
REMARK    6  A    between atoms: C_19  and  C_20
REMARK                            x       y       z     vdW  Elec       q    Type
REMARK                         _______ _______ _______ _____ _____    ______ ____
ROOT
ATOM      1  C   UNL     1       2.308   9.397  17.170  0.00  0.00    +0.000 C 
ATOM      2  N   UNL     1       2.082   8.680  18.395  0.00  0.00    +0.000 N 
ATOM      3  C   UNL     1       2.594   7.459  18.785  0.00  0.00    +0.000 A 
ATOM      4  N   UNL     1       2.187   7.221  20.019  0.00  0.00    +0.000 NA
ATOM      5  N   UNL     1       1.392   8.259  20.432  0.00  0.00    +0.000 NA
ATOM      6  C   UNL     1       1.314   9.124  19.445  0.00  0.00    +0.000 A 
ENDROOT
BRANCH   3   7
ATOM      7  C   UNL     1       3.522   6.611  18.030  0.00  0.00    +0.000 A 
ATOM      8  C   UNL     1       4.739   7.177  17.601  0.00  0.00    +0.000 A 
ATOM      9  C   UNL     1       5.705   6.425  16.934  0.00  0.00    +0.000 A 
ATOM     10  C   UNL     1       5.504   5.062  16.717  0.00  0.00    +0.000 A 
ATOM     11  C   UNL     1       4.306   4.473  17.153  0.00  0.00    +0.000 A 
ATOM     12  C   UNL     1       3.311   5.235  17.801  0.00  0.00    +0.000 A 
BRANCH  10  13
ATOM     13  C   UNL     1       6.522   4.201  16.055  0.00  0.00    +0.000 C 
ATOM     14  N   UNL     1       6.136   3.359  15.059  0.00  0.00    +0.000 N 
ATOM     15  O   UNL     1       7.700   4.250  16.405  0.00  0.00    +0.000 OA
ATOM     16  H   UNL     1       5.201   3.246  14.713  0.00  0.00    +0.000 HD
ATOM     17  H   UNL     1       6.868   2.804  14.630  0.00  0.00    +0.000 HD
ENDBRANCH  10  13
BRANCH  12  18
ATOM     18  C   UNL     1       2.031   4.557  18.142  0.00  0.00    +0.000 C 
ATOM     19  N   UNL     1       1.898   4.087  19.420  0.00  0.00    +0.000 N 
ATOM     20  O   UNL     1       1.159   4.371  17.306  0.00  0.00    +0.000 OA
ATOM     21  H   UNL     1       2.556   4.254  20.163  0.00  0.00    +0.000 HD
ATOM     22  H   UNL     1       1.008   3.666  19.658  0.00  0.00    +0.000 HD
ENDBRANCH  12  18
ENDBRANCH   3   7
BRANCH   6  23
ATOM     23  C   UNL     1       0.334  10.318  19.448  0.00  0.00    +0.000 C 
ATOM     24  C   UNL     1      -0.705  10.280  18.280  0.00  0.00    +0.000 C 
ATOM     25  C   UNL     1      -1.766  10.745  19.298  0.00  0.00    +0.000 C 
ATOM     26  C   UNL     1      -0.888  10.130  20.406  0.00  0.00    +0.000 C 
BRANCH  23  27
ATOM     27  C   UNL     1       1.260  11.645  19.601  0.00  0.00    +0.000 A 
ATOM     28  C   UNL     1       1.322  12.320  20.844  0.00  0.00    +0.000 A 
ATOM     29  C   UNL     1       1.835  13.613  20.966  0.00  0.00    +0.000 A 
ATOM     30  C   UNL     1       2.333  14.258  19.843  0.00  0.00    +0.000 A 
ATOM     31 CL   UNL     1       2.829  15.902  19.944  0.00  0.00    +0.000 Cl
ATOM     32  C   UNL     1       2.395  13.591  18.626  0.00  0.00    +0.000 A 
ATOM     33  C   UNL     1       1.884  12.293  18.515  0.00  0.00    +0.000 A 
ENDBRANCH  23  27
ENDBRANCH   6  23
TORSDOF 5
ENDMDL
MODEL 8
REMARK VINA RESULT:      -7.9      2.160      3.454
REMARK  Name = 
REMARK  6 active torsions:
REMARK  status: ('A' for Active; 'I' for Inactive)
REMARK    1  A    between atoms: C_1  and  N_2
REMARK    2  A    between atoms: C_3  and  C_4
REMARK    3  A    between atoms: C_7  and  C_8
REMARK    4  A    between atoms: C_12  and  C_13
REMARK    5  A    between atoms: C_18  and  C_19
REMARK    6  A    between atoms: C_19  and  C_20
REMARK                            x       y       z     vdW  Elec       q    Type
REMARK                         _______ _______ _______ _____ _____    ______ ____
ROOT
ATOM      1  C   UNL     1       1.205   8.212  20.738  0.00  0.00    +0.000 C 
ATOM      2  N   UNL     1       1.621   8.509  19.395  0.00  0.00    +0.000 N 
ATOM      3  C   UNL     1       2.405   7.751  18.548  0.00  0.00    +0.000 A 
ATOM      4  N   UNL     1       2.465   8.371  17.383  0.00  0.00    +0.000 NA
ATOM      5  N   UNL     1       1.753   9.540  17.465  0.00  0.00    +0.000 NA
ATOM      6  C   UNL     1       1.264   9.629  18.683  0.00  0.00    +0.000 A 
ENDROOT
BRANCH   3   7
ATOM      7  C   UNL     1       2.984   6.433  18.828  0.00  0.00    +0.000 A 
ATOM      8  C   UNL     1       2.291   5.578  19.707  0.00  0.00    +0.000 A 
ATOM      9  C   UNL     1       2.737   4.285  19.978  0.00  0.00    +0.000 A 
ATOM     10  C   UNL     1       3.868   3.786  19.334  0.00  0.00    +0.000 A 
ATOM     11  C   UNL     1       4.564   4.614  18.439  0.00  0.00    +0.000 A 
ATOM     12  C   UNL     1       4.136   5.934  18.184  0.00  0.00    +0.000 A 
BRANCH  10  13
ATOM     13  C   UNL     1       4.360   2.396  19.547  0.00  0.00    +0.000 C 
ATOM     14  N   UNL     1       4.077   1.441  18.621  0.00  0.00    +0.000 N 
ATOM     15  O   UNL     1       5.013   2.115  20.550  0.00  0.00    +0.000 OA
ATOM     16  H   UNL     1       3.547   1.574  17.780  0.00  0.00    +0.000 HD
ATOM     17  H   UNL     1       4.445   0.514  18.805  0.00  0.00    +0.000 HD
ENDBRANCH  10  13
BRANCH  12  18
ATOM     18  C   UNL     1       4.983   6.779  17.299  0.00  0.00    +0.000 C 
ATOM     19  N   UNL     1       4.742   6.708  15.955  0.00  0.00    +0.000 N 
ATOM     20  O   UNL     1       5.896   7.460  17.742  0.00  0.00    +0.000 OA
ATOM     21  H   UNL     1       3.975   6.207  15.536  0.00  0.00    +0.000 HD
ATOM     22  H   UNL     1       5.292   7.318  15.361  0.00  0.00    +0.000 HD
ENDBRANCH  12  18
ENDBRANCH   3   7
BRANCH   6  23
ATOM     23  C   UNL     1       0.589  10.908  19.226  0.00  0.00    +0.000 C 
ATOM     24  C   UNL     1      -0.722  11.295  18.468  0.00  0.00    +0.000 C 
ATOM     25  C   UNL     1      -1.335  11.639  19.841  0.00  0.00    +0.000 C 
ATOM     26  C   UNL     1      -0.324  10.660  20.471  0.00  0.00    +0.000 C 
BRANCH  23  27
ATOM     27  C   UNL     1       1.771  12.020  19.321  0.00  0.00    +0.000 A 
ATOM     28  C   UNL     1       2.070  12.623  20.567  0.00  0.00    +0.000 A 
ATOM     29  C   UNL     1       2.838  13.784  20.669  0.00  0.00    +0.000 A 
ATOM     30  C   UNL     1       3.359  14.361  19.519  0.00  0.00    +0.000 A 
ATOM     31 CL   UNL     1       4.178  15.870  19.608  0.00  0.00    +0.000 Cl
ATOM     32  C   UNL     1       3.184  13.741  18.288  0.00  0.00    +0.000 A 
ATOM     33  C   UNL     1       2.417  12.573  18.197  0.00  0.00    +0.000 A 
ENDBRANCH  23  27
ENDBRANCH   6  23
TORSDOF 5
ENDMDL
MODEL 9
REMARK VINA RESULT:      -7.9      2.526      3.589
REMARK  Name = 
REMARK  6 active torsions:
REMARK  status: ('A' for Active; 'I' for Inactive)
REMARK    1  A    between atoms: C_1  and  N_2
REMARK    2  A    between atoms: C_3  and  C_4
REMARK    3  A    between atoms: C_7  and  C_8
REMARK    4  A    between atoms: C_12  and  C_13
REMARK    5  A    between atoms: C_18  and  C_19
REMARK    6  A    between atoms: C_19  and  C_20
REMARK                            x       y       z     vdW  Elec       q    Type
REMARK                         _______ _______ _______ _____ _____    ______ ____
ROOT
ATOM      1  C   UNL     1       2.432   7.034  20.654  0.00  0.00    +0.000 C 
ATOM      2  N   UNL     1       2.072   7.886  19.555  0.00  0.00    +0.000 N 
ATOM      3  C   UNL     1       2.526   7.851  18.252  0.00  0.00    +0.000 A 
ATOM      4  N   UNL     1       1.868   8.766  17.564  0.00  0.00    +0.000 NA
ATOM      5  N   UNL     1       1.007   9.421  18.408  0.00  0.00    +0.000 NA
ATOM      6  C   UNL     1       1.147   8.902  19.607  0.00  0.00    +0.000 A 
ENDROOT
BRANCH   3   7
ATOM      7  C   UNL     1       3.484   6.898  17.679  0.00  0.00    +0.000 A 
ATOM      8  C   UNL     1       4.732   7.391  17.250  0.00  0.00    +0.000 A 
ATOM      9  C   UNL     1       5.723   6.546  16.752  0.00  0.00    +0.000 A 
ATOM     10  C   UNL     1       5.514   5.168  16.715  0.00  0.00    +0.000 A 
ATOM     11  C   UNL     1       4.284   4.654  17.156  0.00  0.00    +0.000 A 
ATOM     12  C   UNL     1       3.265   5.506  17.631  0.00  0.00    +0.000 A 
BRANCH  10  13
ATOM     13  C   UNL     1       6.556   4.215  16.241  0.00  0.00    +0.000 C 
ATOM     14  N   UNL     1       6.197   3.187  15.426  0.00  0.00    +0.000 N 
ATOM     15  O   UNL     1       7.728   4.356  16.584  0.00  0.00    +0.000 OA
ATOM     16  H   UNL     1       5.268   2.990  15.102  0.00  0.00    +0.000 HD
ATOM     17  H   UNL     1       6.944   2.574  15.119  0.00  0.00    +0.000 HD
ENDBRANCH  10  13
BRANCH  12  18
ATOM     18  C   UNL     1       1.957   4.892  17.985  0.00  0.00    +0.000 C 
ATOM     19  N   UNL     1       1.851   4.326  19.226  0.00  0.00    +0.000 N 
ATOM     20  O   UNL     1       1.034   4.837  17.186  0.00  0.00    +0.000 OA
ATOM     21  H   UNL     1       2.555   4.383  19.944  0.00  0.00    +0.000 HD
ATOM     22  H   UNL     1       0.945   3.948  19.478  0.00  0.00    +0.000 HD
ENDBRANCH  12  18
ENDBRANCH   3   7
BRANCH   6  23
ATOM     23  C   UNL     1       0.508   9.521  20.870  0.00  0.00    +0.000 C 
ATOM     24  C   UNL     1      -0.692   8.693  21.435  0.00  0.00    +0.000 C 
ATOM     25  C   UNL     1      -0.136   8.974  22.846  0.00  0.00    +0.000 C 
ATOM     26  C   UNL     1       1.251   9.159  22.198  0.00  0.00    +0.000 C 
BRANCH  23  27
ATOM     27  C   UNL     1       0.251  11.085  20.510  0.00  0.00    +0.000 A 
ATOM     28  C   UNL     1      -0.987  11.483  19.949  0.00  0.00    +0.000 A 
ATOM     29  C   UNL     1      -1.164  12.726  19.337  0.00  0.00    +0.000 A 
ATOM     30  C   UNL     1      -0.107  13.623  19.297  0.00  0.00    +0.000 A 
ATOM     31 CL   UNL     1      -0.258  15.093  18.418  0.00  0.00    +0.000 Cl
ATOM     32  C   UNL     1       1.091  13.318  19.933  0.00  0.00    +0.000 A 
ATOM     33  C   UNL     1       1.256  12.072  20.549  0.00  0.00    +0.000 A 
ENDBRANCH  23  27
ENDBRANCH   6  23
TORSDOF 5
ENDMDL
