MODEL 1
REMARK VINA RESULT:      -6.7      0.000      0.000
REMARK  Name = 
REMARK  6 active torsions:
REMARK  status: ('A' for Active; 'I' for Inactive)
REMARK    1  A    between atoms: C_1  and  C_2
REMARK    2  A    between atoms: C_2  and  N_4
REMARK    3  A    between atoms: N_9  and  C_10
REMARK    4  A    between atoms: C_10  and  C_11
REMARK    5  A    between atoms: C_11  and  O_12
REMARK    6  A    between atoms: C_11  and  C_13
REMARK                            x       y       z     vdW  Elec       q    Type
REMARK                         _______ _______ _______ _____ _____    ______ ____
ROOT
ATOM      1  N   UNL     1       7.593   6.550  16.556  0.00  0.00    +0.000 NA
ATOM      2  C   UNL     1       6.812   5.582  16.269  0.00  0.00    +0.000 A 
ATOM      3  S   UNL     1       7.000   5.072  14.527  0.00  0.00    +0.000 S 
ATOM      4  C   UNL     1       5.955   3.711  14.765  0.00  0.00    +0.000 A 
ATOM      5  C   UNL     1       5.454   3.702  16.004  0.00  0.00    +0.000 A 
ATOM      6  N   UNL     1       5.859   4.737  16.846  0.00  0.00    +0.000 N 
ENDROOT
BRANCH   1   8
ATOM      7  C   UNL     1       7.804   8.586  17.776  0.00  0.00    +0.000 C 
ATOM      8  C   UNL     1       7.774   7.073  17.800  0.00  0.00    +0.000 C 
ATOM      9  O   UNL     1       7.962   6.456  18.839  0.00  0.00    +0.000 OA
ENDBRANCH   1   8
BRANCH   6  10
ATOM     10  C   UNL     1       5.173   4.962  18.129  0.00  0.00    +0.000 C 
BRANCH  10  11
ATOM     11  C   UNL     1       4.499   3.680  18.671  0.00  0.00    +0.000 C 
BRANCH  11  12
ATOM     12  C   UNL     1       3.187   3.882  19.394  0.00  0.00    +0.000 A 
ATOM     13  C   UNL     1       2.739   5.067  19.955  0.00  0.00    +0.000 A 
ATOM     14  C   UNL     1       1.503   4.921  20.645  0.00  0.00    +0.000 A 
ATOM     15  C   UNL     1       1.016   3.638  20.555  0.00  0.00    +0.000 A 
ATOM     16  S   UNL     1       2.031   2.634  19.614  0.00  0.00    +0.000 S 
ENDBRANCH  11  12
BRANCH  11  17
ATOM     17  O   UNL     1       5.360   2.984  19.581  0.00  0.00    +0.000 OA
ATOM     18  H   UNL     1       6.138   2.690  19.081  0.00  0.00    +0.000 HD
ENDBRANCH  11  17
ENDBRANCH  10  11
ENDBRANCH   6  10
TORSDOF 5
ENDMDL
MODEL 2
REMARK VINA RESULT:      -6.6      0.917      1.113
REMARK  Name = 
REMARK  6 active torsions:
REMARK  status: ('A' for Active; 'I' for Inactive)
REMARK    1  A    between atoms: C_1  and  C_2
REMARK    2  A    between atoms: C_2  and  N_4
REMARK    3  A    between atoms: N_9  and  C_10
REMARK    4  A    between atoms: C_10  and  C_11
REMARK    5  A    between atoms: C_11  and  O_12
REMARK    6  A    between atoms: C_11  and  C_13
REMARK                            x       y       z     vdW  Elec       q    Type
REMARK                         _______ _______ _______ _____ _____    ______ ____
ROOT
ATOM      1  N   UNL     1       7.551   6.327  16.432  0.00  0.00    +0.000 NA
ATOM      2  C   UNL     1       6.718   5.493  15.942  0.00  0.00    +0.000 A 
ATOM      3  S   UNL     1       7.178   5.015  14.242  0.00  0.00    +0.000 S 
ATOM      4  C   UNL     1       5.928   3.815  14.193  0.00  0.00    +0.000 A 
ATOM      5  C   UNL     1       5.194   3.841  15.308  0.00  0.00    +0.000 A 
ATOM      6  N   UNL     1       5.561   4.780  16.273  0.00  0.00    +0.000 N 
ENDROOT
BRANCH   1   8
ATOM      7  C   UNL     1       7.784   8.272  17.788  0.00  0.00    +0.000 C 
ATOM      8  C   UNL     1       7.551   6.779  17.716  0.00  0.00    +0.000 C 
ATOM      9  O   UNL     1       7.447   6.108  18.733  0.00  0.00    +0.000 OA
ENDBRANCH   1   8
BRANCH   6  10
ATOM     10  C   UNL     1       4.671   5.063  17.411  0.00  0.00    +0.000 C 
BRANCH  10  11
ATOM     11  C   UNL     1       4.462   3.829  18.318  0.00  0.00    +0.000 C 
BRANCH  11  12
ATOM     12  C   UNL     1       3.229   3.857  19.194  0.00  0.00    +0.000 A 
ATOM     13  C   UNL     1       2.438   2.768  19.522  0.00  0.00    +0.000 A 
ATOM     14  C   UNL     1       1.297   3.125  20.293  0.00  0.00    +0.000 A 
ATOM     15  C   UNL     1       1.268   4.472  20.571  0.00  0.00    +0.000 A 
ATOM     16  S   UNL     1       2.632   5.284  19.935  0.00  0.00    +0.000 S 
ENDBRANCH  11  12
BRANCH  11  17
ATOM     17  O   UNL     1       5.578   3.634  19.197  0.00  0.00    +0.000 OA
ATOM     18  H   UNL     1       5.304   3.006  19.883  0.00  0.00    +0.000 HD
ENDBRANCH  11  17
ENDBRANCH  10  11
ENDBRANCH   6  10
TORSDOF 5
ENDMDL
MODEL 3
REMARK VINA RESULT:      -6.4      1.104      1.181
REMARK  Name = 
REMARK  6 active torsions:
REMARK  status: ('A' for Active; 'I' for Inactive)
REMARK    1  A    between atoms: C_1  and  C_2
REMARK    2  A    between atoms: C_2  and  N_4
REMARK    3  A    between atoms: N_9  and  C_10
REMARK    4  A    between atoms: C_10  and  C_11
REMARK    5  A    between atoms: C_11  and  O_12
REMARK    6  A    between atoms: C_11  and  C_13
REMARK                            x       y       z     vdW  Elec       q    Type
REMARK                         _______ _______ _______ _____ _____    ______ ____
ROOT
ATOM      1  N   UNL     1       7.604   6.354  16.524  0.00  0.00    +0.000 NA
ATOM      2  C   UNL     1       6.670   5.620  16.057  0.00  0.00    +0.000 A 
ATOM      3  S   UNL     1       7.120   4.927  14.430  0.00  0.00    +0.000 S 
ATOM      4  C   UNL     1       5.697   3.937  14.408  0.00  0.00    +0.000 A 
ATOM      5  C   UNL     1       4.929   4.177  15.475  0.00  0.00    +0.000 A 
ATOM      6  N   UNL     1       5.401   5.129  16.380  0.00  0.00    +0.000 N 
ENDROOT
BRANCH   1   8
ATOM      7  C   UNL     1       7.770   8.417  17.704  0.00  0.00    +0.000 C 
ATOM      8  C   UNL     1       7.621   6.913  17.766  0.00  0.00    +0.000 C 
ATOM      9  O   UNL     1       7.591   6.326  18.839  0.00  0.00    +0.000 OA
ENDBRANCH   1   8
BRANCH   6  10
ATOM     10  C   UNL     1       4.519   5.648  17.439  0.00  0.00    +0.000 C 
BRANCH  10  11
ATOM     11  C   UNL     1       4.502   4.740  18.690  0.00  0.00    +0.000 C 
BRANCH  11  12
ATOM     12  C   UNL     1       3.245   3.926  18.895  0.00  0.00    +0.000 A 
ATOM     13  C   UNL     1       2.024   4.409  19.336  0.00  0.00    +0.000 A 
ATOM     14  C   UNL     1       1.053   3.384  19.512  0.00  0.00    +0.000 A 
ATOM     15  C   UNL     1       1.544   2.148  19.158  0.00  0.00    +0.000 A 
ATOM     16  S   UNL     1       3.152   2.241  18.584  0.00  0.00    +0.000 S 
ENDBRANCH  11  12
BRANCH  11  17
ATOM     17  O   UNL     1       4.691   5.502  19.889  0.00  0.00    +0.000 OA
ATOM     18  H   UNL     1       4.673   4.883  20.635  0.00  0.00    +0.000 HD
ENDBRANCH  11  17
ENDBRANCH  10  11
ENDBRANCH   6  10
TORSDOF 5
ENDMDL
MODEL 4
REMARK VINA RESULT:      -6.2      2.537      5.835
REMARK  Name = 
REMARK  6 active torsions:
REMARK  status: ('A' for Active; 'I' for Inactive)
REMARK    1  A    between atoms: C_1  and  C_2
REMARK    2  A    between atoms: C_2  and  N_4
REMARK    3  A    between atoms: N_9  and  C_10
REMARK    4  A    between atoms: C_10  and  C_11
REMARK    5  A    between atoms: C_11  and  O_12
REMARK    6  A    between atoms: C_11  and  C_13
REMARK                            x       y       z     vdW  Elec       q    Type
REMARK                         _______ _______ _______ _____ _____    ______ ____
ROOT
ATOM      1  N   UNL     1       3.039   3.312  20.101  0.00  0.00    +0.000 NA
ATOM      2  C   UNL     1       2.964   4.486  19.605  0.00  0.00    +0.000 A 
ATOM      3  S   UNL     1       1.838   5.545  20.575  0.00  0.00    +0.000 S 
ATOM      4  C   UNL     1       2.277   6.941  19.645  0.00  0.00    +0.000 A 
ATOM      5  C   UNL     1       3.115   6.614  18.657  0.00  0.00    +0.000 A 
ATOM      6  N   UNL     1       3.479   5.270  18.568  0.00  0.00    +0.000 N 
ENDROOT
BRANCH   1   8
ATOM      7  C   UNL     1       3.287   1.524  18.546  0.00  0.00    +0.000 C 
ATOM      8  C   UNL     1       3.883   2.331  19.678  0.00  0.00    +0.000 C 
ATOM      9  O   UNL     1       4.972   2.041  20.153  0.00  0.00    +0.000 OA
ENDBRANCH   1   8
BRANCH   6  10
ATOM     10  C   UNL     1       4.181   4.768  17.376  0.00  0.00    +0.000 C 
BRANCH  10  11
ATOM     11  C   UNL     1       5.679   4.494  17.645  0.00  0.00    +0.000 C 
BRANCH  11  12
ATOM     12  C   UNL     1       6.542   5.716  17.864  0.00  0.00    +0.000 A 
ATOM     13  C   UNL     1       6.486   6.895  17.138  0.00  0.00    +0.000 A 
ATOM     14  C   UNL     1       7.485   7.831  17.524  0.00  0.00    +0.000 A 
ATOM     15  C   UNL     1       8.251   7.362  18.566  0.00  0.00    +0.000 A 
ATOM     16  S   UNL     1       7.736   5.818  19.091  0.00  0.00    +0.000 S 
ENDBRANCH  11  12
BRANCH  11  17
ATOM     17  O   UNL     1       6.277   3.764  16.566  0.00  0.00    +0.000 OA
ATOM     18  H   UNL     1       5.574   3.263  16.126  0.00  0.00    +0.000 HD
ENDBRANCH  11  17
ENDBRANCH  10  11
ENDBRANCH   6  10
TORSDOF 5
ENDMDL
MODEL 5
REMARK VINA RESULT:      -6.2      1.332      1.401
REMARK  Name = 
REMARK  6 active torsions:
REMARK  status: ('A' for Active; 'I' for Inactive)
REMARK    1  A    between atoms: C_1  and  C_2
REMARK    2  A    between atoms: C_2  and  N_4
REMARK    3  A    between atoms: N_9  and  C_10
REMARK    4  A    between atoms: C_10  and  C_11
REMARK    5  A    between atoms: C_11  and  O_12
REMARK    6  A    between atoms: C_11  and  C_13
REMARK                            x       y       z     vdW  Elec       q    Type
REMARK                         _______ _______ _______ _____ _____    ______ ____
ROOT
ATOM      1  N   UNL     1       7.506   6.614  16.735  0.00  0.00    +0.000 NA
ATOM      2  C   UNL     1       6.711   5.620  16.630  0.00  0.00    +0.000 A 
ATOM      3  S   UNL     1       6.650   4.998  14.916  0.00  0.00    +0.000 S 
ATOM      4  C   UNL     1       5.679   3.644  15.395  0.00  0.00    +0.000 A 
ATOM      5  C   UNL     1       5.367   3.712  16.692  0.00  0.00    +0.000 A 
ATOM      6  N   UNL     1       5.871   4.806  17.396  0.00  0.00    +0.000 N 
ENDROOT
BRANCH   1   8
ATOM      7  C   UNL     1       7.837   8.728  17.782  0.00  0.00    +0.000 C 
ATOM      8  C   UNL     1       7.858   7.221  17.902  0.00  0.00    +0.000 C 
ATOM      9  O   UNL     1       8.222   6.676  18.936  0.00  0.00    +0.000 OA
ENDBRANCH   1   8
BRANCH   6  10
ATOM     10  C   UNL     1       5.378   5.109  18.750  0.00  0.00    +0.000 C 
BRANCH  10  11
ATOM     11  C   UNL     1       4.004   5.819  18.732  0.00  0.00    +0.000 C 
BRANCH  11  12
ATOM     12  C   UNL     1       2.831   4.994  19.211  0.00  0.00    +0.000 A 
ATOM     13  C   UNL     1       2.336   4.955  20.504  0.00  0.00    +0.000 A 
ATOM     14  C   UNL     1       1.278   4.018  20.665  0.00  0.00    +0.000 A 
ATOM     15  C   UNL     1       0.962   3.395  19.479  0.00  0.00    +0.000 A 
ATOM     16  S   UNL     1       1.915   3.972  18.182  0.00  0.00    +0.000 S 
ENDBRANCH  11  12
BRANCH  11  17
ATOM     17  O   UNL     1       3.669   6.271  17.414  0.00  0.00    +0.000 OA
ATOM     18  H   UNL     1       2.704   6.341  17.365  0.00  0.00    +0.000 HD
ENDBRANCH  11  17
ENDBRANCH  10  11
ENDBRANCH   6  10
TORSDOF 5
ENDMDL
MODEL 6
REMARK VINA RESULT:      -6.1      1.462      1.600
REMARK  Name = 
REMARK  6 active torsions:
REMARK  status: ('A' for Active; 'I' for Inactive)
REMARK    1  A    between atoms: C_1  and  C_2
REMARK    2  A    between atoms: C_2  and  N_4
REMARK    3  A    between atoms: N_9  and  C_10
REMARK    4  A    between atoms: C_10  and  C_11
REMARK    5  A    between atoms: C_11  and  O_12
REMARK    6  A    between atoms: C_11  and  C_13
REMARK                            x       y       z     vdW  Elec       q    Type
REMARK                         _______ _______ _______ _____ _____    ______ ____
ROOT
ATOM      1  N   UNL     1       7.545   6.671  16.724  0.00  0.00    +0.000 NA
ATOM      2  C   UNL     1       6.759   5.670  16.622  0.00  0.00    +0.000 A 
ATOM      3  S   UNL     1       6.719   5.029  14.914  0.00  0.00    +0.000 S 
ATOM      4  C   UNL     1       5.753   3.673  15.398  0.00  0.00    +0.000 A 
ATOM      5  C   UNL     1       5.428   3.753  16.691  0.00  0.00    +0.000 A 
ATOM      6  N   UNL     1       5.917   4.858  17.389  0.00  0.00    +0.000 N 
ENDROOT
BRANCH   1   8
ATOM      7  C   UNL     1       7.853   8.799  17.750  0.00  0.00    +0.000 C 
ATOM      8  C   UNL     1       7.882   7.293  17.887  0.00  0.00    +0.000 C 
ATOM      9  O   UNL     1       8.238   6.762  18.930  0.00  0.00    +0.000 OA
ENDBRANCH   1   8
BRANCH   6  10
ATOM     10  C   UNL     1       5.409   5.172  18.734  0.00  0.00    +0.000 C 
BRANCH  10  11
ATOM     11  C   UNL     1       4.005   5.818  18.698  0.00  0.00    +0.000 C 
BRANCH  11  12
ATOM     12  C   UNL     1       2.848   4.897  19.016  0.00  0.00    +0.000 A 
ATOM     13  C   UNL     1       2.113   4.165  18.098  0.00  0.00    +0.000 A 
ATOM     14  C   UNL     1       1.031   3.458  18.692  0.00  0.00    +0.000 A 
ATOM     15  C   UNL     1       0.994   3.631  20.056  0.00  0.00    +0.000 A 
ATOM     16  S   UNL     1       2.281   4.612  20.609  0.00  0.00    +0.000 S 
ENDBRANCH  11  12
BRANCH  11  17
ATOM     17  O   UNL     1       3.726   6.388  17.412  0.00  0.00    +0.000 OA
ATOM     18  H   UNL     1       2.774   6.562  17.370  0.00  0.00    +0.000 HD
ENDBRANCH  11  17
ENDBRANCH  10  11
ENDBRANCH   6  10
TORSDOF 5
ENDMDL
MODEL 7
REMARK VINA RESULT:      -6.1      2.081      3.121
REMARK  Name = 
REMARK  6 active torsions:
REMARK  status: ('A' for Active; 'I' for Inactive)
REMARK    1  A    between atoms: C_1  and  C_2
REMARK    2  A    between atoms: C_2  and  N_4
REMARK    3  A    between atoms: N_9  and  C_10
REMARK    4  A    between atoms: C_10  and  C_11
REMARK    5  A    between atoms: C_11  and  O_12
REMARK    6  A    between atoms: C_11  and  C_13
REMARK                            x       y       z     vdW  Elec       q    Type
REMARK                         _______ _______ _______ _____ _____    ______ ____
ROOT
ATOM      1  N   UNL     1       5.855   5.867  16.576  0.00  0.00    +0.000 NA
ATOM      2  C   UNL     1       4.962   6.049  17.471  0.00  0.00    +0.000 A 
ATOM      3  S   UNL     1       3.987   7.555  17.138  0.00  0.00    +0.000 S 
ATOM      4  C   UNL     1       2.896   7.188  18.434  0.00  0.00    +0.000 A 
ATOM      5  C   UNL     1       3.286   6.095  19.094  0.00  0.00    +0.000 A 
ATOM      6  N   UNL     1       4.442   5.466  18.630  0.00  0.00    +0.000 N 
ENDROOT
BRANCH   1   8
ATOM      7  C   UNL     1       6.047   3.700  15.604  0.00  0.00    +0.000 C 
ATOM      8  C   UNL     1       6.660   4.773  16.477  0.00  0.00    +0.000 C 
ATOM      9  O   UNL     1       7.725   4.588  17.049  0.00  0.00    +0.000 OA
ENDBRANCH   1   8
BRANCH   6  10
ATOM     10  C   UNL     1       5.092   4.419  19.435  0.00  0.00    +0.000 C 
BRANCH  10  11
ATOM     11  C   UNL     1       4.558   3.006  19.108  0.00  0.00    +0.000 C 
BRANCH  11  12
ATOM     12  C   UNL     1       3.071   2.806  19.296  0.00  0.00    +0.000 A 
ATOM     13  C   UNL     1       2.164   2.457  18.309  0.00  0.00    +0.000 A 
ATOM     14  C   UNL     1       0.820   2.428  18.775  0.00  0.00    +0.000 A 
ATOM     15  C   UNL     1       0.739   2.712  20.119  0.00  0.00    +0.000 A 
ATOM     16  S   UNL     1       2.282   2.973  20.810  0.00  0.00    +0.000 S 
ENDBRANCH  11  12
BRANCH  11  17
ATOM     17  O   UNL     1       5.205   2.006  19.906  0.00  0.00    +0.000 OA
ATOM     18  H   UNL     1       5.653   2.460  20.636  0.00  0.00    +0.000 HD
ENDBRANCH  11  17
ENDBRANCH  10  11
ENDBRANCH   6  10
TORSDOF 5
ENDMDL
MODEL 8
REMARK VINA RESULT:      -6.1      1.663      1.964
REMARK  Name = 
REMARK  6 active torsions:
REMARK  status: ('A' for Active; 'I' for Inactive)
REMARK    1  A    between atoms: C_1  and  C_2
REMARK    2  A    between atoms: C_2  and  N_4
REMARK    3  A    between atoms: N_9  and  C_10
REMARK    4  A    between atoms: C_10  and  C_11
REMARK    5  A    between atoms: C_11  and  O_12
REMARK    6  A    between atoms: C_11  and  C_13
REMARK                            x       y       z     vdW  Elec       q    Type
REMARK                         _______ _______ _______ _____ _____    ______ ____
ROOT
ATOM      1  N   UNL     1       7.574   6.507  16.492  0.00  0.00    +0.000 NA
ATOM      2  C   UNL     1       6.608   5.748  16.143  0.00  0.00    +0.000 A 
ATOM      3  S   UNL     1       7.020   4.798  14.641  0.00  0.00    +0.000 S 
ATOM      4  C   UNL     1       5.560   3.874  14.770  0.00  0.00    +0.000 A 
ATOM      5  C   UNL     1       4.809   4.303  15.788  0.00  0.00    +0.000 A 
ATOM      6  N   UNL     1       5.323   5.362  16.537  0.00  0.00    +0.000 N 
ENDROOT
BRANCH   1   8
ATOM      7  C   UNL     1       7.906   6.393  18.849  0.00  0.00    +0.000 C 
ATOM      8  C   UNL     1       7.621   7.247  17.634  0.00  0.00    +0.000 C 
ATOM      9  O   UNL     1       7.403   8.446  17.744  0.00  0.00    +0.000 OA
ENDBRANCH   1   8
BRANCH   6  10
ATOM     10  C   UNL     1       4.469   6.072  17.504  0.00  0.00    +0.000 C 
BRANCH  10  11
ATOM     11  C   UNL     1       4.305   5.292  18.829  0.00  0.00    +0.000 C 
BRANCH  11  12
ATOM     12  C   UNL     1       3.485   4.024  18.749  0.00  0.00    +0.000 A 
ATOM     13  C   UNL     1       3.944   2.740  18.992  0.00  0.00    +0.000 A 
ATOM     14  C   UNL     1       2.956   1.744  18.752  0.00  0.00    +0.000 A 
ATOM     15  C   UNL     1       1.754   2.296  18.374  0.00  0.00    +0.000 A 
ATOM     16  S   UNL     1       1.817   4.005  18.348  0.00  0.00    +0.000 S 
ENDBRANCH  11  12
BRANCH  11  17
ATOM     17  O   UNL     1       3.697   6.105  19.841  0.00  0.00    +0.000 OA
ATOM     18  H   UNL     1       4.176   5.950  20.668  0.00  0.00    +0.000 HD
ENDBRANCH  11  17
ENDBRANCH  10  11
ENDBRANCH   6  10
TORSDOF 5
ENDMDL
MODEL 9
REMARK VINA RESULT:      -6.1      1.564      1.645
REMARK  Name = 
REMARK  6 active torsions:
REMARK  status: ('A' for Active; 'I' for Inactive)
REMARK    1  A    between atoms: C_1  and  C_2
REMARK    2  A    between atoms: C_2  and  N_4
REMARK    3  A    between atoms: N_9  and  C_10
REMARK    4  A    between atoms: C_10  and  C_11
REMARK    5  A    between atoms: C_11  and  O_12
REMARK    6  A    between atoms: C_11  and  C_13
REMARK                            x       y       z     vdW  Elec       q    Type
REMARK                         _______ _______ _______ _____ _____    ______ ____
ROOT
ATOM      1  N   UNL     1       7.418   5.107  17.099  0.00  0.00    +0.000 NA
ATOM      2  C   UNL     1       6.573   4.814  16.189  0.00  0.00    +0.000 A 
ATOM      3  S   UNL     1       7.361   4.761  14.544  0.00  0.00    +0.000 S 
ATOM      4  C   UNL     1       5.909   4.152  13.818  0.00  0.00    +0.000 A 
ATOM      5  C   UNL     1       4.919   4.084  14.712  0.00  0.00    +0.000 A 
ATOM      6  N   UNL     1       5.225   4.484  16.013  0.00  0.00    +0.000 N 
ENDROOT
BRANCH   1   8
ATOM      7  C   UNL     1       7.918   6.208  19.153  0.00  0.00    +0.000 C 
ATOM      8  C   UNL     1       7.166   5.106  18.438  0.00  0.00    +0.000 C 
ATOM      9  O   UNL     1       6.482   4.305  19.059  0.00  0.00    +0.000 OA
ENDBRANCH   1   8
BRANCH   6  10
ATOM     10  C   UNL     1       4.152   4.691  16.999  0.00  0.00    +0.000 C 
BRANCH  10  11
ATOM     11  C   UNL     1       3.505   3.363  17.454  0.00  0.00    +0.000 C 
BRANCH  11  12
ATOM     12  C   UNL     1       2.689   3.430  18.726  0.00  0.00    +0.000 A 
ATOM     13  C   UNL     1       1.412   3.951  18.848  0.00  0.00    +0.000 A 
ATOM     14  C   UNL     1       0.940   3.954  20.190  0.00  0.00    +0.000 A 
ATOM     15  C   UNL     1       1.852   3.392  21.054  0.00  0.00    +0.000 A 
ATOM     16  S   UNL     1       3.248   2.837  20.236  0.00  0.00    +0.000 S 
ENDBRANCH  11  12
BRANCH  11  17
ATOM     17  O   UNL     1       4.494   2.346  17.661  0.00  0.00    +0.000 OA
ATOM     18  H   UNL     1       4.540   2.172  18.613  0.00  0.00    +0.000 HD
ENDBRANCH  11  17
ENDBRANCH  10  11
ENDBRANCH   6  10
TORSDOF 5
ENDMDL
