MODEL 1
REMARK VINA RESULT:      -7.2      0.000      0.000
REMARK  Name = 
REMARK  7 active torsions:
REMARK  status: ('A' for Active; 'I' for Inactive)
REMARK    1  A    between atoms: O_1  and  C_2
REMARK    2  A    between atoms: C_2  and  C_3
REMARK    3  A    between atoms: C_4  and  O_5
REMARK    4  A    between atoms: C_6  and  O_7
REMARK    5  A    between atoms: C_8  and  O_9
REMARK    6  A    between atoms: C_12  and  C_13
REMARK    7  A    between atoms: C_14  and  C_15
REMARK                            x       y       z     vdW  Elec       q    Type
REMARK                         _______ _______ _______ _____ _____    ______ ____
ROOT
ATOM      1  C   UNL     1       1.818   2.991  20.037  0.00  0.00    +0.000 C 
ATOM      2  C   UNL     1       2.838   2.205  19.177  0.00  0.00    +0.000 C 
ATOM      3  C   UNL     1       4.222   2.842  18.924  0.00  0.00    +0.000 C 
ATOM      4  C   UNL     1       4.332   4.380  19.033  0.00  0.00    +0.000 C 
ATOM      5  C   UNL     1       3.169   5.076  19.658  0.00  0.00    +0.000 A 
ATOM      6  N   UNL     1       3.051   6.380  19.857  0.00  0.00    +0.000 NA
ATOM      7  C   UNL     1       1.815   6.568  20.412  0.00  0.00    +0.000 A 
ATOM      8  C   UNL     1       1.158   5.368  20.542  0.00  0.00    +0.000 A 
ATOM      9  N   UNL     1       2.040   4.427  20.069  0.00  0.00    +0.000 N 
ENDROOT
BRANCH   2  10
ATOM     10  O   UNL     1       2.210   1.837  17.935  0.00  0.00    +0.000 OA
ATOM     11  H   UNL     1       1.386   2.339  17.832  0.00  0.00    +0.000 HD
ENDBRANCH   2  10
BRANCH   3  12
ATOM     12  O   UNL     1       5.197   2.163  19.739  0.00  0.00    +0.000 OA
ATOM     13  H   UNL     1       4.745   1.812  20.525  0.00  0.00    +0.000 HD
ENDBRANCH   3  12
BRANCH   4  14
ATOM     14  O   UNL     1       5.510   4.757  19.753  0.00  0.00    +0.000 OA
ATOM     15  H   UNL     1       5.364   5.648  20.109  0.00  0.00    +0.000 HD
ENDBRANCH   4  14
BRANCH   7  16
ATOM     16  C   UNL     1       1.359   7.864  20.788  0.00  0.00    +0.000 C 
ATOM     17  C   UNL     1       0.946   8.951  21.119  0.00  0.00    +0.000 C 
BRANCH  17  18
ATOM     18  C   UNL     1       0.427  10.226  21.523  0.00  0.00    +0.000 A 
ATOM     19  C   UNL     1      -0.508  10.319  22.558  0.00  0.00    +0.000 A 
ATOM     20  C   UNL     1      -1.051  11.561  22.908  0.00  0.00    +0.000 A 
ATOM     21  C   UNL     1      -0.656  12.714  22.233  0.00  0.00    +0.000 A 
ATOM     22  C   UNL     1       0.292  12.631  21.214  0.00  0.00    +0.000 A 
ATOM     23  C   UNL     1       0.833  11.391  20.859  0.00  0.00    +0.000 A 
ENDBRANCH  17  18
ENDBRANCH   7  16
BRANCH   1  24
ATOM     24  C   UNL     1       1.752   2.420  21.459  0.00  0.00    +0.000 C 
BRANCH  24  25
ATOM     25  O   UNL     1       3.059   2.292  22.016  0.00  0.00    +0.000 OA
ATOM     26  H   UNL     1       3.437   1.474  21.641  0.00  0.00    +0.000 HD
ENDBRANCH  24  25
ENDBRANCH   1  24
TORSDOF 7
ENDMDL
MODEL 2
REMARK VINA RESULT:      -7.2      1.090      2.605
REMARK  Name = 
REMARK  7 active torsions:
REMARK  status: ('A' for Active; 'I' for Inactive)
REMARK    1  A    between atoms: O_1  and  C_2
REMARK    2  A    between atoms: C_2  and  C_3
REMARK    3  A    between atoms: C_4  and  O_5
REMARK    4  A    between atoms: C_6  and  O_7
REMARK    5  A    between atoms: C_8  and  O_9
REMARK    6  A    between atoms: C_12  and  C_13
REMARK    7  A    between atoms: C_14  and  C_15
REMARK                            x       y       z     vdW  Elec       q    Type
REMARK                         _______ _______ _______ _____ _____    ______ ____
ROOT
ATOM      1  C   UNL     1       4.017   4.277  18.793  0.00  0.00    +0.000 C 
ATOM      2  C   UNL     1       4.027   2.752  19.060  0.00  0.00    +0.000 C 
ATOM      3  C   UNL     1       2.741   2.098  19.610  0.00  0.00    +0.000 C 
ATOM      4  C   UNL     1       1.749   3.004  20.374  0.00  0.00    +0.000 C 
ATOM      5  C   UNL     1       1.981   4.474  20.254  0.00  0.00    +0.000 A 
ATOM      6  N   UNL     1       1.257   5.430  20.816  0.00  0.00    +0.000 NA
ATOM      7  C   UNL     1       1.855   6.610  20.472  0.00  0.00    +0.000 A 
ATOM      8  C   UNL     1       2.970   6.379  19.703  0.00  0.00    +0.000 A 
ATOM      9  N   UNL     1       3.028   5.013  19.564  0.00  0.00    +0.000 N 
ENDROOT
BRANCH   2  10
ATOM     10  O   UNL     1       5.159   2.435  19.894  0.00  0.00    +0.000 OA
ATOM     11  H   UNL     1       4.883   2.447  20.824  0.00  0.00    +0.000 HD
ENDBRANCH   2  10
BRANCH   3  12
ATOM     12  O   UNL     1       2.106   1.364  18.545  0.00  0.00    +0.000 OA
ATOM     13  H   UNL     1       1.334   1.873  18.244  0.00  0.00    +0.000 HD
ENDBRANCH   3  12
BRANCH   4  14
ATOM     14  O   UNL     1       0.401   2.737  19.973  0.00  0.00    +0.000 OA
ATOM     15  H   UNL     1       0.426   2.421  19.055  0.00  0.00    +0.000 HD
ENDBRANCH   4  14
BRANCH   7  16
ATOM     16  C   UNL     1       1.319   7.864  20.886  0.00  0.00    +0.000 C 
ATOM     17  C   UNL     1       0.840   8.912  21.252  0.00  0.00    +0.000 C 
BRANCH  17  18
ATOM     18  C   UNL     1       0.248  10.138  21.701  0.00  0.00    +0.000 A 
ATOM     19  C   UNL     1      -0.669  10.142  22.756  0.00  0.00    +0.000 A 
ATOM     20  C   UNL     1      -1.285  11.335  23.152  0.00  0.00    +0.000 A 
ATOM     21  C   UNL     1      -0.980  12.530  22.502  0.00  0.00    +0.000 A 
ATOM     22  C   UNL     1      -0.050  12.537  21.463  0.00  0.00    +0.000 A 
ATOM     23  C   UNL     1       0.563  11.345  21.063  0.00  0.00    +0.000 A 
ENDBRANCH  17  18
ENDBRANCH   7  16
BRANCH   1  24
ATOM     24  C   UNL     1       3.862   4.565  17.295  0.00  0.00    +0.000 C 
BRANCH  24  25
ATOM     25  O   UNL     1       2.921   3.673  16.700  0.00  0.00    +0.000 OA
ATOM     26  H   UNL     1       2.080   4.165  16.638  0.00  0.00    +0.000 HD
ENDBRANCH  24  25
ENDBRANCH   1  24
TORSDOF 7
ENDMDL
MODEL 3
REMARK VINA RESULT:      -7.2      0.159      1.041
REMARK  Name = 
REMARK  7 active torsions:
REMARK  status: ('A' for Active; 'I' for Inactive)
REMARK    1  A    between atoms: O_1  and  C_2
REMARK    2  A    between atoms: C_2  and  C_3
REMARK    3  A    between atoms: C_4  and  O_5
REMARK    4  A    between atoms: C_6  and  O_7
REMARK    5  A    between atoms: C_8  and  O_9
REMARK    6  A    between atoms: C_12  and  C_13
REMARK    7  A    between atoms: C_14  and  C_15
REMARK                            x       y       z     vdW  Elec       q    Type
REMARK                         _______ _______ _______ _____ _____    ______ ____
ROOT
ATOM      1  C   UNL     1       1.808   2.877  19.905  0.00  0.00    +0.000 C 
ATOM      2  C   UNL     1       2.860   2.121  19.057  0.00  0.00    +0.000 C 
ATOM      3  C   UNL     1       4.248   2.770  18.867  0.00  0.00    +0.000 C 
ATOM      4  C   UNL     1       4.348   4.304  19.025  0.00  0.00    +0.000 C 
ATOM      5  C   UNL     1       3.161   4.977  19.631  0.00  0.00    +0.000 A 
ATOM      6  N   UNL     1       3.030   6.275  19.864  0.00  0.00    +0.000 NA
ATOM      7  C   UNL     1       1.777   6.442  20.383  0.00  0.00    +0.000 A 
ATOM      8  C   UNL     1       1.121   5.236  20.457  0.00  0.00    +0.000 A 
ATOM      9  N   UNL     1       2.023   4.312  19.986  0.00  0.00    +0.000 N 
ENDROOT
BRANCH   2  10
ATOM     10  O   UNL     1       2.274   1.786  17.784  0.00  0.00    +0.000 OA
ATOM     11  H   UNL     1       1.312   1.905  17.834  0.00  0.00    +0.000 HD
ENDBRANCH   2  10
BRANCH   3  12
ATOM     12  O   UNL     1       5.200   2.071  19.693  0.00  0.00    +0.000 OA
ATOM     13  H   UNL     1       6.008   2.608  19.748  0.00  0.00    +0.000 HD
ENDBRANCH   3  12
BRANCH   4  14
ATOM     14  O   UNL     1       5.500   4.664  19.794  0.00  0.00    +0.000 OA
ATOM     15  H   UNL     1       6.264   4.667  19.194  0.00  0.00    +0.000 HD
ENDBRANCH   4  14
BRANCH   7  16
ATOM     16  C   UNL     1       1.302   7.725  20.782  0.00  0.00    +0.000 C 
ATOM     17  C   UNL     1       0.870   8.803  21.115  0.00  0.00    +0.000 C 
BRANCH  17  18
ATOM     18  C   UNL     1       0.326  10.072  21.506  0.00  0.00    +0.000 A 
ATOM     19  C   UNL     1       0.704  11.244  20.843  0.00  0.00    +0.000 A 
ATOM     20  C   UNL     1       0.212  12.483  21.266  0.00  0.00    +0.000 A 
ATOM     21  C   UNL     1      -0.666  12.557  22.347  0.00  0.00    +0.000 A 
ATOM     22  C   UNL     1      -1.064  11.390  22.999  0.00  0.00    +0.000 A 
ATOM     23  C   UNL     1      -0.570  10.150  22.580  0.00  0.00    +0.000 A 
ENDBRANCH  17  18
ENDBRANCH   7  16
BRANCH   1  24
ATOM     24  C   UNL     1       1.699   2.265  21.307  0.00  0.00    +0.000 C 
BRANCH  24  25
ATOM     25  O   UNL     1       2.917   2.434  22.031  0.00  0.00    +0.000 OA
ATOM     26  H   UNL     1       3.627   2.093  21.455  0.00  0.00    +0.000 HD
ENDBRANCH  24  25
ENDBRANCH   1  24
TORSDOF 7
ENDMDL
MODEL 4
REMARK VINA RESULT:      -7.1      1.133      2.757
REMARK  Name = 
REMARK  7 active torsions:
REMARK  status: ('A' for Active; 'I' for Inactive)
REMARK    1  A    between atoms: O_1  and  C_2
REMARK    2  A    between atoms: C_2  and  C_3
REMARK    3  A    between atoms: C_4  and  O_5
REMARK    4  A    between atoms: C_6  and  O_7
REMARK    5  A    between atoms: C_8  and  O_9
REMARK    6  A    between atoms: C_12  and  C_13
REMARK    7  A    between atoms: C_14  and  C_15
REMARK                            x       y       z     vdW  Elec       q    Type
REMARK                         _______ _______ _______ _____ _____    ______ ____
ROOT
ATOM      1  C   UNL     1       3.874   4.335  18.625  0.00  0.00    +0.000 C 
ATOM      2  C   UNL     1       3.997   2.848  19.040  0.00  0.00    +0.000 C 
ATOM      3  C   UNL     1       2.843   2.219  19.851  0.00  0.00    +0.000 C 
ATOM      4  C   UNL     1       1.940   3.172  20.667  0.00  0.00    +0.000 C 
ATOM      5  C   UNL     1       2.082   4.627  20.363  0.00  0.00    +0.000 A 
ATOM      6  N   UNL     1       1.410   5.615  20.933  0.00  0.00    +0.000 NA
ATOM      7  C   UNL     1       1.893   6.770  20.381  0.00  0.00    +0.000 A 
ATOM      8  C   UNL     1       2.885   6.490  19.472  0.00  0.00    +0.000 A 
ATOM      9  N   UNL     1       2.984   5.120  19.464  0.00  0.00    +0.000 N 
ENDROOT
BRANCH   2  10
ATOM     10  O   UNL     1       5.257   2.657  19.711  0.00  0.00    +0.000 OA
ATOM     11  H   UNL     1       5.851   2.149  19.136  0.00  0.00    +0.000 HD
ENDBRANCH   2  10
BRANCH   3  12
ATOM     12  O   UNL     1       2.085   1.357  18.980  0.00  0.00    +0.000 OA
ATOM     13  H   UNL     1       1.522   1.913  18.416  0.00  0.00    +0.000 HD
ENDBRANCH   3  12
BRANCH   4  14
ATOM     14  O   UNL     1       0.560   2.823  20.514  0.00  0.00    +0.000 OA
ATOM     15  H   UNL     1       0.048   3.377  21.126  0.00  0.00    +0.000 HD
ENDBRANCH   4  14
BRANCH   7  16
ATOM     16  C   UNL     1       1.370   8.043  20.746  0.00  0.00    +0.000 C 
ATOM     17  C   UNL     1       0.905   9.110  21.074  0.00  0.00    +0.000 C 
BRANCH  17  18
ATOM     18  C   UNL     1       0.331  10.359  21.483  0.00  0.00    +0.000 A 
ATOM     19  C   UNL     1       0.726  11.556  20.879  0.00  0.00    +0.000 A 
ATOM     20  C   UNL     1       0.203  12.777  21.322  0.00  0.00    +0.000 A 
ATOM     21  C   UNL     1      -0.722  12.806  22.365  0.00  0.00    +0.000 A 
ATOM     22  C   UNL     1      -1.135  11.613  22.958  0.00  0.00    +0.000 A 
ATOM     23  C   UNL     1      -0.611  10.393  22.519  0.00  0.00    +0.000 A 
ENDBRANCH  17  18
ENDBRANCH   7  16
BRANCH   1  24
ATOM     24  C   UNL     1       3.476   4.456  17.149  0.00  0.00    +0.000 C 
BRANCH  24  25
ATOM     25  O   UNL     1       2.421   3.551  16.831  0.00  0.00    +0.000 OA
ATOM     26  H   UNL     1       2.840   2.681  16.687  0.00  0.00    +0.000 HD
ENDBRANCH  24  25
ENDBRANCH   1  24
TORSDOF 7
ENDMDL
MODEL 5
REMARK VINA RESULT:      -7.0      9.138     12.065
REMARK  Name = 
REMARK  7 active torsions:
REMARK  status: ('A' for Active; 'I' for Inactive)
REMARK    1  A    between atoms: O_1  and  C_2
REMARK    2  A    between atoms: C_2  and  C_3
REMARK    3  A    between atoms: C_4  and  O_5
REMARK    4  A    between atoms: C_6  and  O_7
REMARK    5  A    between atoms: C_8  and  O_9
REMARK    6  A    between atoms: C_12  and  C_13
REMARK    7  A    between atoms: C_14  and  C_15
REMARK                            x       y       z     vdW  Elec       q    Type
REMARK                         _______ _______ _______ _____ _____    ______ ____
ROOT
ATOM      1  C   UNL     1       9.998  14.567  19.129  0.00  0.00    +0.000 C 
ATOM      2  C   UNL     1      11.327  15.333  18.921  0.00  0.00    +0.000 C 
ATOM      3  C   UNL     1      12.272  14.862  17.795  0.00  0.00    +0.000 C 
ATOM      4  C   UNL     1      12.150  13.394  17.326  0.00  0.00    +0.000 C 
ATOM      5  C   UNL     1      10.940  12.656  17.796  0.00  0.00    +0.000 A 
ATOM      6  N   UNL     1      10.631  11.400  17.514  0.00  0.00    +0.000 NA
ATOM      7  C   UNL     1       9.469  11.136  18.186  0.00  0.00    +0.000 A 
ATOM      8  C   UNL     1       9.067  12.238  18.903  0.00  0.00    +0.000 A 
ATOM      9  N   UNL     1      10.009  13.201  18.632  0.00  0.00    +0.000 N 
ENDROOT
BRANCH   2  10
ATOM     10  O   UNL     1      12.025  15.399  20.180  0.00  0.00    +0.000 OA
ATOM     11  H   UNL     1      12.804  14.822  20.144  0.00  0.00    +0.000 HD
ENDBRANCH   2  10
BRANCH   3  12
ATOM     12  O   UNL     1      12.185  15.796  16.701  0.00  0.00    +0.000 OA
ATOM     13  H   UNL     1      11.377  16.325  16.815  0.00  0.00    +0.000 HD
ENDBRANCH   3  12
BRANCH   4  14
ATOM     14  O   UNL     1      12.191  13.309  15.898  0.00  0.00    +0.000 OA
ATOM     15  H   UNL     1      12.455  14.181  15.560  0.00  0.00    +0.000 HD
ENDBRANCH   4  14
BRANCH   7  16
ATOM     16  C   UNL     1       8.824   9.869  18.087  0.00  0.00    +0.000 C 
ATOM     17  C   UNL     1       8.275   8.794  18.035  0.00  0.00    +0.000 C 
BRANCH  17  18
ATOM     18  C   UNL     1       7.621   7.517  18.007  0.00  0.00    +0.000 A 
ATOM     19  C   UNL     1       8.038   6.485  18.851  0.00  0.00    +0.000 A 
ATOM     20  C   UNL     1       7.432   5.225  18.778  0.00  0.00    +0.000 A 
ATOM     21  C   UNL     1       6.403   4.995  17.867  0.00  0.00    +0.000 A 
ATOM     22  C   UNL     1       5.968   6.027  17.036  0.00  0.00    +0.000 A 
ATOM     23  C   UNL     1       6.575   7.285  17.105  0.00  0.00    +0.000 A 
ENDBRANCH  17  18
ENDBRANCH   7  16
BRANCH   1  24
ATOM     24  C   UNL     1       8.820  15.350  18.537  0.00  0.00    +0.000 C 
BRANCH  24  25
ATOM     25  O   UNL     1       8.705  16.634  19.149  0.00  0.00    +0.000 OA
ATOM     26  H   UNL     1       7.940  17.070  18.727  0.00  0.00    +0.000 HD
ENDBRANCH  24  25
ENDBRANCH   1  24
TORSDOF 7
ENDMDL
MODEL 6
REMARK VINA RESULT:      -6.9      2.904      3.632
REMARK  Name = 
REMARK  7 active torsions:
REMARK  status: ('A' for Active; 'I' for Inactive)
REMARK    1  A    between atoms: O_1  and  C_2
REMARK    2  A    between atoms: C_2  and  C_3
REMARK    3  A    between atoms: C_4  and  O_5
REMARK    4  A    between atoms: C_6  and  O_7
REMARK    5  A    between atoms: C_8  and  O_9
REMARK    6  A    between atoms: C_12  and  C_13
REMARK    7  A    between atoms: C_14  and  C_15
REMARK                            x       y       z     vdW  Elec       q    Type
REMARK                         _______ _______ _______ _____ _____    ______ ____
ROOT
ATOM      1  C   UNL     1       4.683   3.863  16.961  0.00  0.00    +0.000 C 
ATOM      2  C   UNL     1       6.090   3.611  16.367  0.00  0.00    +0.000 C 
ATOM      3  C   UNL     1       7.194   4.657  16.636  0.00  0.00    +0.000 C 
ATOM      4  C   UNL     1       6.747   6.100  16.967  0.00  0.00    +0.000 C 
ATOM      5  C   UNL     1       5.299   6.279  17.284  0.00  0.00    +0.000 A 
ATOM      6  N   UNL     1       4.701   7.418  17.598  0.00  0.00    +0.000 NA
ATOM      7  C   UNL     1       3.377   7.118  17.763  0.00  0.00    +0.000 A 
ATOM      8  C   UNL     1       3.154   5.781  17.532  0.00  0.00    +0.000 A 
ATOM      9  N   UNL     1       4.391   5.260  17.240  0.00  0.00    +0.000 N 
ENDROOT
BRANCH   2  10
ATOM     10  O   UNL     1       5.958   3.359  14.955  0.00  0.00    +0.000 OA
ATOM     11  H   UNL     1       5.202   3.859  14.610  0.00  0.00    +0.000 HD
ENDBRANCH   2  10
BRANCH   3  12
ATOM     12  O   UNL     1       8.102   4.126  17.620  0.00  0.00    +0.000 OA
ATOM     13  H   UNL     1       8.831   3.683  17.154  0.00  0.00    +0.000 HD
ENDBRANCH   3  12
BRANCH   4  14
ATOM     14  O   UNL     1       7.506   6.632  18.057  0.00  0.00    +0.000 OA
ATOM     15  H   UNL     1       8.240   7.145  17.680  0.00  0.00    +0.000 HD
ENDBRANCH   4  14
BRANCH   7  16
ATOM     16  C   UNL     1       2.431   8.114  18.140  0.00  0.00    +0.000 C 
ATOM     17  C   UNL     1       1.616   8.959  18.429  0.00  0.00    +0.000 C 
BRANCH  17  18
ATOM     18  C   UNL     1       0.639   9.961  18.741  0.00  0.00    +0.000 A 
ATOM     19  C   UNL     1       0.856  10.870  19.781  0.00  0.00    +0.000 A 
ATOM     20  C   UNL     1      -0.126  11.809  20.115  0.00  0.00    +0.000 A 
ATOM     21  C   UNL     1      -1.326  11.849  19.408  0.00  0.00    +0.000 A 
ATOM     22  C   UNL     1      -1.542  10.959  18.356  0.00  0.00    +0.000 A 
ATOM     23  C   UNL     1      -0.562  10.018  18.022  0.00  0.00    +0.000 A 
ENDBRANCH  17  18
ENDBRANCH   7  16
BRANCH   1  24
ATOM     24  C   UNL     1       4.457   3.002  18.210  0.00  0.00    +0.000 C 
BRANCH  24  25
ATOM     25  O   UNL     1       5.490   3.219  19.170  0.00  0.00    +0.000 OA
ATOM     26  H   UNL     1       6.039   3.947  18.821  0.00  0.00    +0.000 HD
ENDBRANCH  24  25
ENDBRANCH   1  24
TORSDOF 7
ENDMDL
MODEL 7
REMARK VINA RESULT:      -6.9      6.713      8.015
REMARK  Name = 
REMARK  7 active torsions:
REMARK  status: ('A' for Active; 'I' for Inactive)
REMARK    1  A    between atoms: O_1  and  C_2
REMARK    2  A    between atoms: C_2  and  C_3
REMARK    3  A    between atoms: C_4  and  O_5
REMARK    4  A    between atoms: C_6  and  O_7
REMARK    5  A    between atoms: C_8  and  O_9
REMARK    6  A    between atoms: C_12  and  C_13
REMARK    7  A    between atoms: C_14  and  C_15
REMARK                            x       y       z     vdW  Elec       q    Type
REMARK                         _______ _______ _______ _____ _____    ______ ____
ROOT
ATOM      1  C   UNL     1       6.919   5.136  18.538  0.00  0.00    +0.000 C 
ATOM      2  C   UNL     1       5.536   4.551  18.159  0.00  0.00    +0.000 C 
ATOM      3  C   UNL     1       4.762   5.207  16.995  0.00  0.00    +0.000 C 
ATOM      4  C   UNL     1       5.094   6.677  16.653  0.00  0.00    +0.000 C 
ATOM      5  C   UNL     1       6.330   7.230  17.280  0.00  0.00    +0.000 A 
ATOM      6  N   UNL     1       6.806   8.457  17.125  0.00  0.00    +0.000 NA
ATOM      7  C   UNL     1       7.921   8.533  17.912  0.00  0.00    +0.000 A 
ATOM      8  C   UNL     1       8.126   7.345  18.573  0.00  0.00    +0.000 A 
ATOM      9  N   UNL     1       7.111   6.523  18.149  0.00  0.00    +0.000 N 
ENDROOT
BRANCH   2  10
ATOM     10  O   UNL     1       4.720   4.485  19.343  0.00  0.00    +0.000 OA
ATOM     11  H   UNL     1       3.911   3.988  19.146  0.00  0.00    +0.000 HD
ENDBRANCH   2  10
BRANCH   3  12
ATOM     12  O   UNL     1       4.844   4.344  15.843  0.00  0.00    +0.000 OA
ATOM     13  H   UNL     1       4.025   4.443  15.329  0.00  0.00    +0.000 HD
ENDBRANCH   3  12
BRANCH   4  14
ATOM     14  O   UNL     1       5.198   6.861  15.237  0.00  0.00    +0.000 OA
ATOM     15  H   UNL     1       5.317   7.811  15.073  0.00  0.00    +0.000 HD
ENDBRANCH   4  14
BRANCH   7  16
ATOM     16  C   UNL     1       8.713   9.716  17.967  0.00  0.00    +0.000 C 
ATOM     17  C   UNL     1       9.362  10.736  17.998  0.00  0.00    +0.000 C 
BRANCH  17  18
ATOM     18  C   UNL     1      10.108  11.961  18.016  0.00  0.00    +0.000 A 
ATOM     19  C   UNL     1      11.503  11.944  18.103  0.00  0.00    +0.000 A 
ATOM     20  C   UNL     1      12.220  13.144  18.177  0.00  0.00    +0.000 A 
ATOM     21  C   UNL     1      11.547  14.364  18.157  0.00  0.00    +0.000 A 
ATOM     22  C   UNL     1      10.157  14.389  18.049  0.00  0.00    +0.000 A 
ATOM     23  C   UNL     1       9.438  13.191  17.979  0.00  0.00    +0.000 A 
ENDBRANCH  17  18
ENDBRANCH   7  16
BRANCH   1  24
ATOM     24  C   UNL     1       8.050   4.257  17.991  0.00  0.00    +0.000 C 
BRANCH  24  25
ATOM     25  O   UNL     1       7.917   4.078  16.582  0.00  0.00    +0.000 OA
ATOM     26  H   UNL     1       6.970   3.911  16.415  0.00  0.00    +0.000 HD
ENDBRANCH  24  25
ENDBRANCH   1  24
TORSDOF 7
ENDMDL
MODEL 8
REMARK VINA RESULT:      -6.9      1.300      1.504
REMARK  Name = 
REMARK  7 active torsions:
REMARK  status: ('A' for Active; 'I' for Inactive)
REMARK    1  A    between atoms: O_1  and  C_2
REMARK    2  A    between atoms: C_2  and  C_3
REMARK    3  A    between atoms: C_4  and  O_5
REMARK    4  A    between atoms: C_6  and  O_7
REMARK    5  A    between atoms: C_8  and  O_9
REMARK    6  A    between atoms: C_12  and  C_13
REMARK    7  A    between atoms: C_14  and  C_15
REMARK                            x       y       z     vdW  Elec       q    Type
REMARK                         _______ _______ _______ _____ _____    ______ ____
ROOT
ATOM      1  C   UNL     1       2.997   3.082  19.428  0.00  0.00    +0.000 C 
ATOM      2  C   UNL     1       3.568   2.532  18.098  0.00  0.00    +0.000 C 
ATOM      3  C   UNL     1       4.241   3.526  17.126  0.00  0.00    +0.000 C 
ATOM      4  C   UNL     1       3.835   5.014  17.231  0.00  0.00    +0.000 C 
ATOM      5  C   UNL     1       3.058   5.395  18.447  0.00  0.00    +0.000 A 
ATOM      6  N   UNL     1       2.613   6.607  18.744  0.00  0.00    +0.000 NA
ATOM      7  C   UNL     1       1.924   6.480  19.918  0.00  0.00    +0.000 A 
ATOM      8  C   UNL     1       1.931   5.172  20.342  0.00  0.00    +0.000 A 
ATOM      9  N   UNL     1       2.668   4.497  19.399  0.00  0.00    +0.000 N 
ENDROOT
BRANCH   2  10
ATOM     10  O   UNL     1       2.539   1.779  17.428  0.00  0.00    +0.000 OA
ATOM     11  H   UNL     1       1.853   1.534  18.069  0.00  0.00    +0.000 HD
ENDBRANCH   2  10
BRANCH   3  12
ATOM     12  O   UNL     1       5.669   3.341  17.194  0.00  0.00    +0.000 OA
ATOM     13  H   UNL     1       5.848   2.390  17.291  0.00  0.00    +0.000 HD
ENDBRANCH   3  12
BRANCH   4  14
ATOM     14  O   UNL     1       4.985   5.862  17.158  0.00  0.00    +0.000 OA
ATOM     15  H   UNL     1       4.760   6.699  17.596  0.00  0.00    +0.000 HD
ENDBRANCH   4  14
BRANCH   7  16
ATOM     16  C   UNL     1       1.326   7.606  20.554  0.00  0.00    +0.000 C 
ATOM     17  C   UNL     1       0.830   8.579  21.071  0.00  0.00    +0.000 C 
BRANCH  17  18
ATOM     18  C   UNL     1       0.254   9.754  21.660  0.00  0.00    +0.000 A 
ATOM     19  C   UNL     1      -0.586   9.654  22.772  0.00  0.00    +0.000 A 
ATOM     20  C   UNL     1      -1.189  10.799  23.306  0.00  0.00    +0.000 A 
ATOM     21  C   UNL     1      -0.948  12.048  22.737  0.00  0.00    +0.000 A 
ATOM     22  C   UNL     1      -0.093  12.157  21.641  0.00  0.00    +0.000 A 
ATOM     23  C   UNL     1       0.507  11.014  21.103  0.00  0.00    +0.000 A 
ENDBRANCH  17  18
ENDBRANCH   7  16
BRANCH   1  24
ATOM     24  C   UNL     1       3.939   2.767  20.595  0.00  0.00    +0.000 C 
BRANCH  24  25
ATOM     25  O   UNL     1       5.150   2.176  20.127  0.00  0.00    +0.000 OA
ATOM     26  H   UNL     1       5.287   1.372  20.663  0.00  0.00    +0.000 HD
ENDBRANCH  24  25
ENDBRANCH   1  24
TORSDOF 7
ENDMDL
MODEL 9
REMARK VINA RESULT:      -6.9      6.745      7.862
REMARK  Name = 
REMARK  7 active torsions:
REMARK  status: ('A' for Active; 'I' for Inactive)
REMARK    1  A    between atoms: O_1  and  C_2
REMARK    2  A    between atoms: C_2  and  C_3
REMARK    3  A    between atoms: C_4  and  O_5
REMARK    4  A    between atoms: C_6  and  O_7
REMARK    5  A    between atoms: C_8  and  O_9
REMARK    6  A    between atoms: C_12  and  C_13
REMARK    7  A    between atoms: C_14  and  C_15
REMARK                            x       y       z     vdW  Elec       q    Type
REMARK                         _______ _______ _______ _____ _____    ______ ____
ROOT
ATOM      1  C   UNL     1       5.358   6.522  16.897  0.00  0.00    +0.000 C 
ATOM      2  C   UNL     1       5.366   4.981  17.046  0.00  0.00    +0.000 C 
ATOM      3  C   UNL     1       6.229   4.360  18.165  0.00  0.00    +0.000 C 
ATOM      4  C   UNL     1       7.425   5.188  18.688  0.00  0.00    +0.000 C 
ATOM      5  C   UNL     1       7.459   6.621  18.274  0.00  0.00    +0.000 A 
ATOM      6  N   UNL     1       8.381   7.512  18.606  0.00  0.00    +0.000 NA
ATOM      7  C   UNL     1       8.034   8.672  17.972  0.00  0.00    +0.000 A 
ATOM      8  C   UNL     1       6.893   8.491  17.227  0.00  0.00    +0.000 A 
ATOM      9  N   UNL     1       6.533   7.183  17.441  0.00  0.00    +0.000 N 
ENDROOT
BRANCH   2  10
ATOM     10  O   UNL     1       5.684   4.394  15.770  0.00  0.00    +0.000 OA
ATOM     11  H   UNL     1       6.530   3.924  15.836  0.00  0.00    +0.000 HD
ENDBRANCH   2  10
BRANCH   3  12
ATOM     12  O   UNL     1       5.359   3.922  19.227  0.00  0.00    +0.000 OA
ATOM     13  H   UNL     1       4.634   3.406  18.834  0.00  0.00    +0.000 HD
ENDBRANCH   3  12
BRANCH   4  14
ATOM     14  O   UNL     1       7.492   5.140  20.117  0.00  0.00    +0.000 OA
ATOM     15  H   UNL     1       7.914   5.962  20.418  0.00  0.00    +0.000 HD
ENDBRANCH   4  14
BRANCH   7  16
ATOM     16  C   UNL     1       8.799   9.863  18.131  0.00  0.00    +0.000 C 
ATOM     17  C   UNL     1       9.475  10.857  18.266  0.00  0.00    +0.000 C 
BRANCH  17  18
ATOM     18  C   UNL     1      10.304  12.016  18.425  0.00  0.00    +0.000 A 
ATOM     19  C   UNL     1      11.187  12.118  19.504  0.00  0.00    +0.000 A 
ATOM     20  C   UNL     1      11.952  13.276  19.684  0.00  0.00    +0.000 A 
ATOM     21  C   UNL     1      11.844  14.334  18.782  0.00  0.00    +0.000 A 
ATOM     22  C   UNL     1      10.981  14.230  17.692  0.00  0.00    +0.000 A 
ATOM     23  C   UNL     1      10.213  13.075  17.513  0.00  0.00    +0.000 A 
ENDBRANCH  17  18
ENDBRANCH   7  16
BRANCH   1  24
ATOM     24  C   UNL     1       4.077   7.120  17.489  0.00  0.00    +0.000 C 
BRANCH  24  25
ATOM     25  O   UNL     1       3.655   6.383  18.636  0.00  0.00    +0.000 OA
ATOM     26  H   UNL     1       4.177   6.724  19.387  0.00  0.00    +0.000 HD
ENDBRANCH  24  25
ENDBRANCH   1  24
TORSDOF 7
ENDMDL
