MODEL 1
REMARK VINA RESULT:      -8.9      0.000      0.000
REMARK  Name = 
REMARK  8 active torsions:
REMARK  status: ('A' for Active; 'I' for Inactive)
REMARK    1  A    between atoms: C_1  and  O_2
REMARK    2  A    between atoms: O_2  and  C_3
REMARK    3  A    between atoms: C_6  and  N_7
REMARK    4  A    between atoms: C_11  and  C_13
REMARK    5  A    between atoms: C_13  and  N_14
REMARK    6  A    between atoms: C_17  and  S_18
REMARK    7  A    between atoms: S_18  and  C_19
REMARK    8  A    between atoms: C_23  and  C_24
REMARK                            x       y       z     vdW  Elec       q    Type
REMARK                         _______ _______ _______ _____ _____    ______ ____
ROOT
ATOM      1  N   UNL     1       2.509   6.842  19.338  0.00  0.00    +0.000 N 
ATOM      2  N   UNL     1       3.317   6.742  18.189  0.00  0.00    +0.000 NA
ATOM      3  C   UNL     1       3.410   5.454  18.006  0.00  0.00    +0.000 A 
ATOM      4  C   UNL     1       4.097   4.627  16.953  0.00  0.00    +0.000 A 
ATOM      5  N   UNL     1       3.992   3.333  16.855  0.00  0.00    +0.000 NA
ATOM      6  C   UNL     1       3.192   2.713  17.802  0.00  0.00    +0.000 A 
ATOM      7  C   UNL     1       2.595   3.352  18.822  0.00  0.00    +0.000 A 
ATOM      8  N   UNL     1       2.744   4.701  18.917  0.00  0.00    +0.000 N 
ATOM      9  C   UNL     1       2.225   5.568  19.835  0.00  0.00    +0.000 A 
ATOM     10  O   UNL     1       1.596   5.285  20.849  0.00  0.00    +0.000 OA
ENDROOT
BRANCH   1  11
ATOM     11  C   UNL     1       2.120   8.092  19.962  0.00  0.00    +0.000 C 
BRANCH  11  16
ATOM     12  N   UNL     1      -1.248  11.781  21.016  0.00  0.00    +0.000 N 
ATOM     13  C   UNL     1      -0.227  11.011  21.735  0.00  0.00    +0.000 C 
ATOM     14  C   UNL     1      -0.121   9.608  21.131  0.00  0.00    +0.000 C 
ATOM     15  N   UNL     1       0.163   9.669  19.702  0.00  0.00    +0.000 N 
ATOM     16  C   UNL     1       1.195   8.973  19.082  0.00  0.00    +0.000 C 
ATOM     17  O   UNL     1       1.326   8.979  17.856  0.00  0.00    +0.000 OA
ATOM     18  C   UNL     1      -0.828  10.453  18.937  0.00  0.00    +0.000 C 
ATOM     19  C   UNL     1      -1.060  11.857  19.552  0.00  0.00    +0.000 C 
BRANCH  12  23
ATOM     20  C   UNL     1      -4.611  13.238  23.104  0.00  0.00    +0.000 A 
ATOM     21  C   UNL     1      -3.618  12.533  23.770  0.00  0.00    +0.000 A 
ATOM     22  C   UNL     1      -2.489  12.088  23.075  0.00  0.00    +0.000 A 
ATOM     23  C   UNL     1      -2.330  12.297  21.694  0.00  0.00    +0.000 A 
ATOM     24  C   UNL     1      -3.337  13.023  21.052  0.00  0.00    +0.000 A 
ATOM     25  C   UNL     1      -4.467  13.482  21.741  0.00  0.00    +0.000 A 
BRANCH  20  27
ATOM     26  C   UNL     1      -6.879  13.856  23.129  0.00  0.00    +0.000 C 
ATOM     27  O   UNL     1      -5.684  13.616  23.863  0.00  0.00    +0.000 OA
ENDBRANCH  20  27
ENDBRANCH  12  23
ENDBRANCH  11  16
ENDBRANCH   1  11
BRANCH   4  28
ATOM     28  S   UNL     1       5.119   5.620  15.992  0.00  0.00    +0.000 S 
BRANCH  28  29
ATOM     29  C   UNL     1       6.395   6.082  17.144  0.00  0.00    +0.000 A 
ATOM     30  C   UNL     1       6.933   5.177  18.065  0.00  0.00    +0.000 A 
ATOM     31  C   UNL     1       7.930   5.586  18.954  0.00  0.00    +0.000 A 
ATOM     32  C   UNL     1       8.393   6.902  18.932  0.00  0.00    +0.000 A 
ATOM     33  C   UNL     1       7.851   7.826  18.035  0.00  0.00    +0.000 A 
ATOM     34  C   UNL     1       8.327   9.249  18.009  0.00  0.00    +0.000 C 
ATOM     35  C   UNL     1       6.844   7.408  17.152  0.00  0.00    +0.000 A 
ENDBRANCH  28  29
ENDBRANCH   4  28
TORSDOF 6
ENDMDL
MODEL 2
REMARK VINA RESULT:      -8.7      1.337      1.455
REMARK  Name = 
REMARK  8 active torsions:
REMARK  status: ('A' for Active; 'I' for Inactive)
REMARK    1  A    between atoms: C_1  and  O_2
REMARK    2  A    between atoms: O_2  and  C_3
REMARK    3  A    between atoms: C_6  and  N_7
REMARK    4  A    between atoms: C_11  and  C_13
REMARK    5  A    between atoms: C_13  and  N_14
REMARK    6  A    between atoms: C_17  and  S_18
REMARK    7  A    between atoms: S_18  and  C_19
REMARK    8  A    between atoms: C_23  and  C_24
REMARK                            x       y       z     vdW  Elec       q    Type
REMARK                         _______ _______ _______ _____ _____    ______ ____
ROOT
ATOM      1  N   UNL     1       2.028   5.483  20.155  0.00  0.00    +0.000 N 
ATOM      2  N   UNL     1       2.707   5.662  18.934  0.00  0.00    +0.000 NA
ATOM      3  C   UNL     1       3.120   4.458  18.648  0.00  0.00    +0.000 A 
ATOM      4  C   UNL     1       3.887   3.901  17.480  0.00  0.00    +0.000 A 
ATOM      5  N   UNL     1       4.122   2.633  17.296  0.00  0.00    +0.000 NA
ATOM      6  C   UNL     1       3.621   1.775  18.262  0.00  0.00    +0.000 A 
ATOM      7  C   UNL     1       2.987   2.177  19.376  0.00  0.00    +0.000 A 
ATOM      8  N   UNL     1       2.780   3.510  19.557  0.00  0.00    +0.000 N 
ATOM      9  C   UNL     1       2.149   4.158  20.579  0.00  0.00    +0.000 A 
ATOM     10  O   UNL     1       1.731   3.667  21.622  0.00  0.00    +0.000 OA
ENDROOT
BRANCH   1  11
ATOM     11  C   UNL     1       1.389   6.549  20.902  0.00  0.00    +0.000 C 
BRANCH  11  16
ATOM     12  N   UNL     1      -0.201  11.217  22.225  0.00  0.00    +0.000 N 
ATOM     13  C   UNL     1      -0.123   9.886  22.838  0.00  0.00    +0.000 C 
ATOM     14  C   UNL     1      -0.293   8.812  21.759  0.00  0.00    +0.000 C 
ATOM     15  N   UNL     1       0.694   8.970  20.699  0.00  0.00    +0.000 N 
ATOM     16  C   UNL     1       1.513   7.945  20.237  0.00  0.00    +0.000 C 
ATOM     17  O   UNL     1       2.258   8.107  19.267  0.00  0.00    +0.000 OA
ATOM     18  C   UNL     1       0.670  10.304  20.064  0.00  0.00    +0.000 C 
ATOM     19  C   UNL     1       0.740  11.447  21.108  0.00  0.00    +0.000 C 
BRANCH  12  23
ATOM     20  C   UNL     1      -3.217  13.922  23.397  0.00  0.00    +0.000 A 
ATOM     21  C   UNL     1      -3.345  12.565  23.661  0.00  0.00    +0.000 A 
ATOM     22  C   UNL     1      -2.321  11.683  23.303  0.00  0.00    +0.000 A 
ATOM     23  C   UNL     1      -1.160  12.115  22.639  0.00  0.00    +0.000 A 
ATOM     24  C   UNL     1      -1.051  13.487  22.400  0.00  0.00    +0.000 A 
ATOM     25  C   UNL     1      -2.066  14.381  22.764  0.00  0.00    +0.000 A 
BRANCH  20  27
ATOM     26  C   UNL     1      -5.554  14.109  23.569  0.00  0.00    +0.000 C 
ATOM     27  O   UNL     1      -4.276  14.702  23.768  0.00  0.00    +0.000 OA
ENDBRANCH  20  27
ENDBRANCH  12  23
ENDBRANCH  11  16
ENDBRANCH   1  11
BRANCH   4  28
ATOM     28  S   UNL     1       4.499   5.179  16.507  0.00  0.00    +0.000 S 
BRANCH  28  29
ATOM     29  C   UNL     1       5.922   5.715  17.433  0.00  0.00    +0.000 A 
ATOM     30  C   UNL     1       6.539   4.903  18.389  0.00  0.00    +0.000 A 
ATOM     31  C   UNL     1       7.651   5.368  19.095  0.00  0.00    +0.000 A 
ATOM     32  C   UNL     1       8.152   6.648  18.854  0.00  0.00    +0.000 A 
ATOM     33  C   UNL     1       7.534   7.481  17.917  0.00  0.00    +0.000 A 
ATOM     34  C   UNL     1       8.050   8.866  17.656  0.00  0.00    +0.000 C 
ATOM     35  C   UNL     1       6.412   7.009  17.220  0.00  0.00    +0.000 A 
ENDBRANCH  28  29
ENDBRANCH   4  28
TORSDOF 6
ENDMDL
MODEL 3
REMARK VINA RESULT:      -8.2      0.556      1.230
REMARK  Name = 
REMARK  8 active torsions:
REMARK  status: ('A' for Active; 'I' for Inactive)
REMARK    1  A    between atoms: C_1  and  O_2
REMARK    2  A    between atoms: O_2  and  C_3
REMARK    3  A    between atoms: C_6  and  N_7
REMARK    4  A    between atoms: C_11  and  C_13
REMARK    5  A    between atoms: C_13  and  N_14
REMARK    6  A    between atoms: C_17  and  S_18
REMARK    7  A    between atoms: S_18  and  C_19
REMARK    8  A    between atoms: C_23  and  C_24
REMARK                            x       y       z     vdW  Elec       q    Type
REMARK                         _______ _______ _______ _____ _____    ______ ____
ROOT
ATOM      1  N   UNL     1       2.417   7.084  19.489  0.00  0.00    +0.000 N 
ATOM      2  N   UNL     1       3.206   7.152  18.324  0.00  0.00    +0.000 NA
ATOM      3  C   UNL     1       3.455   5.897  18.065  0.00  0.00    +0.000 A 
ATOM      4  C   UNL     1       4.217   5.224  16.956  0.00  0.00    +0.000 A 
ATOM      5  N   UNL     1       4.273   3.934  16.785  0.00  0.00    +0.000 NA
ATOM      6  C   UNL     1       3.579   3.167  17.707  0.00  0.00    +0.000 A 
ATOM      7  C   UNL     1       2.930   3.667  18.771  0.00  0.00    +0.000 A 
ATOM      8  N   UNL     1       2.910   5.017  18.941  0.00  0.00    +0.000 N 
ATOM      9  C   UNL     1       2.307   5.759  19.915  0.00  0.00    +0.000 A 
ATOM     10  O   UNL     1       1.742   5.343  20.921  0.00  0.00    +0.000 OA
ENDROOT
BRANCH   1  11
ATOM     11  C   UNL     1       1.889   8.238  20.190  0.00  0.00    +0.000 C 
BRANCH  11  16
ATOM     12  N   UNL     1      -1.529  11.868  21.291  0.00  0.00    +0.000 N 
ATOM     13  C   UNL     1      -0.513  11.087  22.005  0.00  0.00    +0.000 C 
ATOM     14  C   UNL     1      -0.384   9.702  21.363  0.00  0.00    +0.000 C 
ATOM     15  N   UNL     1      -0.078   9.805  19.942  0.00  0.00    +0.000 N 
ATOM     16  C   UNL     1       0.971   9.137  19.319  0.00  0.00    +0.000 C 
ATOM     17  O   UNL     1       1.122   9.178  18.096  0.00  0.00    +0.000 OA
ATOM     18  C   UNL     1      -1.063  10.603  19.183  0.00  0.00    +0.000 C 
ATOM     19  C   UNL     1      -1.317  11.987  19.833  0.00  0.00    +0.000 C 
BRANCH  12  23
ATOM     20  C   UNL     1      -4.938  13.237  23.362  0.00  0.00    +0.000 A 
ATOM     21  C   UNL     1      -3.953  12.518  24.024  0.00  0.00    +0.000 A 
ATOM     22  C   UNL     1      -2.809  12.102  23.336  0.00  0.00    +0.000 A 
ATOM     23  C   UNL     1      -2.627  12.356  21.965  0.00  0.00    +0.000 A 
ATOM     24  C   UNL     1      -3.627  13.094  21.329  0.00  0.00    +0.000 A 
ATOM     25  C   UNL     1      -4.773  13.524  22.010  0.00  0.00    +0.000 A 
BRANCH  20  27
ATOM     26  C   UNL     1      -7.224  12.885  23.788  0.00  0.00    +0.000 C 
ATOM     27  O   UNL     1      -6.027  13.584  24.113  0.00  0.00    +0.000 OA
ENDBRANCH  20  27
ENDBRANCH  12  23
ENDBRANCH  11  16
ENDBRANCH   1  11
BRANCH   4  28
ATOM     28  S   UNL     1       5.085   6.390  16.038  0.00  0.00    +0.000 S 
BRANCH  28  29
ATOM     29  C   UNL     1       6.403   6.842  17.145  0.00  0.00    +0.000 A 
ATOM     30  C   UNL     1       7.068   8.069  17.054  0.00  0.00    +0.000 A 
ATOM     31  C   UNL     1       8.101   8.377  17.944  0.00  0.00    +0.000 A 
ATOM     32  C   UNL     1       8.479   7.461  18.927  0.00  0.00    +0.000 A 
ATOM     33  C   UNL     1       7.840   6.221  19.017  0.00  0.00    +0.000 A 
ATOM     34  C   UNL     1       8.245   5.220  20.059  0.00  0.00    +0.000 C 
ATOM     35  C   UNL     1       6.811   5.917  18.114  0.00  0.00    +0.000 A 
ENDBRANCH  28  29
ENDBRANCH   4  28
TORSDOF 6
ENDMDL
MODEL 4
REMARK VINA RESULT:      -8.0      1.864      2.414
REMARK  Name = 
REMARK  8 active torsions:
REMARK  status: ('A' for Active; 'I' for Inactive)
REMARK    1  A    between atoms: C_1  and  O_2
REMARK    2  A    between atoms: O_2  and  C_3
REMARK    3  A    between atoms: C_6  and  N_7
REMARK    4  A    between atoms: C_11  and  C_13
REMARK    5  A    between atoms: C_13  and  N_14
REMARK    6  A    between atoms: C_17  and  S_18
REMARK    7  A    between atoms: S_18  and  C_19
REMARK    8  A    between atoms: C_23  and  C_24
REMARK                            x       y       z     vdW  Elec       q    Type
REMARK                         _______ _______ _______ _____ _____    ______ ____
ROOT
ATOM      1  N   UNL     1       2.505   6.091  19.845  0.00  0.00    +0.000 N 
ATOM      2  N   UNL     1       3.656   5.970  19.043  0.00  0.00    +0.000 NA
ATOM      3  C   UNL     1       3.601   4.731  18.636  0.00  0.00    +0.000 A 
ATOM      4  C   UNL     1       4.488   3.923  17.729  0.00  0.00    +0.000 A 
ATOM      5  N   UNL     1       4.220   2.712  17.332  0.00  0.00    +0.000 NA
ATOM      6  C   UNL     1       3.035   2.165  17.801  0.00  0.00    +0.000 A 
ATOM      7  C   UNL     1       2.212   2.777  18.669  0.00  0.00    +0.000 A 
ATOM      8  N   UNL     1       2.531   4.031  19.089  0.00  0.00    +0.000 N 
ATOM      9  C   UNL     1       1.855   4.859  19.938  0.00  0.00    +0.000 A 
ATOM     10  O   UNL     1       0.856   4.590  20.597  0.00  0.00    +0.000 OA
ENDROOT
BRANCH   1  11
ATOM     11  C   UNL     1       2.119   7.299  20.549  0.00  0.00    +0.000 C 
BRANCH  11  16
ATOM     12  N   UNL     1      -0.830  11.392  21.333  0.00  0.00    +0.000 N 
ATOM     13  C   UNL     1      -0.152  10.376  22.145  0.00  0.00    +0.000 C 
ATOM     14  C   UNL     1      -0.101   9.053  21.375  0.00  0.00    +0.000 C 
ATOM     15  N   UNL     1       0.546   9.221  20.080  0.00  0.00    +0.000 N 
ATOM     16  C   UNL     1       1.591   8.425  19.621  0.00  0.00    +0.000 C 
ATOM     17  O   UNL     1       2.032   8.545  18.475  0.00  0.00    +0.000 OA
ATOM     18  C   UNL     1      -0.089  10.251  19.233  0.00  0.00    +0.000 C 
ATOM     19  C   UNL     1      -0.263  11.596  19.983  0.00  0.00    +0.000 C 
BRANCH  12  23
ATOM     20  C   UNL     1      -4.354  13.180  22.809  0.00  0.00    +0.000 A 
ATOM     21  C   UNL     1      -3.478  12.533  23.670  0.00  0.00    +0.000 A 
ATOM     22  C   UNL     1      -2.294  11.977  23.174  0.00  0.00    +0.000 A 
ATOM     23  C   UNL     1      -1.963  12.015  21.809  0.00  0.00    +0.000 A 
ATOM     24  C   UNL     1      -2.856  12.686  20.969  0.00  0.00    +0.000 A 
ATOM     25  C   UNL     1      -4.039  13.255  21.455  0.00  0.00    +0.000 A 
BRANCH  20  27
ATOM     26  C   UNL     1      -6.290  12.709  24.058  0.00  0.00    +0.000 C 
ATOM     27  O   UNL     1      -5.492  13.675  23.382  0.00  0.00    +0.000 OA
ENDBRANCH  20  27
ENDBRANCH  12  23
ENDBRANCH  11  16
ENDBRANCH   1  11
BRANCH   4  28
ATOM     28  S   UNL     1       5.941   4.781  17.400  0.00  0.00    +0.000 S 
BRANCH  28  29
ATOM     29  C   UNL     1       6.126   4.556  15.643  0.00  0.00    +0.000 A 
ATOM     30  C   UNL     1       5.243   3.772  14.894  0.00  0.00    +0.000 A 
ATOM     31  C   UNL     1       5.431   3.622  13.517  0.00  0.00    +0.000 A 
ATOM     32  C   UNL     1       6.503   4.249  12.882  0.00  0.00    +0.000 A 
ATOM     33  C   UNL     1       7.408   5.018  13.619  0.00  0.00    +0.000 A 
ATOM     34  C   UNL     1       8.574   5.687  12.953  0.00  0.00    +0.000 C 
ATOM     35  C   UNL     1       7.217   5.156  15.002  0.00  0.00    +0.000 A 
ENDBRANCH  28  29
ENDBRANCH   4  28
TORSDOF 6
ENDMDL
MODEL 5
REMARK VINA RESULT:      -7.9      4.050     11.291
REMARK  Name = 
REMARK  8 active torsions:
REMARK  status: ('A' for Active; 'I' for Inactive)
REMARK    1  A    between atoms: C_1  and  O_2
REMARK    2  A    between atoms: O_2  and  C_3
REMARK    3  A    between atoms: C_6  and  N_7
REMARK    4  A    between atoms: C_11  and  C_13
REMARK    5  A    between atoms: C_13  and  N_14
REMARK    6  A    between atoms: C_17  and  S_18
REMARK    7  A    between atoms: S_18  and  C_19
REMARK    8  A    between atoms: C_23  and  C_24
REMARK                            x       y       z     vdW  Elec       q    Type
REMARK                         _______ _______ _______ _____ _____    ______ ____
ROOT
ATOM      1  N   UNL     1      -3.366  13.354  23.279  0.00  0.00    +0.000 N 
ATOM      2  N   UNL     1      -4.298  12.654  22.489  0.00  0.00    +0.000 NA
ATOM      3  C   UNL     1      -5.336  13.445  22.490  0.00  0.00    +0.000 A 
ATOM      4  C   UNL     1      -6.684  13.348  21.829  0.00  0.00    +0.000 A 
ATOM      5  N   UNL     1      -7.576  14.297  21.843  0.00  0.00    +0.000 NA
ATOM      6  C   UNL     1      -7.226  15.452  22.525  0.00  0.00    +0.000 A 
ATOM      7  C   UNL     1      -6.079  15.609  23.206  0.00  0.00    +0.000 A 
ATOM      8  N   UNL     1      -5.177  14.591  23.198  0.00  0.00    +0.000 N 
ATOM      9  C   UNL     1      -3.947  14.518  23.786  0.00  0.00    +0.000 A 
ATOM     10  O   UNL     1      -3.442  15.332  24.552  0.00  0.00    +0.000 OA
ENDROOT
BRANCH   1  11
ATOM     11  C   UNL     1      -2.034  12.874  23.595  0.00  0.00    +0.000 C 
BRANCH  11  16
ATOM     12  N   UNL     1       0.426  10.379  19.882  0.00  0.00    +0.000 N 
ATOM     13  C   UNL     1      -0.701  10.132  20.788  0.00  0.00    +0.000 C 
ATOM     14  C   UNL     1      -0.466  10.867  22.111  0.00  0.00    +0.000 C 
ATOM     15  N   UNL     1      -0.259  12.293  21.892  0.00  0.00    +0.000 N 
ATOM     16  C   UNL     1      -0.953  13.295  22.563  0.00  0.00    +0.000 C 
ATOM     17  O   UNL     1      -0.665  14.485  22.415  0.00  0.00    +0.000 OA
ATOM     18  C   UNL     1       0.854  12.592  20.967  0.00  0.00    +0.000 C 
ATOM     19  C   UNL     1       0.734  11.804  19.638  0.00  0.00    +0.000 C 
BRANCH  12  23
ATOM     20  C   UNL     1       2.791   7.189  18.459  0.00  0.00    +0.000 A 
ATOM     21  C   UNL     1       2.304   7.181  19.759  0.00  0.00    +0.000 A 
ATOM     22  C   UNL     1       1.489   8.225  20.207  0.00  0.00    +0.000 A 
ATOM     23  C   UNL     1       1.165   9.324  19.393  0.00  0.00    +0.000 A 
ATOM     24  C   UNL     1       1.656   9.298  18.085  0.00  0.00    +0.000 A 
ATOM     25  C   UNL     1       2.465   8.253  17.622  0.00  0.00    +0.000 A 
BRANCH  20  27
ATOM     26  C   UNL     1       4.165   5.439  19.219  0.00  0.00    +0.000 C 
ATOM     27  O   UNL     1       3.593   6.136  18.118  0.00  0.00    +0.000 OA
ENDBRANCH  20  27
ENDBRANCH  12  23
ENDBRANCH  11  16
ENDBRANCH   1  11
BRANCH   4  28
ATOM     28  S   UNL     1      -6.910  11.777  21.168  0.00  0.00    +0.000 S 
BRANCH  28  29
ATOM     29  C   UNL     1      -6.411  12.002  19.474  0.00  0.00    +0.000 A 
ATOM     30  C   UNL     1      -7.206  12.681  18.545  0.00  0.00    +0.000 A 
ATOM     31  C   UNL     1      -6.774  12.829  17.224  0.00  0.00    +0.000 A 
ATOM     32  C   UNL     1      -5.549  12.297  16.821  0.00  0.00    +0.000 A 
ATOM     33  C   UNL     1      -4.752  11.595  17.731  0.00  0.00    +0.000 A 
ATOM     34  C   UNL     1      -3.439  11.004  17.310  0.00  0.00    +0.000 C 
ATOM     35  C   UNL     1      -5.198  11.444  19.052  0.00  0.00    +0.000 A 
ENDBRANCH  28  29
ENDBRANCH   4  28
TORSDOF 6
ENDMDL
MODEL 6
REMARK VINA RESULT:      -7.9      2.337      3.009
REMARK  Name = 
REMARK  8 active torsions:
REMARK  status: ('A' for Active; 'I' for Inactive)
REMARK    1  A    between atoms: C_1  and  O_2
REMARK    2  A    between atoms: O_2  and  C_3
REMARK    3  A    between atoms: C_6  and  N_7
REMARK    4  A    between atoms: C_11  and  C_13
REMARK    5  A    between atoms: C_13  and  N_14
REMARK    6  A    between atoms: C_17  and  S_18
REMARK    7  A    between atoms: S_18  and  C_19
REMARK    8  A    between atoms: C_23  and  C_24
REMARK                            x       y       z     vdW  Elec       q    Type
REMARK                         _______ _______ _______ _____ _____    ______ ____
ROOT
ATOM      1  N   UNL     1       2.170   8.232  18.809  0.00  0.00    +0.000 N 
ATOM      2  N   UNL     1       2.820   7.285  17.994  0.00  0.00    +0.000 NA
ATOM      3  C   UNL     1       2.799   6.205  18.726  0.00  0.00    +0.000 A 
ATOM      4  C   UNL     1       3.289   4.804  18.478  0.00  0.00    +0.000 A 
ATOM      5  N   UNL     1       3.083   3.803  19.285  0.00  0.00    +0.000 NA
ATOM      6  C   UNL     1       2.366   4.087  20.437  0.00  0.00    +0.000 A 
ATOM      7  C   UNL     1       1.947   5.315  20.783  0.00  0.00    +0.000 A 
ATOM      8  N   UNL     1       2.201   6.348  19.935  0.00  0.00    +0.000 N 
ATOM      9  C   UNL     1       1.862   7.666  20.048  0.00  0.00    +0.000 A 
ATOM     10  O   UNL     1       1.347   8.219  21.014  0.00  0.00    +0.000 OA
ENDROOT
BRANCH   1  11
ATOM     11  C   UNL     1       1.951   9.618  18.442  0.00  0.00    +0.000 C 
BRANCH  11  16
ATOM     12  N   UNL     1      -0.454  13.506  20.713  0.00  0.00    +0.000 N 
ATOM     13  C   UNL     1       0.929  13.093  20.455  0.00  0.00    +0.000 C 
ATOM     14  C   UNL     1       1.016  11.564  20.448  0.00  0.00    +0.000 C 
ATOM     15  N   UNL     1       0.096  10.988  19.475  0.00  0.00    +0.000 N 
ATOM     16  C   UNL     1       0.465  10.059  18.508  0.00  0.00    +0.000 C 
ATOM     17  O   UNL     1      -0.374   9.526  17.777  0.00  0.00    +0.000 OA
ATOM     18  C   UNL     1      -1.309  11.394  19.680  0.00  0.00    +0.000 C 
ATOM     19  C   UNL     1      -1.461  12.932  19.796  0.00  0.00    +0.000 C 
BRANCH  12  23
ATOM     20  C   UNL     1      -1.223  15.973  24.047  0.00  0.00    +0.000 A 
ATOM     21  C   UNL     1      -0.918  16.530  22.813  0.00  0.00    +0.000 A 
ATOM     22  C   UNL     1      -0.703  15.703  21.706  0.00  0.00    +0.000 A 
ATOM     23  C   UNL     1      -0.748  14.302  21.799  0.00  0.00    +0.000 A 
ATOM     24  C   UNL     1      -1.072  13.769  23.050  0.00  0.00    +0.000 A 
ATOM     25  C   UNL     1      -1.299  14.587  24.163  0.00  0.00    +0.000 A 
BRANCH  20  27
ATOM     26  C   UNL     1      -0.223  17.148  25.821  0.00  0.00    +0.000 C 
ATOM     27  O   UNL     1      -1.399  16.859  25.073  0.00  0.00    +0.000 OA
ENDBRANCH  20  27
ENDBRANCH  12  23
ENDBRANCH  11  16
ENDBRANCH   1  11
BRANCH   4  28
ATOM     28  S   UNL     1       4.251   4.754  17.054  0.00  0.00    +0.000 S 
BRANCH  28  29
ATOM     29  C   UNL     1       5.711   5.644  17.549  0.00  0.00    +0.000 A 
ATOM     30  C   UNL     1       6.179   6.760  16.848  0.00  0.00    +0.000 A 
ATOM     31  C   UNL     1       7.333   7.424  17.273  0.00  0.00    +0.000 A 
ATOM     32  C   UNL     1       8.029   6.976  18.396  0.00  0.00    +0.000 A 
ATOM     33  C   UNL     1       7.588   5.848  19.095  0.00  0.00    +0.000 A 
ATOM     34  C   UNL     1       8.333   5.344  20.296  0.00  0.00    +0.000 C 
ATOM     35  C   UNL     1       6.434   5.183  18.656  0.00  0.00    +0.000 A 
ENDBRANCH  28  29
ENDBRANCH   4  28
TORSDOF 6
ENDMDL
MODEL 7
REMARK VINA RESULT:      -7.9      3.933     11.153
REMARK  Name = 
REMARK  8 active torsions:
REMARK  status: ('A' for Active; 'I' for Inactive)
REMARK    1  A    between atoms: C_1  and  O_2
REMARK    2  A    between atoms: O_2  and  C_3
REMARK    3  A    between atoms: C_6  and  N_7
REMARK    4  A    between atoms: C_11  and  C_13
REMARK    5  A    between atoms: C_13  and  N_14
REMARK    6  A    between atoms: C_17  and  S_18
REMARK    7  A    between atoms: S_18  and  C_19
REMARK    8  A    between atoms: C_23  and  C_24
REMARK                            x       y       z     vdW  Elec       q    Type
REMARK                         _______ _______ _______ _____ _____    ______ ____
ROOT
ATOM      1  N   UNL     1      -2.729  12.131  19.307  0.00  0.00    +0.000 N 
ATOM      2  N   UNL     1      -3.645  12.964  19.979  0.00  0.00    +0.000 NA
ATOM      3  C   UNL     1      -4.785  12.653  19.425  0.00  0.00    +0.000 A 
ATOM      4  C   UNL     1      -6.191  13.128  19.667  0.00  0.00    +0.000 A 
ATOM      5  N   UNL     1      -7.244  12.622  19.092  0.00  0.00    +0.000 NA
ATOM      6  C   UNL     1      -7.013  11.584  18.203  0.00  0.00    +0.000 A 
ATOM      7  C   UNL     1      -5.793  11.136  17.866  0.00  0.00    +0.000 A 
ATOM      8  N   UNL     1      -4.708  11.702  18.461  0.00  0.00    +0.000 N 
ATOM      9  C   UNL     1      -3.383  11.410  18.306  0.00  0.00    +0.000 A 
ATOM     10  O   UNL     1      -2.884  10.636  17.496  0.00  0.00    +0.000 OA
ENDROOT
BRANCH   1  11
ATOM     11  C   UNL     1      -1.301  12.112  19.559  0.00  0.00    +0.000 C 
BRANCH  11  16
ATOM     12  N   UNL     1       1.778   8.071  20.070  0.00  0.00    +0.000 N 
ATOM     13  C   UNL     1       1.447   9.055  19.033  0.00  0.00    +0.000 C 
ATOM     14  C   UNL     1      -0.015   9.487  19.181  0.00  0.00    +0.000 C 
ATOM     15  N   UNL     1      -0.276  10.010  20.517  0.00  0.00    +0.000 N 
ATOM     16  C   UNL     1      -0.888  11.233  20.769  0.00  0.00    +0.000 C 
ATOM     17  O   UNL     1      -1.179  11.580  21.916  0.00  0.00    +0.000 OA
ATOM     18  C   UNL     1       0.062   9.062  21.598  0.00  0.00    +0.000 C 
ATOM     19  C   UNL     1       1.502   8.505  21.455  0.00  0.00    +0.000 C 
BRANCH  12  23
ATOM     20  C   UNL     1       3.062   4.232  18.886  0.00  0.00    +0.000 A 
ATOM     21  C   UNL     1       3.410   5.352  18.143  0.00  0.00    +0.000 A 
ATOM     22  C   UNL     1       3.011   6.623  18.567  0.00  0.00    +0.000 A 
ATOM     23  C   UNL     1       2.225   6.817  19.716  0.00  0.00    +0.000 A 
ATOM     24  C   UNL     1       1.903   5.674  20.452  0.00  0.00    +0.000 A 
ATOM     25  C   UNL     1       2.306   4.396  20.043  0.00  0.00    +0.000 A 
BRANCH  20  27
ATOM     26  C   UNL     1       2.451   2.225  17.825  0.00  0.00    +0.000 C 
ATOM     27  O   UNL     1       3.481   3.031  18.383  0.00  0.00    +0.000 OA
ENDBRANCH  20  27
ENDBRANCH  12  23
ENDBRANCH  11  16
ENDBRANCH   1  11
BRANCH   4  28
ATOM     28  S   UNL     1      -6.185  14.497  20.708  0.00  0.00    +0.000 S 
BRANCH  28  29
ATOM     29  C   UNL     1      -5.771  13.777  22.282  0.00  0.00    +0.000 A 
ATOM     30  C   UNL     1      -6.557  12.786  22.880  0.00  0.00    +0.000 A 
ATOM     31  C   UNL     1      -6.194  12.253  24.119  0.00  0.00    +0.000 A 
ATOM     32  C   UNL     1      -5.048  12.708  24.772  0.00  0.00    +0.000 A 
ATOM     33  C   UNL     1      -4.263  13.714  24.199  0.00  0.00    +0.000 A 
ATOM     34  C   UNL     1      -3.036  14.224  24.895  0.00  0.00    +0.000 C 
ATOM     35  C   UNL     1      -4.640  14.249  22.959  0.00  0.00    +0.000 A 
ENDBRANCH  28  29
ENDBRANCH   4  28
TORSDOF 6
ENDMDL
MODEL 8
REMARK VINA RESULT:      -7.8      4.691      8.959
REMARK  Name = 
REMARK  8 active torsions:
REMARK  status: ('A' for Active; 'I' for Inactive)
REMARK    1  A    between atoms: C_1  and  O_2
REMARK    2  A    between atoms: O_2  and  C_3
REMARK    3  A    between atoms: C_6  and  N_7
REMARK    4  A    between atoms: C_11  and  C_13
REMARK    5  A    between atoms: C_13  and  N_14
REMARK    6  A    between atoms: C_17  and  S_18
REMARK    7  A    between atoms: S_18  and  C_19
REMARK    8  A    between atoms: C_23  and  C_24
REMARK                            x       y       z     vdW  Elec       q    Type
REMARK                         _______ _______ _______ _____ _____    ______ ____
ROOT
ATOM      1  N   UNL     1       1.669  13.199  19.971  0.00  0.00    +0.000 N 
ATOM      2  N   UNL     1       2.415  13.683  21.063  0.00  0.00    +0.000 NA
ATOM      3  C   UNL     1       3.474  14.189  20.493  0.00  0.00    +0.000 A 
ATOM      4  C   UNL     1       4.680  14.898  21.045  0.00  0.00    +0.000 A 
ATOM      5  N   UNL     1       5.606  15.448  20.312  0.00  0.00    +0.000 NA
ATOM      6  C   UNL     1       5.435  15.348  18.940  0.00  0.00    +0.000 A 
ATOM      7  C   UNL     1       4.433  14.676  18.350  0.00  0.00    +0.000 A 
ATOM      8  N   UNL     1       3.496  14.087  19.140  0.00  0.00    +0.000 N 
ATOM      9  C   UNL     1       2.384  13.378  18.785  0.00  0.00    +0.000 A 
ATOM     10  O   UNL     1       2.060  13.024  17.657  0.00  0.00    +0.000 OA
ENDROOT
BRANCH   1  11
ATOM     11  C   UNL     1       0.390  12.523  20.086  0.00  0.00    +0.000 C 
BRANCH  11  16
ATOM     12  N   UNL     1       1.874   7.639  20.136  0.00  0.00    +0.000 N 
ATOM     13  C   UNL     1       1.998   8.797  19.244  0.00  0.00    +0.000 C 
ATOM     14  C   UNL     1       0.757   9.685  19.381  0.00  0.00    +0.000 C 
ATOM     15  N   UNL     1       0.552  10.095  20.765  0.00  0.00    +0.000 N 
ATOM     16  C   UNL     1       0.362  11.412  21.169  0.00  0.00    +0.000 C 
ATOM     17  O   UNL     1       0.090  11.692  22.339  0.00  0.00    +0.000 OA
ATOM     18  C   UNL     1       0.444   8.961  21.706  0.00  0.00    +0.000 C 
ATOM     19  C   UNL     1       1.622   7.964  21.555  0.00  0.00    +0.000 C 
BRANCH  12  23
ATOM     20  C   UNL     1       2.095   3.705  18.630  0.00  0.00    +0.000 A 
ATOM     21  C   UNL     1       1.676   3.939  19.932  0.00  0.00    +0.000 A 
ATOM     22  C   UNL     1       1.570   5.249  20.408  0.00  0.00    +0.000 A 
ATOM     23  C   UNL     1       1.911   6.362  19.619  0.00  0.00    +0.000 A 
ATOM     24  C   UNL     1       2.315   6.097  18.308  0.00  0.00    +0.000 A 
ATOM     25  C   UNL     1       2.415   4.789  17.818  0.00  0.00    +0.000 A 
BRANCH  20  27
ATOM     26  C   UNL     1       3.464   1.801  18.460  0.00  0.00    +0.000 C 
ATOM     27  O   UNL     1       2.184   2.391  18.260  0.00  0.00    +0.000 OA
ENDBRANCH  20  27
ENDBRANCH  12  23
ENDBRANCH  11  16
ENDBRANCH   1  11
BRANCH   4  28
ATOM     28  S   UNL     1       4.712  14.769  22.760  0.00  0.00    +0.000 S 
BRANCH  28  29
ATOM     29  C   UNL     1       5.995  13.563  23.026  0.00  0.00    +0.000 A 
ATOM     30  C   UNL     1       5.857  12.517  23.943  0.00  0.00    +0.000 A 
ATOM     31  C   UNL     1       6.894  11.596  24.121  0.00  0.00    +0.000 A 
ATOM     32  C   UNL     1       8.075  11.718  23.388  0.00  0.00    +0.000 A 
ATOM     33  C   UNL     1       8.238  12.771  22.483  0.00  0.00    +0.000 A 
ATOM     34  C   UNL     1       9.508  12.924  21.698  0.00  0.00    +0.000 C 
ATOM     35  C   UNL     1       7.196  13.695  22.318  0.00  0.00    +0.000 A 
ENDBRANCH  28  29
ENDBRANCH   4  28
TORSDOF 6
ENDMDL
MODEL 9
REMARK VINA RESULT:      -7.7      3.855     11.861
REMARK  Name = 
REMARK  8 active torsions:
REMARK  status: ('A' for Active; 'I' for Inactive)
REMARK    1  A    between atoms: C_1  and  O_2
REMARK    2  A    between atoms: O_2  and  C_3
REMARK    3  A    between atoms: C_6  and  N_7
REMARK    4  A    between atoms: C_11  and  C_13
REMARK    5  A    between atoms: C_13  and  N_14
REMARK    6  A    between atoms: C_17  and  S_18
REMARK    7  A    between atoms: S_18  and  C_19
REMARK    8  A    between atoms: C_23  and  C_24
REMARK                            x       y       z     vdW  Elec       q    Type
REMARK                         _______ _______ _______ _____ _____    ______ ____
ROOT
ATOM      1  N   UNL     1      -2.082  12.684  23.042  0.00  0.00    +0.000 N 
ATOM      2  N   UNL     1      -3.462  12.420  22.951  0.00  0.00    +0.000 NA
ATOM      3  C   UNL     1      -4.002  13.516  23.408  0.00  0.00    +0.000 A 
ATOM      4  C   UNL     1      -5.433  13.948  23.574  0.00  0.00    +0.000 A 
ATOM      5  N   UNL     1      -5.799  15.141  23.947  0.00  0.00    +0.000 NA
ATOM      6  C   UNL     1      -4.776  16.040  24.203  0.00  0.00    +0.000 A 
ATOM      7  C   UNL     1      -3.470  15.732  24.154  0.00  0.00    +0.000 A 
ATOM      8  N   UNL     1      -3.115  14.470  23.788  0.00  0.00    +0.000 N 
ATOM      9  C   UNL     1      -1.872  13.927  23.642  0.00  0.00    +0.000 A 
ATOM     10  O   UNL     1      -0.798  14.446  23.926  0.00  0.00    +0.000 OA
ENDROOT
BRANCH   1  11
ATOM     11  C   UNL     1      -1.041  11.749  22.660  0.00  0.00    +0.000 C 
BRANCH  11  16
ATOM     12  N   UNL     1       1.267   8.646  19.327  0.00  0.00    +0.000 N 
ATOM     13  C   UNL     1       0.610   8.533  20.634  0.00  0.00    +0.000 C 
ATOM     14  C   UNL     1       0.822   9.825  21.428  0.00  0.00    +0.000 C 
ATOM     15  N   UNL     1       0.341  10.985  20.687  0.00  0.00    +0.000 N 
ATOM     16  C   UNL     1      -0.529  11.937  21.207  0.00  0.00    +0.000 C 
ATOM     17  O   UNL     1      -0.822  12.953  20.572  0.00  0.00    +0.000 OA
ATOM     18  C   UNL     1       0.958  11.129  19.353  0.00  0.00    +0.000 C 
ATOM     19  C   UNL     1       0.867   9.822  18.525  0.00  0.00    +0.000 C 
BRANCH  12  23
ATOM     20  C   UNL     1       4.328   5.927  18.313  0.00  0.00    +0.000 A 
ATOM     21  C   UNL     1       3.534   5.710  19.431  0.00  0.00    +0.000 A 
ATOM     22  C   UNL     1       2.497   6.598  19.736  0.00  0.00    +0.000 A 
ATOM     23  C   UNL     1       2.242   7.744  18.962  0.00  0.00    +0.000 A 
ATOM     24  C   UNL     1       3.046   7.928  17.835  0.00  0.00    +0.000 A 
ATOM     25  C   UNL     1       4.081   7.040  17.514  0.00  0.00    +0.000 A 
BRANCH  20  27
ATOM     26  C   UNL     1       6.260   5.371  17.093  0.00  0.00    +0.000 C 
ATOM     27  O   UNL     1       5.327   5.016  18.107  0.00  0.00    +0.000 OA
ENDBRANCH  20  27
ENDBRANCH  12  23
ENDBRANCH  11  16
ENDBRANCH   1  11
BRANCH   4  28
ATOM     28  S   UNL     1      -6.489  12.615  23.318  0.00  0.00    +0.000 S 
BRANCH  28  29
ATOM     29  C   UNL     1      -6.748  12.669  21.557  0.00  0.00    +0.000 A 
ATOM     30  C   UNL     1      -6.987  11.516  20.803  0.00  0.00    +0.000 A 
ATOM     31  C   UNL     1      -7.180  11.607  19.421  0.00  0.00    +0.000 A 
ATOM     32  C   UNL     1      -7.132  12.848  18.785  0.00  0.00    +0.000 A 
ATOM     33  C   UNL     1      -6.873  14.008  19.521  0.00  0.00    +0.000 A 
ATOM     34  C   UNL     1      -6.804  15.348  18.850  0.00  0.00    +0.000 C 
ATOM     35  C   UNL     1      -6.671  13.906  20.906  0.00  0.00    +0.000 A 
ENDBRANCH  28  29
ENDBRANCH   4  28
TORSDOF 6
ENDMDL
