MODEL 1
REMARK VINA RESULT:      -8.2      0.000      0.000
REMARK  Name = 
REMARK  6 active torsions:
REMARK  status: ('A' for Active; 'I' for Inactive)
REMARK    1  A    between atoms: C_1  and  C_2
REMARK    2  A    between atoms: C_2  and  N_3
REMARK    3  A    between atoms: C_2  and  C_14
REMARK    4  A    between atoms: N_6  and  C_7
REMARK    5  A    between atoms: N_17  and  C_18
REMARK    6  A    between atoms: C_18  and  C_19
REMARK                            x       y       z     vdW  Elec       q    Type
REMARK                         _______ _______ _______ _____ _____    ______ ____
ROOT
ATOM      1  C   UNL     1       1.705   5.394  20.407  0.00  0.00    +0.000 C 
ATOM      2  C   UNL     1       2.582   6.542  19.908  0.00  0.00    +0.000 C 
ENDROOT
BRANCH   2   3
ATOM      3  N   UNL     1       3.084   6.277  18.565  0.00  0.00    +0.000 N 
ATOM      4  C   UNL     1       4.230   5.538  18.437  0.00  0.00    +0.000 C 
ATOM      5  O   UNL     1       4.858   5.119  19.402  0.00  0.00    +0.000 OA
ATOM      6  N   UNL     1       4.595   5.294  17.136  0.00  0.00    +0.000 N 
ATOM      7  H   UNL     1       2.967   7.010  17.873  0.00  0.00    +0.000 HD
ATOM      8  H   UNL     1       3.869   5.291  16.443  0.00  0.00    +0.000 HD
BRANCH   6   9
ATOM      9  C   UNL     1       5.810   4.506  16.892  0.00  0.00    +0.000 C 
ATOM     10  C   UNL     1       5.657   3.522  15.724  0.00  0.00    +0.000 C 
ATOM     11  C   UNL     1       5.752   4.225  14.377  0.00  0.00    +0.000 C 
ATOM     12  C   UNL     1       7.085   4.940  14.268  0.00  0.00    +0.000 C 
ATOM     13  N   UNL     1       7.353   5.786  15.407  0.00  0.00    +0.000 N 
ATOM     14  C   UNL     1       7.062   5.387  16.693  0.00  0.00    +0.000 C 
ATOM     15  O   UNL     1       7.727   5.840  17.625  0.00  0.00    +0.000 OA
ATOM     16  H   UNL     1       8.195   6.348  15.372  0.00  0.00    +0.000 HD
ENDBRANCH   6   9
ENDBRANCH   2   3
BRANCH   2  17
ATOM     17  C   UNL     1       1.868   7.850  19.924  0.00  0.00    +0.000 A 
ATOM     18  C   UNL     1       1.162   8.417  21.012  0.00  0.00    +0.000 A 
ATOM     19  N   UNL     1       0.582   9.578  20.705  0.00  0.00    +0.000 NA
ATOM     20  N   UNL     1       0.941   9.786  19.422  0.00  0.00    +0.000 N 
ATOM     21  C   UNL     1       1.699   8.772  18.906  0.00  0.00    +0.000 A 
BRANCH  20  22
ATOM     22  C   UNL     1       0.439  10.949  18.703  0.00  0.00    +0.000 C 
BRANCH  22  23
ATOM     23  C   UNL     1      -1.029  10.834  18.370  0.00  0.00    +0.000 A 
ATOM     24  C   UNL     1      -1.963  11.702  18.960  0.00  0.00    +0.000 A 
ATOM     25  C   UNL     1      -3.314  11.627  18.614  0.00  0.00    +0.000 A 
ATOM     26  C   UNL     1      -3.746  10.693  17.673  0.00  0.00    +0.000 A 
ATOM     27  C   UNL     1      -2.830   9.829  17.081  0.00  0.00    +0.000 A 
ATOM     28  C   UNL     1      -1.479   9.897  17.426  0.00  0.00    +0.000 A 
ENDBRANCH  22  23
ENDBRANCH  20  22
ENDBRANCH   2  17
TORSDOF 5
ENDMDL
MODEL 2
REMARK VINA RESULT:      -8.0      4.191      6.294
REMARK  Name = 
REMARK  6 active torsions:
REMARK  status: ('A' for Active; 'I' for Inactive)
REMARK    1  A    between atoms: C_1  and  C_2
REMARK    2  A    between atoms: C_2  and  N_3
REMARK    3  A    between atoms: C_2  and  C_14
REMARK    4  A    between atoms: N_6  and  C_7
REMARK    5  A    between atoms: N_17  and  C_18
REMARK    6  A    between atoms: C_18  and  C_19
REMARK                            x       y       z     vdW  Elec       q    Type
REMARK                         _______ _______ _______ _____ _____    ______ ____
ROOT
ATOM      1  C   UNL     1       7.689   4.700  18.007  0.00  0.00    +0.000 C 
ATOM      2  C   UNL     1       6.805   5.209  16.869  0.00  0.00    +0.000 C 
ENDROOT
BRANCH   2   3
ATOM      3  N   UNL     1       6.503   4.145  15.920  0.00  0.00    +0.000 N 
ATOM      4  C   UNL     1       6.449   4.461  14.589  0.00  0.00    +0.000 C 
ATOM      5  O   UNL     1       6.615   5.602  14.173  0.00  0.00    +0.000 OA
ATOM      6  N   UNL     1       6.213   3.386  13.768  0.00  0.00    +0.000 N 
ATOM      7  H   UNL     1       5.847   3.431  16.218  0.00  0.00    +0.000 HD
ATOM      8  H   UNL     1       6.492   2.481  14.097  0.00  0.00    +0.000 HD
BRANCH   6   9
ATOM      9  C   UNL     1       6.139   3.622  12.319  0.00  0.00    +0.000 C 
ATOM     10  C   UNL     1       7.469   3.347  11.604  0.00  0.00    +0.000 C 
ATOM     11  C   UNL     1       7.717   1.855  11.425  0.00  0.00    +0.000 C 
ATOM     12  C   UNL     1       6.578   1.240  10.636  0.00  0.00    +0.000 C 
ATOM     13  N   UNL     1       5.283   1.573  11.182  0.00  0.00    +0.000 N 
ATOM     14  C   UNL     1       4.993   2.837  11.645  0.00  0.00    +0.000 C 
ATOM     15  O   UNL     1       3.828   3.233  11.615  0.00  0.00    +0.000 OA
ATOM     16  H   UNL     1       4.477   1.141  10.746  0.00  0.00    +0.000 HD
ENDBRANCH   6   9
ENDBRANCH   2   3
BRANCH   2  17
ATOM     17  C   UNL     1       5.534   5.812  17.364  0.00  0.00    +0.000 A 
ATOM     18  C   UNL     1       4.881   6.955  16.845  0.00  0.00    +0.000 A 
ATOM     19  N   UNL     1       3.787   7.284  17.533  0.00  0.00    +0.000 NA
ATOM     20  N   UNL     1       3.708   6.330  18.483  0.00  0.00    +0.000 N 
ATOM     21  C   UNL     1       4.740   5.435  18.431  0.00  0.00    +0.000 A 
BRANCH  20  22
ATOM     22  C   UNL     1       2.654   6.386  19.487  0.00  0.00    +0.000 C 
BRANCH  22  23
ATOM     23  C   UNL     1       2.141   5.016  19.863  0.00  0.00    +0.000 A 
ATOM     24  C   UNL     1       1.524   4.198  18.902  0.00  0.00    +0.000 A 
ATOM     25  C   UNL     1       1.094   2.913  19.239  0.00  0.00    +0.000 A 
ATOM     26  C   UNL     1       1.283   2.427  20.532  0.00  0.00    +0.000 A 
ATOM     27  C   UNL     1       1.895   3.227  21.493  0.00  0.00    +0.000 A 
ATOM     28  C   UNL     1       2.322   4.514  21.162  0.00  0.00    +0.000 A 
ENDBRANCH  22  23
ENDBRANCH  20  22
ENDBRANCH   2  17
TORSDOF 5
ENDMDL
MODEL 3
REMARK VINA RESULT:      -7.4      5.287      8.574
REMARK  Name = 
REMARK  6 active torsions:
REMARK  status: ('A' for Active; 'I' for Inactive)
REMARK    1  A    between atoms: C_1  and  C_2
REMARK    2  A    between atoms: C_2  and  N_3
REMARK    3  A    between atoms: C_2  and  C_14
REMARK    4  A    between atoms: N_6  and  C_7
REMARK    5  A    between atoms: N_17  and  C_18
REMARK    6  A    between atoms: C_18  and  C_19
REMARK                            x       y       z     vdW  Elec       q    Type
REMARK                         _______ _______ _______ _____ _____    ______ ____
ROOT
ATOM      1  C   UNL     1       7.748   4.578  17.256  0.00  0.00    +0.000 C 
ATOM      2  C   UNL     1       6.783   5.752  17.418  0.00  0.00    +0.000 C 
ENDROOT
BRANCH   2   3
ATOM      3  N   UNL     1       5.743   5.449  18.394  0.00  0.00    +0.000 N 
ATOM      4  C   UNL     1       4.866   4.436  18.112  0.00  0.00    +0.000 C 
ATOM      5  O   UNL     1       4.905   3.799  17.065  0.00  0.00    +0.000 OA
ATOM      6  N   UNL     1       3.958   4.188  19.111  0.00  0.00    +0.000 N 
ATOM      7  H   UNL     1       5.346   6.230  18.905  0.00  0.00    +0.000 HD
ATOM      8  H   UNL     1       4.223   4.429  20.049  0.00  0.00    +0.000 HD
BRANCH   6   9
ATOM      9  C   UNL     1       2.974   3.116  18.906  0.00  0.00    +0.000 C 
ATOM     10  C   UNL     1       2.990   2.070  20.029  0.00  0.00    +0.000 C 
ATOM     11  C   UNL     1       2.290   2.576  21.282  0.00  0.00    +0.000 C 
ATOM     12  C   UNL     1       0.856   2.945  20.951  0.00  0.00    +0.000 C 
ATOM     13  N   UNL     1       0.761   3.827  19.812  0.00  0.00    +0.000 N 
ATOM     14  C   UNL     1       1.543   3.654  18.691  0.00  0.00    +0.000 C 
ATOM     15  O   UNL     1       1.122   4.041  17.602  0.00  0.00    +0.000 OA
ATOM     16  H   UNL     1      -0.162   4.170  19.574  0.00  0.00    +0.000 HD
ENDBRANCH   6   9
ENDBRANCH   2   3
BRANCH   2  17
ATOM     17  C   UNL     1       7.480   7.011  17.807  0.00  0.00    +0.000 A 
ATOM     18  C   UNL     1       8.404   7.175  18.866  0.00  0.00    +0.000 A 
ATOM     19  N   UNL     1       8.821   8.435  19.001  0.00  0.00    +0.000 NA
ATOM     20  N   UNL     1       8.191   9.088  18.002  0.00  0.00    +0.000 N 
ATOM     21  C   UNL     1       7.366   8.280  17.270  0.00  0.00    +0.000 A 
BRANCH  20  22
ATOM     22  C   UNL     1       8.350  10.529  17.858  0.00  0.00    +0.000 C 
BRANCH  22  23
ATOM     23  C   UNL     1       9.560  11.053  18.592  0.00  0.00    +0.000 A 
ATOM     24  C   UNL     1      10.770  11.268  17.911  0.00  0.00    +0.000 A 
ATOM     25  C   UNL     1      11.874  11.799  18.581  0.00  0.00    +0.000 A 
ATOM     26  C   UNL     1      11.782  12.128  19.933  0.00  0.00    +0.000 A 
ATOM     27  C   UNL     1      10.589  11.921  20.619  0.00  0.00    +0.000 A 
ATOM     28  C   UNL     1       9.484  11.386  19.955  0.00  0.00    +0.000 A 
ENDBRANCH  22  23
ENDBRANCH  20  22
ENDBRANCH   2  17
TORSDOF 5
ENDMDL
MODEL 4
REMARK VINA RESULT:      -7.2      1.636      2.758
REMARK  Name = 
REMARK  6 active torsions:
REMARK  status: ('A' for Active; 'I' for Inactive)
REMARK    1  A    between atoms: C_1  and  C_2
REMARK    2  A    between atoms: C_2  and  N_3
REMARK    3  A    between atoms: C_2  and  C_14
REMARK    4  A    between atoms: N_6  and  C_7
REMARK    5  A    between atoms: N_17  and  C_18
REMARK    6  A    between atoms: C_18  and  C_19
REMARK                            x       y       z     vdW  Elec       q    Type
REMARK                         _______ _______ _______ _____ _____    ______ ____
ROOT
ATOM      1  C   UNL     1       1.483   5.544  20.225  0.00  0.00    +0.000 C 
ATOM      2  C   UNL     1       2.450   6.678  19.886  0.00  0.00    +0.000 C 
ENDROOT
BRANCH   2   3
ATOM      3  N   UNL     1       3.046   6.488  18.569  0.00  0.00    +0.000 N 
ATOM      4  C   UNL     1       4.141   5.673  18.465  0.00  0.00    +0.000 C 
ATOM      5  O   UNL     1       4.651   5.125  19.435  0.00  0.00    +0.000 OA
ATOM      6  N   UNL     1       4.598   5.512  17.181  0.00  0.00    +0.000 N 
ATOM      7  H   UNL     1       3.042   7.284  17.940  0.00  0.00    +0.000 HD
ATOM      8  H   UNL     1       3.936   5.626  16.435  0.00  0.00    +0.000 HD
BRANCH   6   9
ATOM      9  C   UNL     1       5.769   4.652  16.963  0.00  0.00    +0.000 C 
ATOM     10  C   UNL     1       5.564   3.644  15.824  0.00  0.00    +0.000 C 
ATOM     11  C   UNL     1       5.698   4.302  14.457  0.00  0.00    +0.000 C 
ATOM     12  C   UNL     1       7.068   4.940  14.331  0.00  0.00    +0.000 C 
ATOM     13  N   UNL     1       7.381   5.803  15.446  0.00  0.00    +0.000 N 
ATOM     14  C   UNL     1       7.067   5.458  16.742  0.00  0.00    +0.000 C 
ATOM     15  O   UNL     1       7.754   5.900  17.663  0.00  0.00    +0.000 OA
ATOM     16  H   UNL     1       8.253   6.317  15.397  0.00  0.00    +0.000 HD
ENDBRANCH   6   9
ENDBRANCH   2   3
BRANCH   2  17
ATOM     17  C   UNL     1       1.800   8.017  19.952  0.00  0.00    +0.000 A 
ATOM     18  C   UNL     1       1.300   8.661  21.109  0.00  0.00    +0.000 A 
ATOM     19  N   UNL     1       0.724   9.834  20.842  0.00  0.00    +0.000 NA
ATOM     20  N   UNL     1       0.881   9.971  19.509  0.00  0.00    +0.000 N 
ATOM     21  C   UNL     1       1.506   8.902  18.930  0.00  0.00    +0.000 A 
BRANCH  20  22
ATOM     22  C   UNL     1       0.316  11.125  18.823  0.00  0.00    +0.000 C 
BRANCH  22  23
ATOM     23  C   UNL     1       1.180  12.356  18.955  0.00  0.00    +0.000 A 
ATOM     24  C   UNL     1       0.865  13.350  19.896  0.00  0.00    +0.000 A 
ATOM     25  C   UNL     1       1.692  14.464  20.051  0.00  0.00    +0.000 A 
ATOM     26  C   UNL     1       2.844  14.595  19.279  0.00  0.00    +0.000 A 
ATOM     27  C   UNL     1       3.169  13.616  18.344  0.00  0.00    +0.000 A 
ATOM     28  C   UNL     1       2.343  12.503  18.181  0.00  0.00    +0.000 A 
ENDBRANCH  22  23
ENDBRANCH  20  22
ENDBRANCH   2  17
TORSDOF 5
ENDMDL
MODEL 5
REMARK VINA RESULT:      -7.2      0.738      1.148
REMARK  Name = 
REMARK  6 active torsions:
REMARK  status: ('A' for Active; 'I' for Inactive)
REMARK    1  A    between atoms: C_1  and  C_2
REMARK    2  A    between atoms: C_2  and  N_3
REMARK    3  A    between atoms: C_2  and  C_14
REMARK    4  A    between atoms: N_6  and  C_7
REMARK    5  A    between atoms: N_17  and  C_18
REMARK    6  A    between atoms: C_18  and  C_19
REMARK                            x       y       z     vdW  Elec       q    Type
REMARK                         _______ _______ _______ _____ _____    ______ ____
ROOT
ATOM      1  C   UNL     1       1.640   5.614  20.241  0.00  0.00    +0.000 C 
ATOM      2  C   UNL     1       2.564   6.667  19.630  0.00  0.00    +0.000 C 
ENDROOT
BRANCH   2   3
ATOM      3  N   UNL     1       3.049   6.247  18.320  0.00  0.00    +0.000 N 
ATOM      4  C   UNL     1       4.239   5.573  18.255  0.00  0.00    +0.000 C 
ATOM      5  O   UNL     1       4.920   5.337  19.246  0.00  0.00    +0.000 OA
ATOM      6  N   UNL     1       4.586   5.172  16.989  0.00  0.00    +0.000 N 
ATOM      7  H   UNL     1       2.863   6.866  17.538  0.00  0.00    +0.000 HD
ATOM      8  H   UNL     1       3.844   5.024  16.329  0.00  0.00    +0.000 HD
BRANCH   6   9
ATOM      9  C   UNL     1       5.846   4.437  16.814  0.00  0.00    +0.000 C 
ATOM     10  C   UNL     1       5.780   3.403  15.682  0.00  0.00    +0.000 C 
ATOM     11  C   UNL     1       5.884   4.059  14.311  0.00  0.00    +0.000 C 
ATOM     12  C   UNL     1       7.183   4.836  14.216  0.00  0.00    +0.000 C 
ATOM     13  N   UNL     1       7.372   5.736  15.329  0.00  0.00    +0.000 N 
ATOM     14  C   UNL     1       7.059   5.372  16.620  0.00  0.00    +0.000 C 
ATOM     15  O   UNL     1       7.669   5.893  17.553  0.00  0.00    +0.000 OA
ATOM     16  H   UNL     1       8.186   6.338  15.298  0.00  0.00    +0.000 HD
ENDBRANCH   6   9
ENDBRANCH   2   3
BRANCH   2  17
ATOM     17  C   UNL     1       1.909   8.000  19.515  0.00  0.00    +0.000 A 
ATOM     18  C   UNL     1       1.923   8.857  18.389  0.00  0.00    +0.000 A 
ATOM     19  N   UNL     1       1.289  10.011  18.608  0.00  0.00    +0.000 NA
ATOM     20  N   UNL     1       0.830   9.889  19.870  0.00  0.00    +0.000 N 
ATOM     21  C   UNL     1       1.188   8.709  20.459  0.00  0.00    +0.000 A 
BRANCH  20  22
ATOM     22  C   UNL     1       0.122  10.996  20.499  0.00  0.00    +0.000 C 
BRANCH  22  23
ATOM     23  C   UNL     1      -1.225  11.253  19.869  0.00  0.00    +0.000 A 
ATOM     24  C   UNL     1      -2.078  12.241  20.388  0.00  0.00    +0.000 A 
ATOM     25  C   UNL     1      -3.303  12.512  19.775  0.00  0.00    +0.000 A 
ATOM     26  C   UNL     1      -3.686  11.809  18.634  0.00  0.00    +0.000 A 
ATOM     27  C   UNL     1      -2.849  10.828  18.109  0.00  0.00    +0.000 A 
ATOM     28  C   UNL     1      -1.626  10.550  18.721  0.00  0.00    +0.000 A 
ENDBRANCH  22  23
ENDBRANCH  20  22
ENDBRANCH   2  17
TORSDOF 5
ENDMDL
MODEL 6
REMARK VINA RESULT:      -7.2      2.887      5.195
REMARK  Name = 
REMARK  6 active torsions:
REMARK  status: ('A' for Active; 'I' for Inactive)
REMARK    1  A    between atoms: C_1  and  C_2
REMARK    2  A    between atoms: C_2  and  N_3
REMARK    3  A    between atoms: C_2  and  C_14
REMARK    4  A    between atoms: N_6  and  C_7
REMARK    5  A    between atoms: N_17  and  C_18
REMARK    6  A    between atoms: C_18  and  C_19
REMARK                            x       y       z     vdW  Elec       q    Type
REMARK                         _______ _______ _______ _____ _____    ______ ____
ROOT
ATOM      1  C   UNL     1       7.559   4.675  18.052  0.00  0.00    +0.000 C 
ATOM      2  C   UNL     1       6.420   4.937  17.066  0.00  0.00    +0.000 C 
ENDROOT
BRANCH   2   3
ATOM      3  N   UNL     1       6.369   3.908  16.035  0.00  0.00    +0.000 N 
ATOM      4  C   UNL     1       6.268   4.305  14.728  0.00  0.00    +0.000 C 
ATOM      5  O   UNL     1       6.191   5.483  14.399  0.00  0.00    +0.000 OA
ATOM      6  N   UNL     1       6.281   3.269  13.827  0.00  0.00    +0.000 N 
ATOM      7  H   UNL     1       5.877   3.049  16.261  0.00  0.00    +0.000 HD
ATOM      8  H   UNL     1       6.743   2.422  14.100  0.00  0.00    +0.000 HD
BRANCH   6   9
ATOM      9  C   UNL     1       6.181   3.592  12.397  0.00  0.00    +0.000 C 
ATOM     10  C   UNL     1       7.488   3.334  11.635  0.00  0.00    +0.000 C 
ATOM     11  C   UNL     1       7.699   1.850  11.363  0.00  0.00    +0.000 C 
ATOM     12  C   UNL     1       6.529   1.308  10.565  0.00  0.00    +0.000 C 
ATOM     13  N   UNL     1       5.254   1.634  11.160  0.00  0.00    +0.000 N 
ATOM     14  C   UNL     1       5.003   2.874  11.704  0.00  0.00    +0.000 C 
ATOM     15  O   UNL     1       3.847   3.296  11.724  0.00  0.00    +0.000 OA
ATOM     16  H   UNL     1       4.430   1.246  10.718  0.00  0.00    +0.000 HD
ENDBRANCH   6   9
ENDBRANCH   2   3
BRANCH   2  17
ATOM     17  C   UNL     1       5.095   5.033  17.742  0.00  0.00    +0.000 A 
ATOM     18  C   UNL     1       3.902   4.370  17.366  0.00  0.00    +0.000 A 
ATOM     19  N   UNL     1       2.863   4.697  18.135  0.00  0.00    +0.000 NA
ATOM     20  N   UNL     1       3.389   5.549  19.038  0.00  0.00    +0.000 N 
ATOM     21  C   UNL     1       4.719   5.792  18.834  0.00  0.00    +0.000 A 
BRANCH  20  22
ATOM     22  C   UNL     1       2.531   6.182  20.031  0.00  0.00    +0.000 C 
BRANCH  22  23
ATOM     23  C   UNL     1       2.019   7.528  19.579  0.00  0.00    +0.000 A 
ATOM     24  C   UNL     1       1.367   8.383  20.483  0.00  0.00    +0.000 A 
ATOM     25  C   UNL     1       0.938   9.648  20.076  0.00  0.00    +0.000 A 
ATOM     26  C   UNL     1       1.161  10.077  18.768  0.00  0.00    +0.000 A 
ATOM     27  C   UNL     1       1.808   9.239  17.863  0.00  0.00    +0.000 A 
ATOM     28  C   UNL     1       2.235   7.973  18.264  0.00  0.00    +0.000 A 
ENDBRANCH  22  23
ENDBRANCH  20  22
ENDBRANCH   2  17
TORSDOF 5
ENDMDL
MODEL 7
REMARK VINA RESULT:      -7.1      0.776      1.454
REMARK  Name = 
REMARK  6 active torsions:
REMARK  status: ('A' for Active; 'I' for Inactive)
REMARK    1  A    between atoms: C_1  and  C_2
REMARK    2  A    between atoms: C_2  and  N_3
REMARK    3  A    between atoms: C_2  and  C_14
REMARK    4  A    between atoms: N_6  and  C_7
REMARK    5  A    between atoms: N_17  and  C_18
REMARK    6  A    between atoms: C_18  and  C_19
REMARK                            x       y       z     vdW  Elec       q    Type
REMARK                         _______ _______ _______ _____ _____    ______ ____
ROOT
ATOM      1  C   UNL     1       1.578   5.269  20.358  0.00  0.00    +0.000 C 
ATOM      2  C   UNL     1       2.546   6.343  19.862  0.00  0.00    +0.000 C 
ENDROOT
BRANCH   2   3
ATOM      3  N   UNL     1       3.034   6.036  18.523  0.00  0.00    +0.000 N 
ATOM      4  C   UNL     1       4.235   5.389  18.404  0.00  0.00    +0.000 C 
ATOM      5  O   UNL     1       4.922   5.087  19.373  0.00  0.00    +0.000 OA
ATOM      6  N   UNL     1       4.585   5.094  17.110  0.00  0.00    +0.000 N 
ATOM      7  H   UNL     1       2.836   6.711  17.792  0.00  0.00    +0.000 HD
ATOM      8  H   UNL     1       3.845   4.987  16.442  0.00  0.00    +0.000 HD
BRANCH   6   9
ATOM      9  C   UNL     1       5.857   4.397  16.876  0.00  0.00    +0.000 C 
ATOM     10  C   UNL     1       5.791   3.418  15.696  0.00  0.00    +0.000 C 
ATOM     11  C   UNL     1       5.855   4.141  14.358  0.00  0.00    +0.000 C 
ATOM     12  C   UNL     1       7.136   4.951  14.277  0.00  0.00    +0.000 C 
ATOM     13  N   UNL     1       7.327   5.800  15.429  0.00  0.00    +0.000 N 
ATOM     14  C   UNL     1       7.046   5.367  16.706  0.00  0.00    +0.000 C 
ATOM     15  O   UNL     1       7.663   5.855  17.653  0.00  0.00    +0.000 OA
ATOM     16  H   UNL     1       8.127   6.421  15.412  0.00  0.00    +0.000 HD
ENDBRANCH   6   9
ENDBRANCH   2   3
BRANCH   2  17
ATOM     17  C   UNL     1       1.937   7.703  19.872  0.00  0.00    +0.000 A 
ATOM     18  C   UNL     1       1.213   8.300  20.931  0.00  0.00    +0.000 A 
ATOM     19  N   UNL     1       0.746   9.511  20.623  0.00  0.00    +0.000 NA
ATOM     20  N   UNL     1       1.198   9.718  19.369  0.00  0.00    +0.000 N 
ATOM     21  C   UNL     1       1.904   8.658  18.872  0.00  0.00    +0.000 A 
BRANCH  20  22
ATOM     22  C   UNL     1       0.835  10.933  18.653  0.00  0.00    +0.000 C 
BRANCH  22  23
ATOM     23  C   UNL     1      -0.456  11.535  19.155  0.00  0.00    +0.000 A 
ATOM     24  C   UNL     1      -1.670  11.263  18.501  0.00  0.00    +0.000 A 
ATOM     25  C   UNL     1      -2.870  11.780  18.995  0.00  0.00    +0.000 A 
ATOM     26  C   UNL     1      -2.874  12.564  20.147  0.00  0.00    +0.000 A 
ATOM     27  C   UNL     1      -1.678  12.839  20.805  0.00  0.00    +0.000 A 
ATOM     28  C   UNL     1      -0.476  12.329  20.313  0.00  0.00    +0.000 A 
ENDBRANCH  22  23
ENDBRANCH  20  22
ENDBRANCH   2  17
TORSDOF 5
ENDMDL
MODEL 8
REMARK VINA RESULT:      -7.1      4.724      8.391
REMARK  Name = 
REMARK  6 active torsions:
REMARK  status: ('A' for Active; 'I' for Inactive)
REMARK    1  A    between atoms: C_1  and  C_2
REMARK    2  A    between atoms: C_2  and  N_3
REMARK    3  A    between atoms: C_2  and  C_14
REMARK    4  A    between atoms: N_6  and  C_7
REMARK    5  A    between atoms: N_17  and  C_18
REMARK    6  A    between atoms: C_18  and  C_19
REMARK                            x       y       z     vdW  Elec       q    Type
REMARK                         _______ _______ _______ _____ _____    ______ ____
ROOT
ATOM      1  C   UNL     1       7.651   4.512  17.325  0.00  0.00    +0.000 C 
ATOM      2  C   UNL     1       6.843   5.761  16.970  0.00  0.00    +0.000 C 
ENDROOT
BRANCH   2   3
ATOM      3  N   UNL     1       5.461   5.641  17.419  0.00  0.00    +0.000 N 
ATOM      4  C   UNL     1       5.220   5.014  18.612  0.00  0.00    +0.000 C 
ATOM      5  O   UNL     1       6.113   4.528  19.296  0.00  0.00    +0.000 OA
ATOM      6  N   UNL     1       3.897   4.996  18.977  0.00  0.00    +0.000 N 
ATOM      7  H   UNL     1       4.754   5.493  16.706  0.00  0.00    +0.000 HD
ATOM      8  H   UNL     1       3.308   5.727  18.621  0.00  0.00    +0.000 HD
BRANCH   6   9
ATOM      9  C   UNL     1       3.534   4.348  20.245  0.00  0.00    +0.000 C 
ATOM     10  C   UNL     1       2.254   4.924  20.863  0.00  0.00    +0.000 C 
ATOM     11  C   UNL     1       1.005   4.413  20.158  0.00  0.00    +0.000 C 
ATOM     12  C   UNL     1       0.966   2.898  20.226  0.00  0.00    +0.000 C 
ATOM     13  N   UNL     1       2.199   2.292  19.781  0.00  0.00    +0.000 N 
ATOM     14  C   UNL     1       3.429   2.813  20.120  0.00  0.00    +0.000 C 
ATOM     15  O   UNL     1       4.399   2.059  20.189  0.00  0.00    +0.000 OA
ATOM     16  H   UNL     1       2.222   1.281  19.735  0.00  0.00    +0.000 HD
ENDBRANCH   6   9
ENDBRANCH   2   3
BRANCH   2  17
ATOM     17  C   UNL     1       7.444   7.004  17.532  0.00  0.00    +0.000 A 
ATOM     18  C   UNL     1       8.325   7.095  18.636  0.00  0.00    +0.000 A 
ATOM     19  N   UNL     1       8.653   8.353  18.935  0.00  0.00    +0.000 NA
ATOM     20  N   UNL     1       8.010   9.082  18.000  0.00  0.00    +0.000 N 
ATOM     21  C   UNL     1       7.262   8.320  17.147  0.00  0.00    +0.000 A 
BRANCH  20  22
ATOM     22  C   UNL     1       8.077  10.537  18.034  0.00  0.00    +0.000 C 
BRANCH  22  23
ATOM     23  C   UNL     1       9.371  11.041  18.626  0.00  0.00    +0.000 A 
ATOM     24  C   UNL     1       9.478  11.281  20.006  0.00  0.00    +0.000 A 
ATOM     25  C   UNL     1      10.689  11.701  20.559  0.00  0.00    +0.000 A 
ATOM     26  C   UNL     1      11.808  11.877  19.746  0.00  0.00    +0.000 A 
ATOM     27  C   UNL     1      11.715  11.641  18.377  0.00  0.00    +0.000 A 
ATOM     28  C   UNL     1      10.505  11.227  17.818  0.00  0.00    +0.000 A 
ENDBRANCH  22  23
ENDBRANCH  20  22
ENDBRANCH   2  17
TORSDOF 5
ENDMDL
MODEL 9
REMARK VINA RESULT:      -7.0      1.755      2.732
REMARK  Name = 
REMARK  6 active torsions:
REMARK  status: ('A' for Active; 'I' for Inactive)
REMARK    1  A    between atoms: C_1  and  C_2
REMARK    2  A    between atoms: C_2  and  N_3
REMARK    3  A    between atoms: C_2  and  C_14
REMARK    4  A    between atoms: N_6  and  C_7
REMARK    5  A    between atoms: N_17  and  C_18
REMARK    6  A    between atoms: C_18  and  C_19
REMARK                            x       y       z     vdW  Elec       q    Type
REMARK                         _______ _______ _______ _____ _____    ______ ____
ROOT
ATOM      1  C   UNL     1       1.842   5.965  20.228  0.00  0.00    +0.000 C 
ATOM      2  C   UNL     1       2.622   7.061  19.501  0.00  0.00    +0.000 C 
ENDROOT
BRANCH   2   3
ATOM      3  N   UNL     1       3.118   6.589  18.214  0.00  0.00    +0.000 N 
ATOM      4  C   UNL     1       4.268   5.846  18.196  0.00  0.00    +0.000 C 
ATOM      5  O   UNL     1       4.904   5.588  19.211  0.00  0.00    +0.000 OA
ATOM      6  N   UNL     1       4.627   5.402  16.947  0.00  0.00    +0.000 N 
ATOM      7  H   UNL     1       2.993   7.204  17.416  0.00  0.00    +0.000 HD
ATOM      8  H   UNL     1       3.897   5.286  16.268  0.00  0.00    +0.000 HD
BRANCH   6   9
ATOM      9  C   UNL     1       5.846   4.591  16.823  0.00  0.00    +0.000 C 
ATOM     10  C   UNL     1       5.733   3.508  15.741  0.00  0.00    +0.000 C 
ATOM     11  C   UNL     1       5.886   4.089  14.342  0.00  0.00    +0.000 C 
ATOM     12  C   UNL     1       7.227   4.788  14.224  0.00  0.00    +0.000 C 
ATOM     13  N   UNL     1       7.455   5.731  15.294  0.00  0.00    +0.000 N 
ATOM     14  C   UNL     1       7.111   5.448  16.597  0.00  0.00    +0.000 C 
ATOM     15  O   UNL     1       7.740   5.979  17.512  0.00  0.00    +0.000 OA
ATOM     16  H   UNL     1       8.302   6.285  15.243  0.00  0.00    +0.000 HD
ENDBRANCH   6   9
ENDBRANCH   2   3
BRANCH   2  17
ATOM     17  C   UNL     1       1.812   8.296  19.301  0.00  0.00    +0.000 A 
ATOM     18  C   UNL     1       1.596   8.979  18.081  0.00  0.00    +0.000 A 
ATOM     19  N   UNL     1       0.868  10.087  18.229  0.00  0.00    +0.000 NA
ATOM     20  N   UNL     1       0.580  10.107  19.547  0.00  0.00    +0.000 N 
ATOM     21  C   UNL     1       1.136   9.063  20.232  0.00  0.00    +0.000 A 
BRANCH  20  22
ATOM     22  C   UNL     1      -0.166  11.222  20.114  0.00  0.00    +0.000 C 
BRANCH  22  23
ATOM     23  C   UNL     1       0.420  12.561  19.736  0.00  0.00    +0.000 A 
ATOM     24  C   UNL     1       1.794  12.806  19.890  0.00  0.00    +0.000 A 
ATOM     25  C   UNL     1       2.343  14.028  19.494  0.00  0.00    +0.000 A 
ATOM     26  C   UNL     1       1.531  15.013  18.935  0.00  0.00    +0.000 A 
ATOM     27  C   UNL     1       0.167  14.781  18.776  0.00  0.00    +0.000 A 
ATOM     28  C   UNL     1      -0.387  13.564  19.174  0.00  0.00    +0.000 A 
ENDBRANCH  22  23
ENDBRANCH  20  22
ENDBRANCH   2  17
TORSDOF 5
ENDMDL
