MODEL 1
REMARK VINA RESULT:      -7.0      0.000      0.000
REMARK  Name = 
REMARK  6 active torsions:
REMARK  status: ('A' for Active; 'I' for Inactive)
REMARK    1  A    between atoms: C_1  and  O_2
REMARK    2  A    between atoms: O_2  and  C_3
REMARK    3  A    between atoms: C_3  and  C_4
REMARK    4  A    between atoms: C_4  and  N_5
REMARK    5  A    between atoms: N_12  and  C_13
REMARK    6  A    between atoms: C_13  and  C_14
REMARK                            x       y       z     vdW  Elec       q    Type
REMARK                         _______ _______ _______ _____ _____    ______ ____
ROOT
ATOM      1  N   UNL     1       7.207   6.978  18.266  0.00  0.00    +0.000 NA
ATOM      2  C   UNL     1       7.489   5.666  18.872  0.00  0.00    +0.000 C 
ATOM      3  C   UNL     1       6.690   4.513  18.235  0.00  0.00    +0.000 C 
ATOM      4  C   UNL     1       7.049   4.383  16.748  0.00  0.00    +0.000 C 
ATOM      5  C   UNL     1       7.262   5.743  16.100  0.00  0.00    +0.000 C 
ATOM      6  C   UNL     1       6.618   6.864  16.917  0.00  0.00    +0.000 C 
ATOM      7  C   UNL     1       5.073   6.697  17.003  0.00  0.00    +0.000 C 
ATOM      8  N   UNL     1       4.534   5.921  18.124  0.00  0.00    +0.000 NA
ATOM      9  C   UNL     1       5.167   4.650  18.446  0.00  0.00    +0.000 C 
ENDROOT
BRANCH   1  10
ATOM     10  C   UNL     1       8.342   7.901  18.390  0.00  0.00    +0.000 C 
BRANCH  10  11
ATOM     11  C   UNL     1       8.023   9.321  17.891  0.00  0.00    +0.000 C 
BRANCH  11  13
ATOM     12  C   UNL     1       9.346  10.384  19.491  0.00  0.00    +0.000 C 
ATOM     13  O   UNL     1       9.128  10.204  18.093  0.00  0.00    +0.000 OA
ENDBRANCH  11  13
ENDBRANCH  10  11
ENDBRANCH   1  10
BRANCH   8  14
ATOM     14  C   UNL     1       3.059   5.890  18.128  0.00  0.00    +0.000 C 
BRANCH  14  15
ATOM     15  C   UNL     1       2.367   7.165  18.593  0.00  0.00    +0.000 A 
ATOM     16  C   UNL     1       2.154   8.215  17.708  0.00  0.00    +0.000 A 
ATOM     17  C   UNL     1       1.589   9.392  18.187  0.00  0.00    +0.000 A 
ATOM     18  C   UNL     1       1.235   9.495  19.537  0.00  0.00    +0.000 A 
ATOM     19  C   UNL     1       0.671  10.670  20.062  0.00  0.00    +0.000 A 
ATOM     20  C   UNL     1       0.337  10.744  21.413  0.00  0.00    +0.000 A 
ATOM     21  C   UNL     1       0.575   9.654  22.242  0.00  0.00    +0.000 A 
ATOM     22  C   UNL     1       1.141   8.490  21.714  0.00  0.00    +0.000 A 
ATOM     23  C   UNL     1       1.476   8.382  20.369  0.00  0.00    +0.000 A 
ATOM     24  N   UNL     1       2.022   7.246  19.907  0.00  0.00    +0.000 NA
ENDBRANCH  14  15
ENDBRANCH   8  14
TORSDOF 5
ENDMDL
MODEL 2
REMARK VINA RESULT:      -6.9      3.578      4.831
REMARK  Name = 
REMARK  6 active torsions:
REMARK  status: ('A' for Active; 'I' for Inactive)
REMARK    1  A    between atoms: C_1  and  O_2
REMARK    2  A    between atoms: O_2  and  C_3
REMARK    3  A    between atoms: C_3  and  C_4
REMARK    4  A    between atoms: C_4  and  N_5
REMARK    5  A    between atoms: N_12  and  C_13
REMARK    6  A    between atoms: C_13  and  C_14
REMARK                            x       y       z     vdW  Elec       q    Type
REMARK                         _______ _______ _______ _____ _____    ______ ____
ROOT
ATOM      1  N   UNL     1       3.023   3.521  19.996  0.00  0.00    +0.000 NA
ATOM      2  C   UNL     1       1.765   3.202  19.300  0.00  0.00    +0.000 C 
ATOM      3  C   UNL     1       1.726   3.707  17.845  0.00  0.00    +0.000 C 
ATOM      4  C   UNL     1       2.845   3.046  17.028  0.00  0.00    +0.000 C 
ATOM      5  C   UNL     1       4.116   2.881  17.848  0.00  0.00    +0.000 C 
ATOM      6  C   UNL     1       4.130   3.810  19.062  0.00  0.00    +0.000 C 
ATOM      7  C   UNL     1       4.115   5.308  18.638  0.00  0.00    +0.000 C 
ATOM      8  N   UNL     1       2.811   5.957  18.480  0.00  0.00    +0.000 NA
ATOM      9  C   UNL     1       1.775   5.247  17.742  0.00  0.00    +0.000 C 
ENDROOT
BRANCH   1  10
ATOM     10  C   UNL     1       3.325   2.558  21.062  0.00  0.00    +0.000 C 
BRANCH  10  11
ATOM     11  C   UNL     1       4.409   1.540  20.669  0.00  0.00    +0.000 C 
BRANCH  11  13
ATOM     12  C   UNL     1       5.928   0.188  21.811  0.00  0.00    +0.000 C 
ATOM     13  O   UNL     1       5.481   1.528  21.614  0.00  0.00    +0.000 OA
ENDBRANCH  11  13
ENDBRANCH  10  11
ENDBRANCH   1  10
BRANCH   8  14
ATOM     14  C   UNL     1       2.933   7.388  18.140  0.00  0.00    +0.000 C 
BRANCH  14  15
ATOM     15  C   UNL     1       1.932   8.320  18.810  0.00  0.00    +0.000 A 
ATOM     16  C   UNL     1       1.262   9.286  18.069  0.00  0.00    +0.000 A 
ATOM     17  C   UNL     1       0.413  10.169  18.728  0.00  0.00    +0.000 A 
ATOM     18  C   UNL     1       0.240  10.064  20.114  0.00  0.00    +0.000 A 
ATOM     19  C   UNL     1      -0.599  10.943  20.818  0.00  0.00    +0.000 A 
ATOM     20  C   UNL     1      -0.745  10.818  22.199  0.00  0.00    +0.000 A 
ATOM     21  C   UNL     1      -0.045   9.827  22.877  0.00  0.00    +0.000 A 
ATOM     22  C   UNL     1       0.793   8.959  22.170  0.00  0.00    +0.000 A 
ATOM     23  C   UNL     1       0.951   9.052  20.793  0.00  0.00    +0.000 A 
ATOM     24  N   UNL     1       1.769   8.201  20.156  0.00  0.00    +0.000 NA
ENDBRANCH  14  15
ENDBRANCH   8  14
TORSDOF 5
ENDMDL
MODEL 3
REMARK VINA RESULT:      -6.8      2.482      3.926
REMARK  Name = 
REMARK  6 active torsions:
REMARK  status: ('A' for Active; 'I' for Inactive)
REMARK    1  A    between atoms: C_1  and  O_2
REMARK    2  A    between atoms: O_2  and  C_3
REMARK    3  A    between atoms: C_3  and  C_4
REMARK    4  A    between atoms: C_4  and  N_5
REMARK    5  A    between atoms: N_12  and  C_13
REMARK    6  A    between atoms: C_13  and  C_14
REMARK                            x       y       z     vdW  Elec       q    Type
REMARK                         _______ _______ _______ _____ _____    ______ ____
ROOT
ATOM      1  N   UNL     1       5.684   4.597  16.218  0.00  0.00    +0.000 NA
ATOM      2  C   UNL     1       5.953   5.997  15.852  0.00  0.00    +0.000 C 
ATOM      3  C   UNL     1       6.173   6.916  17.069  0.00  0.00    +0.000 C 
ATOM      4  C   UNL     1       7.393   6.443  17.872  0.00  0.00    +0.000 C 
ATOM      5  C   UNL     1       7.483   4.925  17.913  0.00  0.00    +0.000 C 
ATOM      6  C   UNL     1       6.141   4.270  17.584  0.00  0.00    +0.000 C 
ATOM      7  C   UNL     1       5.051   4.637  18.632  0.00  0.00    +0.000 C 
ATOM      8  N   UNL     1       4.238   5.831  18.379  0.00  0.00    +0.000 NA
ATOM      9  C   UNL     1       4.918   7.047  17.958  0.00  0.00    +0.000 C 
ENDROOT
BRANCH   1  10
ATOM     10  C   UNL     1       6.097   3.660  15.167  0.00  0.00    +0.000 C 
BRANCH  10  11
ATOM     11  C   UNL     1       5.697   4.121  13.754  0.00  0.00    +0.000 C 
BRANCH  11  13
ATOM     12  C   UNL     1       5.414   2.845  11.824  0.00  0.00    +0.000 C 
ATOM     13  O   UNL     1       6.369   3.362  12.748  0.00  0.00    +0.000 OA
ENDBRANCH  11  13
ENDBRANCH  10  11
ENDBRANCH   1  10
BRANCH   8  14
ATOM     14  C   UNL     1       3.201   6.033  19.410  0.00  0.00    +0.000 C 
BRANCH  14  15
ATOM     15  C   UNL     1       2.345   7.283  19.257  0.00  0.00    +0.000 A 
ATOM     16  C   UNL     1       2.176   7.875  18.011  0.00  0.00    +0.000 A 
ATOM     17  C   UNL     1       1.450   9.058  17.923  0.00  0.00    +0.000 A 
ATOM     18  C   UNL     1       0.896   9.622  19.077  0.00  0.00    +0.000 A 
ATOM     19  C   UNL     1       0.166  10.821  19.032  0.00  0.00    +0.000 A 
ATOM     20  C   UNL     1      -0.367  11.362  20.202  0.00  0.00    +0.000 A 
ATOM     21  C   UNL     1      -0.162  10.716  21.414  0.00  0.00    +0.000 A 
ATOM     22  C   UNL     1       0.571   9.526  21.453  0.00  0.00    +0.000 A 
ATOM     23  C   UNL     1       1.106   8.957  20.303  0.00  0.00    +0.000 A 
ATOM     24  N   UNL     1       1.807   7.815  20.388  0.00  0.00    +0.000 NA
ENDBRANCH  14  15
ENDBRANCH   8  14
TORSDOF 5
ENDMDL
MODEL 4
REMARK VINA RESULT:      -6.8      1.698      2.775
REMARK  Name = 
REMARK  6 active torsions:
REMARK  status: ('A' for Active; 'I' for Inactive)
REMARK    1  A    between atoms: C_1  and  O_2
REMARK    2  A    between atoms: O_2  and  C_3
REMARK    3  A    between atoms: C_3  and  C_4
REMARK    4  A    between atoms: C_4  and  N_5
REMARK    5  A    between atoms: N_12  and  C_13
REMARK    6  A    between atoms: C_13  and  C_14
REMARK                            x       y       z     vdW  Elec       q    Type
REMARK                         _______ _______ _______ _____ _____    ______ ____
ROOT
ATOM      1  N   UNL     1       5.113   5.447  18.777  0.00  0.00    +0.000 NA
ATOM      2  C   UNL     1       4.017   4.800  19.518  0.00  0.00    +0.000 C 
ATOM      3  C   UNL     1       2.673   4.821  18.764  0.00  0.00    +0.000 C 
ATOM      4  C   UNL     1       2.801   4.058  17.438  0.00  0.00    +0.000 C 
ATOM      5  C   UNL     1       4.157   4.288  16.787  0.00  0.00    +0.000 C 
ATOM      6  C   UNL     1       4.839   5.545  17.330  0.00  0.00    +0.000 C 
ATOM      7  C   UNL     1       4.015   6.827  17.011  0.00  0.00    +0.000 C 
ATOM      8  N   UNL     1       3.016   7.256  17.994  0.00  0.00    +0.000 NA
ATOM      9  C   UNL     1       2.126   6.249  18.553  0.00  0.00    +0.000 C 
ENDROOT
BRANCH   1  10
ATOM     10  C   UNL     1       6.426   4.900  19.141  0.00  0.00    +0.000 C 
BRANCH  10  11
ATOM     11  C   UNL     1       7.547   5.954  19.118  0.00  0.00    +0.000 C 
BRANCH  11  13
ATOM     12  C   UNL     1       8.028   7.929  17.976  0.00  0.00    +0.000 C 
ATOM     13  O   UNL     1       7.668   6.557  17.829  0.00  0.00    +0.000 OA
ENDBRANCH  11  13
ENDBRANCH  10  11
ENDBRANCH   1  10
BRANCH   8  14
ATOM     14  C   UNL     1       2.352   8.516  17.607  0.00  0.00    +0.000 C 
BRANCH  14  15
ATOM     15  C   UNL     1       1.407   9.116  18.639  0.00  0.00    +0.000 A 
ATOM     16  C   UNL     1       0.462  10.063  18.264  0.00  0.00    +0.000 A 
ATOM     17  C   UNL     1      -0.332  10.645  19.246  0.00  0.00    +0.000 A 
ATOM     18  C   UNL     1      -0.177  10.262  20.584  0.00  0.00    +0.000 A 
ATOM     19  C   UNL     1      -0.951  10.833  21.607  0.00  0.00    +0.000 A 
ATOM     20  C   UNL     1      -0.767  10.436  22.931  0.00  0.00    +0.000 A 
ATOM     21  C   UNL     1       0.195   9.481  23.235  0.00  0.00    +0.000 A 
ATOM     22  C   UNL     1       0.966   8.920  22.212  0.00  0.00    +0.000 A 
ATOM     23  C   UNL     1       0.800   9.288  20.882  0.00  0.00    +0.000 A 
ATOM     24  N   UNL     1       1.565   8.727  19.933  0.00  0.00    +0.000 NA
ENDBRANCH  14  15
ENDBRANCH   8  14
TORSDOF 5
ENDMDL
MODEL 5
REMARK VINA RESULT:      -6.8      4.434      8.049
REMARK  Name = 
REMARK  6 active torsions:
REMARK  status: ('A' for Active; 'I' for Inactive)
REMARK    1  A    between atoms: C_1  and  O_2
REMARK    2  A    between atoms: O_2  and  C_3
REMARK    3  A    between atoms: C_3  and  C_4
REMARK    4  A    between atoms: C_4  and  N_5
REMARK    5  A    between atoms: N_12  and  C_13
REMARK    6  A    between atoms: C_13  and  C_14
REMARK                            x       y       z     vdW  Elec       q    Type
REMARK                         _______ _______ _______ _____ _____    ______ ____
ROOT
ATOM      1  N   UNL     1      -1.316  10.633  19.105  0.00  0.00    +0.000 NA
ATOM      2  C   UNL     1      -1.547  11.371  20.358  0.00  0.00    +0.000 C 
ATOM      3  C   UNL     1      -0.249  11.726  21.108  0.00  0.00    +0.000 C 
ATOM      4  C   UNL     1       0.633  12.630  20.235  0.00  0.00    +0.000 C 
ATOM      5  C   UNL     1       0.568  12.231  18.768  0.00  0.00    +0.000 C 
ATOM      6  C   UNL     1       0.059  10.800  18.594  0.00  0.00    +0.000 C 
ATOM      7  C   UNL     1       1.020   9.766  19.250  0.00  0.00    +0.000 C 
ATOM      8  N   UNL     1       0.779   9.407  20.651  0.00  0.00    +0.000 NA
ATOM      9  C   UNL     1       0.519  10.480  21.600  0.00  0.00    +0.000 C 
ENDROOT
BRANCH   1  10
ATOM     10  C   UNL     1      -2.389  10.849  18.127  0.00  0.00    +0.000 C 
BRANCH  10  11
ATOM     11  C   UNL     1      -2.144  10.129  16.790  0.00  0.00    +0.000 C 
BRANCH  11  13
ATOM     12  C   UNL     1      -3.123  10.122  14.674  0.00  0.00    +0.000 C 
ATOM     13  O   UNL     1      -2.534  10.942  15.682  0.00  0.00    +0.000 OA
ENDBRANCH  11  13
ENDBRANCH  10  11
ENDBRANCH   1  10
BRANCH   8  14
ATOM     14  C   UNL     1       1.715   8.373  21.135  0.00  0.00    +0.000 C 
BRANCH  14  15
ATOM     15  C   UNL     1       1.903   7.166  20.227  0.00  0.00    +0.000 A 
ATOM     16  C   UNL     1       2.455   7.315  18.961  0.00  0.00    +0.000 A 
ATOM     17  C   UNL     1       2.541   6.203  18.130  0.00  0.00    +0.000 A 
ATOM     18  C   UNL     1       2.084   4.960  18.583  0.00  0.00    +0.000 A 
ATOM     19  C   UNL     1       2.143   3.815  17.771  0.00  0.00    +0.000 A 
ATOM     20  C   UNL     1       1.673   2.592  18.249  0.00  0.00    +0.000 A 
ATOM     21  C   UNL     1       1.134   2.514  19.527  0.00  0.00    +0.000 A 
ATOM     22  C   UNL     1       1.073   3.659  20.328  0.00  0.00    +0.000 A 
ATOM     23  C   UNL     1       1.543   4.889  19.884  0.00  0.00    +0.000 A 
ATOM     24  N   UNL     1       1.461   5.963  20.685  0.00  0.00    +0.000 NA
ENDBRANCH  14  15
ENDBRANCH   8  14
TORSDOF 5
ENDMDL
MODEL 6
REMARK VINA RESULT:      -6.7      0.944      1.658
REMARK  Name = 
REMARK  6 active torsions:
REMARK  status: ('A' for Active; 'I' for Inactive)
REMARK    1  A    between atoms: C_1  and  O_2
REMARK    2  A    between atoms: O_2  and  C_3
REMARK    3  A    between atoms: C_3  and  C_4
REMARK    4  A    between atoms: C_4  and  N_5
REMARK    5  A    between atoms: N_12  and  C_13
REMARK    6  A    between atoms: C_13  and  C_14
REMARK                            x       y       z     vdW  Elec       q    Type
REMARK                         _______ _______ _______ _____ _____    ______ ____
ROOT
ATOM      1  N   UNL     1       6.832   6.781  18.179  0.00  0.00    +0.000 NA
ATOM      2  C   UNL     1       6.788   5.518  18.934  0.00  0.00    +0.000 C 
ATOM      3  C   UNL     1       5.764   4.509  18.380  0.00  0.00    +0.000 C 
ATOM      4  C   UNL     1       6.126   4.131  16.937  0.00  0.00    +0.000 C 
ATOM      5  C   UNL     1       6.664   5.325  16.162  0.00  0.00    +0.000 C 
ATOM      6  C   UNL     1       6.272   6.648  16.819  0.00  0.00    +0.000 C 
ATOM      7  C   UNL     1       4.727   6.844  16.838  0.00  0.00    +0.000 C 
ATOM      8  N   UNL     1       3.993   6.343  18.004  0.00  0.00    +0.000 NA
ATOM      9  C   UNL     1       4.307   5.008  18.493  0.00  0.00    +0.000 C 
ENDROOT
BRANCH   1  10
ATOM     10  C   UNL     1       8.144   7.433  18.266  0.00  0.00    +0.000 C 
BRANCH  10  11
ATOM     11  C   UNL     1       8.096   8.936  17.938  0.00  0.00    +0.000 C 
BRANCH  11  13
ATOM     12  C   UNL     1       9.281  10.921  18.241  0.00  0.00    +0.000 C 
ATOM     13  O   UNL     1       8.887   9.695  18.854  0.00  0.00    +0.000 OA
ENDBRANCH  11  13
ENDBRANCH  10  11
ENDBRANCH   1  10
BRANCH   8  14
ATOM     14  C   UNL     1       2.550   6.646  17.932  0.00  0.00    +0.000 C 
BRANCH  14  15
ATOM     15  C   UNL     1       2.025   7.640  18.960  0.00  0.00    +0.000 A 
ATOM     16  C   UNL     1       1.892   7.271  20.293  0.00  0.00    +0.000 A 
ATOM     17  C   UNL     1       1.337   8.180  21.188  0.00  0.00    +0.000 A 
ATOM     18  C   UNL     1       0.936   9.443  20.738  0.00  0.00    +0.000 A 
ATOM     19  C   UNL     1       0.362  10.385  21.608  0.00  0.00    +0.000 A 
ATOM     20  C   UNL     1      -0.033  11.633  21.128  0.00  0.00    +0.000 A 
ATOM     21  C   UNL     1       0.131  11.936  19.782  0.00  0.00    +0.000 A 
ATOM     22  C   UNL     1       0.699  10.992  18.921  0.00  0.00    +0.000 A 
ATOM     23  C   UNL     1       1.112   9.744  19.371  0.00  0.00    +0.000 A 
ATOM     24  N   UNL     1       1.648   8.866  18.508  0.00  0.00    +0.000 NA
ENDBRANCH  14  15
ENDBRANCH   8  14
TORSDOF 5
ENDMDL
MODEL 7
REMARK VINA RESULT:      -6.6      2.081      3.295
REMARK  Name = 
REMARK  6 active torsions:
REMARK  status: ('A' for Active; 'I' for Inactive)
REMARK    1  A    between atoms: C_1  and  O_2
REMARK    2  A    between atoms: O_2  and  C_3
REMARK    3  A    between atoms: C_3  and  C_4
REMARK    4  A    between atoms: C_4  and  N_5
REMARK    5  A    between atoms: N_12  and  C_13
REMARK    6  A    between atoms: C_13  and  C_14
REMARK                            x       y       z     vdW  Elec       q    Type
REMARK                         _______ _______ _______ _____ _____    ______ ____
ROOT
ATOM      1  N   UNL     1       4.616   4.626  17.323  0.00  0.00    +0.000 NA
ATOM      2  C   UNL     1       5.344   4.000  18.440  0.00  0.00    +0.000 C 
ATOM      3  C   UNL     1       4.418   3.420  19.526  0.00  0.00    +0.000 C 
ATOM      4  C   UNL     1       3.529   2.321  18.927  0.00  0.00    +0.000 C 
ATOM      5  C   UNL     1       3.086   2.665  17.513  0.00  0.00    +0.000 C 
ATOM      6  C   UNL     1       3.217   4.162  17.229  0.00  0.00    +0.000 C 
ATOM      7  C   UNL     1       2.294   5.005  18.157  0.00  0.00    +0.000 C 
ATOM      8  N   UNL     1       2.848   5.461  19.435  0.00  0.00    +0.000 NA
ATOM      9  C   UNL     1       3.585   4.502  20.245  0.00  0.00    +0.000 C 
ENDROOT
BRANCH   1  10
ATOM     10  C   UNL     1       5.383   4.592  16.073  0.00  0.00    +0.000 C 
BRANCH  10  11
ATOM     11  C   UNL     1       6.903   4.681  16.294  0.00  0.00    +0.000 C 
BRANCH  11  13
ATOM     12  C   UNL     1       7.376   6.774  17.207  0.00  0.00    +0.000 C 
ATOM     13  O   UNL     1       7.394   5.994  16.014  0.00  0.00    +0.000 OA
ENDBRANCH  11  13
ENDBRANCH  10  11
ENDBRANCH   1  10
BRANCH   8  14
ATOM     14  C   UNL     1       1.899   6.301  20.191  0.00  0.00    +0.000 C 
BRANCH  14  15
ATOM     15  C   UNL     1       1.713   7.724  19.678  0.00  0.00    +0.000 A 
ATOM     16  C   UNL     1       2.200   8.093  18.430  0.00  0.00    +0.000 A 
ATOM     17  C   UNL     1       2.079   9.418  18.028  0.00  0.00    +0.000 A 
ATOM     18  C   UNL     1       1.465  10.349  18.874  0.00  0.00    +0.000 A 
ATOM     19  C   UNL     1       1.333  11.699  18.509  0.00  0.00    +0.000 A 
ATOM     20  C   UNL     1       0.722  12.603  19.378  0.00  0.00    +0.000 A 
ATOM     21  C   UNL     1       0.255  12.165  20.611  0.00  0.00    +0.000 A 
ATOM     22  C   UNL     1       0.395  10.820  20.969  0.00  0.00    +0.000 A 
ATOM     23  C   UNL     1       0.990   9.893  20.122  0.00  0.00    +0.000 A 
ATOM     24  N   UNL     1       1.107   8.614  20.509  0.00  0.00    +0.000 NA
ENDBRANCH  14  15
ENDBRANCH   8  14
TORSDOF 5
ENDMDL
MODEL 8
REMARK VINA RESULT:      -6.6      3.010      3.862
REMARK  Name = 
REMARK  6 active torsions:
REMARK  status: ('A' for Active; 'I' for Inactive)
REMARK    1  A    between atoms: C_1  and  O_2
REMARK    2  A    between atoms: O_2  and  C_3
REMARK    3  A    between atoms: C_3  and  C_4
REMARK    4  A    between atoms: C_4  and  N_5
REMARK    5  A    between atoms: N_12  and  C_13
REMARK    6  A    between atoms: C_13  and  C_14
REMARK                            x       y       z     vdW  Elec       q    Type
REMARK                         _______ _______ _______ _____ _____    ______ ____
ROOT
ATOM      1  N   UNL     1       4.357   4.492  16.967  0.00  0.00    +0.000 NA
ATOM      2  C   UNL     1       5.397   4.211  17.972  0.00  0.00    +0.000 C 
ATOM      3  C   UNL     1       4.830   3.729  19.321  0.00  0.00    +0.000 C 
ATOM      4  C   UNL     1       4.057   2.416  19.127  0.00  0.00    +0.000 C 
ATOM      5  C   UNL     1       3.285   2.407  17.816  0.00  0.00    +0.000 C 
ATOM      6  C   UNL     1       3.078   3.821  17.273  0.00  0.00    +0.000 C 
ATOM      7  C   UNL     1       2.219   4.688  18.240  0.00  0.00    +0.000 C 
ATOM      8  N   UNL     1       2.924   5.462  19.266  0.00  0.00    +0.000 NA
ATOM      9  C   UNL     1       3.971   4.799  20.029  0.00  0.00    +0.000 C 
ENDROOT
BRANCH   1  10
ATOM     10  C   UNL     1       4.853   4.324  15.596  0.00  0.00    +0.000 C 
BRANCH  10  11
ATOM     11  C   UNL     1       5.914   5.368  15.205  0.00  0.00    +0.000 C 
BRANCH  11  13
ATOM     12  C   UNL     1       6.288   3.854  13.471  0.00  0.00    +0.000 C 
ATOM     13  O   UNL     1       6.901   4.807  14.337  0.00  0.00    +0.000 OA
ENDBRANCH  11  13
ENDBRANCH  10  11
ENDBRANCH   1  10
BRANCH   8  14
ATOM     14  C   UNL     1       2.006   6.289  20.074  0.00  0.00    +0.000 C 
BRANCH  14  15
ATOM     15  C   UNL     1       1.780   7.712  19.580  0.00  0.00    +0.000 A 
ATOM     16  C   UNL     1       2.210   8.096  18.317  0.00  0.00    +0.000 A 
ATOM     17  C   UNL     1       2.055   9.423  17.929  0.00  0.00    +0.000 A 
ATOM     18  C   UNL     1       1.462  10.339  18.807  0.00  0.00    +0.000 A 
ATOM     19  C   UNL     1       1.297  11.689  18.458  0.00  0.00    +0.000 A 
ATOM     20  C   UNL     1       0.710  12.579  19.357  0.00  0.00    +0.000 A 
ATOM     21  C   UNL     1       0.301  12.125  20.605  0.00  0.00    +0.000 A 
ATOM     22  C   UNL     1       0.473  10.781  20.948  0.00  0.00    +0.000 A 
ATOM     23  C   UNL     1       1.045   9.868  20.070  0.00  0.00    +0.000 A 
ATOM     24  N   UNL     1       1.196   8.587  20.442  0.00  0.00    +0.000 NA
ENDBRANCH  14  15
ENDBRANCH   8  14
TORSDOF 5
ENDMDL
MODEL 9
REMARK VINA RESULT:      -6.6      2.228      3.195
REMARK  Name = 
REMARK  6 active torsions:
REMARK  status: ('A' for Active; 'I' for Inactive)
REMARK    1  A    between atoms: C_1  and  O_2
REMARK    2  A    between atoms: O_2  and  C_3
REMARK    3  A    between atoms: C_3  and  C_4
REMARK    4  A    between atoms: C_4  and  N_5
REMARK    5  A    between atoms: N_12  and  C_13
REMARK    6  A    between atoms: C_13  and  C_14
REMARK                            x       y       z     vdW  Elec       q    Type
REMARK                         _______ _______ _______ _____ _____    ______ ____
ROOT
ATOM      1  N   UNL     1       5.110   5.761  18.043  0.00  0.00    +0.000 NA
ATOM      2  C   UNL     1       5.654   4.674  18.873  0.00  0.00    +0.000 C 
ATOM      3  C   UNL     1       4.596   3.636  19.294  0.00  0.00    +0.000 C 
ATOM      4  C   UNL     1       3.995   2.965  18.051  0.00  0.00    +0.000 C 
ATOM      5  C   UNL     1       3.824   3.952  16.906  0.00  0.00    +0.000 C 
ATOM      6  C   UNL     1       3.830   5.399  17.401  0.00  0.00    +0.000 C 
ATOM      7  C   UNL     1       2.635   5.682  18.359  0.00  0.00    +0.000 C 
ATOM      8  N   UNL     1       2.845   5.461  19.793  0.00  0.00    +0.000 NA
ATOM      9  C   UNL     1       3.503   4.230  20.209  0.00  0.00    +0.000 C 
ENDROOT
BRANCH   1  10
ATOM     10  C   UNL     1       6.125   6.342  17.155  0.00  0.00    +0.000 C 
BRANCH  10  11
ATOM     11  C   UNL     1       7.075   5.291  16.555  0.00  0.00    +0.000 C 
BRANCH  11  13
ATOM     12  C   UNL     1       6.808   4.682  14.320  0.00  0.00    +0.000 C 
ATOM     13  O   UNL     1       7.424   5.613  15.208  0.00  0.00    +0.000 OA
ENDBRANCH  11  13
ENDBRANCH  10  11
ENDBRANCH   1  10
BRANCH   8  14
ATOM     14  C   UNL     1       1.663   5.825  20.596  0.00  0.00    +0.000 C 
BRANCH  14  15
ATOM     15  C   UNL     1       1.292   7.303  20.605  0.00  0.00    +0.000 A 
ATOM     16  C   UNL     1       1.790   8.160  19.633  0.00  0.00    +0.000 A 
ATOM     17  C   UNL     1       1.493   9.516  19.717  0.00  0.00    +0.000 A 
ATOM     18  C   UNL     1       0.693   9.989  20.764  0.00  0.00    +0.000 A 
ATOM     19  C   UNL     1       0.378  11.352  20.891  0.00  0.00    +0.000 A 
ATOM     20  C   UNL     1      -0.414  11.793  21.950  0.00  0.00    +0.000 A 
ATOM     21  C   UNL     1      -0.881  10.879  22.887  0.00  0.00    +0.000 A 
ATOM     22  C   UNL     1      -0.559   9.524  22.757  0.00  0.00    +0.000 A 
ATOM     23  C   UNL     1       0.220   9.053  21.708  0.00  0.00    +0.000 A 
ATOM     24  N   UNL     1       0.508   7.745  21.625  0.00  0.00    +0.000 NA
ENDBRANCH  14  15
ENDBRANCH   8  14
TORSDOF 5
ENDMDL
