MODEL 1
REMARK VINA RESULT:      -5.2      0.000      0.000
REMARK  Name = 
REMARK  3 active torsions:
REMARK  status: ('A' for Active; 'I' for Inactive)
REMARK    1  A    between atoms: N_1  and  O_2
REMARK    2  A    between atoms: O_2  and  C_3
REMARK    3  A    between atoms: C_3  and  C_4
REMARK                            x       y       z     vdW  Elec       q    Type
REMARK                         _______ _______ _______ _____ _____    ______ ____
ROOT
ATOM      1  C   UNL     1       5.730   4.559  17.087  0.00  0.00    +0.000 A 
ATOM      2  C   UNL     1       4.442   4.094  16.773  0.00  0.00    +0.000 A 
ATOM      3  C   UNL     1       3.400   4.178  17.702  0.00  0.00    +0.000 A 
ATOM      4  C   UNL     1       3.641   4.726  18.958  0.00  0.00    +0.000 A 
ATOM      5  I   UNL     1       2.094   4.852  20.342  0.00  0.00    +0.000 I 
ATOM      6  C   UNL     1       4.907   5.195  19.293  0.00  0.00    +0.000 A 
ATOM      7  C   UNL     1       5.947   5.117  18.359  0.00  0.00    +0.000 A 
ATOM      8 CL   UNL     1       7.485   5.753  18.828  0.00  0.00    +0.000 Cl
ENDROOT
BRANCH   1   9
ATOM      9  C   UNL     1       6.822   4.460  16.050  0.00  0.00    +0.000 C 
BRANCH   9  10
ATOM     10  O   UNL     1       6.893   5.682  15.305  0.00  0.00    +0.000 OA
BRANCH  10  11
ATOM     11  N   UNL     1       7.773   5.488  14.157  0.00  0.00    +0.000 NA
ATOM     12  H   UNL     1       8.531   6.131  14.389  0.00  0.00    +0.000 HD
ATOM     13  H   UNL     1       7.241   5.957  13.421  0.00  0.00    +0.000 HD
ENDBRANCH  10  11
ENDBRANCH   9  10
ENDBRANCH   1   9
TORSDOF 3
ENDMDL
MODEL 2
REMARK VINA RESULT:      -5.2      2.224      2.353
REMARK  Name = 
REMARK  3 active torsions:
REMARK  status: ('A' for Active; 'I' for Inactive)
REMARK    1  A    between atoms: N_1  and  O_2
REMARK    2  A    between atoms: O_2  and  C_3
REMARK    3  A    between atoms: C_3  and  C_4
REMARK                            x       y       z     vdW  Elec       q    Type
REMARK                         _______ _______ _______ _____ _____    ______ ____
ROOT
ATOM      1  C   UNL     1       4.472   5.561  16.958  0.00  0.00    +0.000 A 
ATOM      2  C   UNL     1       4.586   4.165  16.849  0.00  0.00    +0.000 A 
ATOM      3  C   UNL     1       3.640   3.318  17.436  0.00  0.00    +0.000 A 
ATOM      4  C   UNL     1       2.572   3.864  18.143  0.00  0.00    +0.000 A 
ATOM      5  I   UNL     1       1.165   2.607  19.017  0.00  0.00    +0.000 I 
ATOM      6  C   UNL     1       2.436   5.243  18.263  0.00  0.00    +0.000 A 
ATOM      7  C   UNL     1       3.379   6.089  17.668  0.00  0.00    +0.000 A 
ATOM      8 CL   UNL     1       3.128   7.793  17.826  0.00  0.00    +0.000 Cl
ENDROOT
BRANCH   1   9
ATOM      9  C   UNL     1       5.508   6.439  16.299  0.00  0.00    +0.000 C 
BRANCH   9  10
ATOM     10  O   UNL     1       5.992   5.805  15.108  0.00  0.00    +0.000 OA
BRANCH  10  11
ATOM     11  N   UNL     1       7.429   5.590  15.235  0.00  0.00    +0.000 NA
ATOM     12  H   UNL     1       7.499   4.608  14.968  0.00  0.00    +0.000 HD
ATOM     13  H   UNL     1       7.539   5.599  16.253  0.00  0.00    +0.000 HD
ENDBRANCH  10  11
ENDBRANCH   9  10
ENDBRANCH   1   9
TORSDOF 3
ENDMDL
MODEL 3
REMARK VINA RESULT:      -5.1      2.035      2.470
REMARK  Name = 
REMARK  3 active torsions:
REMARK  status: ('A' for Active; 'I' for Inactive)
REMARK    1  A    between atoms: N_1  and  O_2
REMARK    2  A    between atoms: O_2  and  C_3
REMARK    3  A    between atoms: C_3  and  C_4
REMARK                            x       y       z     vdW  Elec       q    Type
REMARK                         _______ _______ _______ _____ _____    ______ ____
ROOT
ATOM      1  C   UNL     1       6.086   4.916  17.776  0.00  0.00    +0.000 A 
ATOM      2  C   UNL     1       5.477   5.197  19.010  0.00  0.00    +0.000 A 
ATOM      3  C   UNL     1       4.176   4.765  19.286  0.00  0.00    +0.000 A 
ATOM      4  C   UNL     1       3.470   4.049  18.323  0.00  0.00    +0.000 A 
ATOM      5  I   UNL     1       1.535   3.405  18.730  0.00  0.00    +0.000 I 
ATOM      6  C   UNL     1       4.052   3.756  17.093  0.00  0.00    +0.000 A 
ATOM      7  C   UNL     1       5.356   4.183  16.823  0.00  0.00    +0.000 A 
ATOM      8 CL   UNL     1       6.031   3.752  15.290  0.00  0.00    +0.000 Cl
ENDROOT
BRANCH   1   9
ATOM      9  C   UNL     1       7.496   5.391  17.524  0.00  0.00    +0.000 C 
BRANCH   9  10
ATOM     10  O   UNL     1       7.491   6.409  16.516  0.00  0.00    +0.000 OA
BRANCH  10  11
ATOM     11  N   UNL     1       7.553   7.716  17.162  0.00  0.00    +0.000 NA
ATOM     12  H   UNL     1       7.259   7.474  18.109  0.00  0.00    +0.000 HD
ATOM     13  H   UNL     1       6.744   8.180  16.742  0.00  0.00    +0.000 HD
ENDBRANCH  10  11
ENDBRANCH   9  10
ENDBRANCH   1   9
TORSDOF 3
ENDMDL
MODEL 4
REMARK VINA RESULT:      -5.1      1.109      1.110
REMARK  Name = 
REMARK  3 active torsions:
REMARK  status: ('A' for Active; 'I' for Inactive)
REMARK    1  A    between atoms: N_1  and  O_2
REMARK    2  A    between atoms: O_2  and  C_3
REMARK    3  A    between atoms: C_3  and  C_4
REMARK                            x       y       z     vdW  Elec       q    Type
REMARK                         _______ _______ _______ _____ _____    ______ ____
ROOT
ATOM      1  C   UNL     1       5.496   4.455  17.347  0.00  0.00    +0.000 A 
ATOM      2  C   UNL     1       4.338   3.938  16.742  0.00  0.00    +0.000 A 
ATOM      3  C   UNL     1       3.165   3.747  17.480  0.00  0.00    +0.000 A 
ATOM      4  C   UNL     1       3.144   4.069  18.834  0.00  0.00    +0.000 A 
ATOM      5  I   UNL     1       1.401   3.786  19.933  0.00  0.00    +0.000 I 
ATOM      6  C   UNL     1       4.277   4.584  19.456  0.00  0.00    +0.000 A 
ATOM      7  C   UNL     1       5.447   4.782  18.714  0.00  0.00    +0.000 A 
ATOM      8 CL   UNL     1       6.806   5.460  19.541  0.00  0.00    +0.000 Cl
ENDROOT
BRANCH   1   9
ATOM      9  C   UNL     1       6.737   4.656  16.511  0.00  0.00    +0.000 C 
BRANCH   9  10
ATOM     10  O   UNL     1       6.682   5.934  15.865  0.00  0.00    +0.000 OA
BRANCH  10  11
ATOM     11  N   UNL     1       7.591   6.850  16.546  0.00  0.00    +0.000 NA
ATOM     12  H   UNL     1       7.700   7.573  15.834  0.00  0.00    +0.000 HD
ATOM     13  H   UNL     1       8.463   6.315  16.519  0.00  0.00    +0.000 HD
ENDBRANCH  10  11
ENDBRANCH   9  10
ENDBRANCH   1   9
TORSDOF 3
ENDMDL
MODEL 5
REMARK VINA RESULT:      -5.1      2.654      3.036
REMARK  Name = 
REMARK  3 active torsions:
REMARK  status: ('A' for Active; 'I' for Inactive)
REMARK    1  A    between atoms: N_1  and  O_2
REMARK    2  A    between atoms: O_2  and  C_3
REMARK    3  A    between atoms: C_3  and  C_4
REMARK                            x       y       z     vdW  Elec       q    Type
REMARK                         _______ _______ _______ _____ _____    ______ ____
ROOT
ATOM      1  C   UNL     1       5.535   4.989  18.249  0.00  0.00    +0.000 A 
ATOM      2  C   UNL     1       4.764   5.200  19.405  0.00  0.00    +0.000 A 
ATOM      3  C   UNL     1       3.535   4.556  19.577  0.00  0.00    +0.000 A 
ATOM      4  C   UNL     1       3.064   3.695  18.590  0.00  0.00    +0.000 A 
ATOM      5  I   UNL     1       1.237   2.735  18.844  0.00  0.00    +0.000 I 
ATOM      6  C   UNL     1       3.810   3.468  17.437  0.00  0.00    +0.000 A 
ATOM      7  C   UNL     1       5.043   4.108  17.269  0.00  0.00    +0.000 A 
ATOM      8 CL   UNL     1       5.934   3.751  15.831  0.00  0.00    +0.000 Cl
ENDROOT
BRANCH   1   9
ATOM      9  C   UNL     1       6.861   5.696  18.108  0.00  0.00    +0.000 C 
BRANCH   9  10
ATOM     10  O   UNL     1       7.900   4.892  18.681  0.00  0.00    +0.000 OA
BRANCH  10  11
ATOM     11  N   UNL     1       8.280   5.457  19.972  0.00  0.00    +0.000 NA
ATOM     12  H   UNL     1       8.695   6.341  19.678  0.00  0.00    +0.000 HD
ATOM     13  H   UNL     1       9.072   4.859  20.221  0.00  0.00    +0.000 HD
ENDBRANCH  10  11
ENDBRANCH   9  10
ENDBRANCH   1   9
TORSDOF 3
ENDMDL
MODEL 6
REMARK VINA RESULT:      -5.1      4.883      5.523
REMARK  Name = 
REMARK  3 active torsions:
REMARK  status: ('A' for Active; 'I' for Inactive)
REMARK    1  A    between atoms: N_1  and  O_2
REMARK    2  A    between atoms: O_2  and  C_3
REMARK    3  A    between atoms: C_3  and  C_4
REMARK                            x       y       z     vdW  Elec       q    Type
REMARK                         _______ _______ _______ _____ _____    ______ ____
ROOT
ATOM      1  C   UNL     1       2.154   3.553  18.978  0.00  0.00    +0.000 A 
ATOM      2  C   UNL     1       1.948   4.933  18.820  0.00  0.00    +0.000 A 
ATOM      3  C   UNL     1       2.842   5.714  18.080  0.00  0.00    +0.000 A 
ATOM      4  C   UNL     1       3.954   5.118  17.493  0.00  0.00    +0.000 A 
ATOM      5  I   UNL     1       5.284   6.276  16.392  0.00  0.00    +0.000 I 
ATOM      6  C   UNL     1       4.179   3.752  17.633  0.00  0.00    +0.000 A 
ATOM      7  C   UNL     1       3.280   2.971  18.368  0.00  0.00    +0.000 A 
ATOM      8 CL   UNL     1       3.601   1.275  18.471  0.00  0.00    +0.000 Cl
ENDROOT
BRANCH   1   9
ATOM      9  C   UNL     1       1.159   2.745  19.775  0.00  0.00    +0.000 C 
BRANCH   9  10
ATOM     10  O   UNL     1       1.079   3.258  21.111  0.00  0.00    +0.000 OA
BRANCH  10  11
ATOM     11  N   UNL     1       2.159   2.683  21.906  0.00  0.00    +0.000 NA
ATOM     12  H   UNL     1       2.378   1.853  21.355  0.00  0.00    +0.000 HD
ATOM     13  H   UNL     1       1.640   2.336  22.717  0.00  0.00    +0.000 HD
ENDBRANCH  10  11
ENDBRANCH   9  10
ENDBRANCH   1   9
TORSDOF 3
ENDMDL
MODEL 7
REMARK VINA RESULT:      -5.1      2.305      2.439
REMARK  Name = 
REMARK  3 active torsions:
REMARK  status: ('A' for Active; 'I' for Inactive)
REMARK    1  A    between atoms: N_1  and  O_2
REMARK    2  A    between atoms: O_2  and  C_3
REMARK    3  A    between atoms: C_3  and  C_4
REMARK                            x       y       z     vdW  Elec       q    Type
REMARK                         _______ _______ _______ _____ _____    ______ ____
ROOT
ATOM      1  C   UNL     1       4.264   5.631  17.185  0.00  0.00    +0.000 A 
ATOM      2  C   UNL     1       4.433   4.253  17.402  0.00  0.00    +0.000 A 
ATOM      3  C   UNL     1       3.690   3.582  18.378  0.00  0.00    +0.000 A 
ATOM      4  C   UNL     1       2.771   4.287  19.150  0.00  0.00    +0.000 A 
ATOM      5  I   UNL     1       1.664   3.292  20.602  0.00  0.00    +0.000 I 
ATOM      6  C   UNL     1       2.583   5.652  18.953  0.00  0.00    +0.000 A 
ATOM      7  C   UNL     1       3.323   6.320  17.971  0.00  0.00    +0.000 A 
ATOM      8 CL   UNL     1       3.013   8.008  17.754  0.00  0.00    +0.000 Cl
ENDROOT
BRANCH   1   9
ATOM      9  C   UNL     1       5.078   6.314  16.113  0.00  0.00    +0.000 C 
BRANCH   9  10
ATOM     10  O   UNL     1       6.176   7.013  16.712  0.00  0.00    +0.000 OA
BRANCH  10  11
ATOM     11  N   UNL     1       7.410   6.284  16.437  0.00  0.00    +0.000 NA
ATOM     12  H   UNL     1       7.878   6.934  15.805  0.00  0.00    +0.000 HD
ATOM     13  H   UNL     1       7.063   5.532  15.837  0.00  0.00    +0.000 HD
ENDBRANCH  10  11
ENDBRANCH   9  10
ENDBRANCH   1   9
TORSDOF 3
ENDMDL
MODEL 8
REMARK VINA RESULT:      -5.1      2.153      2.571
REMARK  Name = 
REMARK  3 active torsions:
REMARK  status: ('A' for Active; 'I' for Inactive)
REMARK    1  A    between atoms: N_1  and  O_2
REMARK    2  A    between atoms: O_2  and  C_3
REMARK    3  A    between atoms: C_3  and  C_4
REMARK                            x       y       z     vdW  Elec       q    Type
REMARK                         _______ _______ _______ _____ _____    ______ ____
ROOT
ATOM      1  C   UNL     1       5.551   5.265  17.555  0.00  0.00    +0.000 A 
ATOM      2  C   UNL     1       5.164   5.372  18.902  0.00  0.00    +0.000 A 
ATOM      3  C   UNL     1       3.991   4.768  19.364  0.00  0.00    +0.000 A 
ATOM      4  C   UNL     1       3.191   4.051  18.479  0.00  0.00    +0.000 A 
ATOM      5  I   UNL     1       1.446   3.151  19.164  0.00  0.00    +0.000 I 
ATOM      6  C   UNL     1       3.553   3.928  17.141  0.00  0.00    +0.000 A 
ATOM      7  C   UNL     1       4.731   4.528  16.682  0.00  0.00    +0.000 A 
ATOM      8 CL   UNL     1       5.139   4.304  15.016  0.00  0.00    +0.000 Cl
ENDROOT
BRANCH   1   9
ATOM      9  C   UNL     1       6.831   5.923  17.100  0.00  0.00    +0.000 C 
BRANCH   9  10
ATOM     10  O   UNL     1       7.747   4.926  16.631  0.00  0.00    +0.000 OA
BRANCH  10  11
ATOM     11  N   UNL     1       8.208   4.134  17.767  0.00  0.00    +0.000 NA
ATOM     12  H   UNL     1       7.666   4.553  18.523  0.00  0.00    +0.000 HD
ATOM     13  H   UNL     1       9.157   4.497  17.885  0.00  0.00    +0.000 HD
ENDBRANCH  10  11
ENDBRANCH   9  10
ENDBRANCH   1   9
TORSDOF 3
ENDMDL
MODEL 9
REMARK VINA RESULT:      -5.0      4.854      5.526
REMARK  Name = 
REMARK  3 active torsions:
REMARK  status: ('A' for Active; 'I' for Inactive)
REMARK    1  A    between atoms: N_1  and  O_2
REMARK    2  A    between atoms: O_2  and  C_3
REMARK    3  A    between atoms: C_3  and  C_4
REMARK                            x       y       z     vdW  Elec       q    Type
REMARK                         _______ _______ _______ _____ _____    ______ ____
ROOT
ATOM      1  C   UNL     1       1.939   3.983  19.182  0.00  0.00    +0.000 A 
ATOM      2  C   UNL     1       2.311   2.899  18.370  0.00  0.00    +0.000 A 
ATOM      3  C   UNL     1       3.330   3.028  17.420  0.00  0.00    +0.000 A 
ATOM      4  C   UNL     1       3.983   4.248  17.273  0.00  0.00    +0.000 A 
ATOM      5  I   UNL     1       5.498   4.443  15.862  0.00  0.00    +0.000 I 
ATOM      6  C   UNL     1       3.635   5.336  18.067  0.00  0.00    +0.000 A 
ATOM      7  C   UNL     1       2.620   5.203  19.022  0.00  0.00    +0.000 A 
ATOM      8 CL   UNL     1       2.264   6.584  20.000  0.00  0.00    +0.000 Cl
ENDROOT
BRANCH   1   9
ATOM      9  C   UNL     1       0.843   3.797  20.203  0.00  0.00    +0.000 C 
BRANCH   9  10
ATOM     10  O   UNL     1       1.171   2.705  21.071  0.00  0.00    +0.000 OA
BRANCH  10  11
ATOM     11  N   UNL     1       2.140   3.160  22.061  0.00  0.00    +0.000 NA
ATOM     12  H   UNL     1       2.048   4.172  21.966  0.00  0.00    +0.000 HD
ATOM     13  H   UNL     1       3.021   2.927  21.595  0.00  0.00    +0.000 HD
ENDBRANCH  10  11
ENDBRANCH   9  10
ENDBRANCH   1   9
TORSDOF 3
ENDMDL
