MODEL 1
REMARK VINA RESULT:      -6.4      0.000      0.000
REMARK  Name = 
REMARK  5 active torsions:
REMARK  status: ('A' for Active; 'I' for Inactive)
REMARK    1  A    between atoms: C_2  and  C_4
REMARK    2  A    between atoms: C_4  and  C_5
REMARK    3  A    between atoms: C_5  and  N_6
REMARK    4  A    between atoms: C_7  and  C_9
REMARK    5  A    between atoms: C_14  and  S_15
REMARK                            x       y       z     vdW  Elec       q    Type
REMARK                         _______ _______ _______ _____ _____    ______ ____
ROOT
ATOM      1  N   UNL     1       5.918   4.573  19.067  0.00  0.00    +0.000 N 
ATOM      2  C   UNL     1       4.730   4.720  18.387  0.00  0.00    +0.000 C 
ATOM      3  O   UNL     1       4.682   5.049  17.203  0.00  0.00    +0.000 OA
ATOM      4  H   UNL     1       5.886   4.507  20.079  0.00  0.00    +0.000 HD
ENDROOT
BRANCH   2   5
ATOM      5  C   UNL     1       3.464   4.405  19.110  0.00  0.00    +0.000 A 
ATOM      6  C   UNL     1       2.907   5.478  19.839  0.00  0.00    +0.000 A 
ATOM      7  C   UNL     1       1.724   5.324  20.559  0.00  0.00    +0.000 A 
ATOM      8  C   UNL     1       1.079   4.095  20.560  0.00  0.00    +0.000 A 
ATOM      9  C   UNL     1       1.621   3.019  19.851  0.00  0.00    +0.000 A 
ATOM     10  C   UNL     1       2.820   3.153  19.125  0.00  0.00    +0.000 A 
BRANCH  10  11
ATOM     11  S   UNL     1       3.453   1.689  18.309  0.00  0.00    +0.000 S 
ATOM     12  H   UNL     1       3.365   2.125  17.047  0.00  0.00    +0.000 HD
ENDBRANCH  10  11
ENDBRANCH   2   5
BRANCH   1  13
ATOM     13  C   UNL     1       7.180   4.833  18.399  0.00  0.00    +0.000 C 
BRANCH  13  14
ATOM     14  C   UNL     1       7.694   6.248  18.618  0.00  0.00    +0.000 C 
BRANCH  14  16
ATOM     15  N   UNL     1       7.344   6.340  16.220  0.00  0.00    +0.000 N 
ATOM     16  C   UNL     1       7.551   7.068  17.355  0.00  0.00    +0.000 C 
ATOM     17  O   UNL     1       7.609   8.290  17.302  0.00  0.00    +0.000 OA
ATOM     18  H   UNL     1       7.245   6.849  15.353  0.00  0.00    +0.000 HD
ATOM     19  H   UNL     1       7.291   5.331  16.202  0.00  0.00    +0.000 HD
ENDBRANCH  14  16
ENDBRANCH  13  14
ENDBRANCH   1  13
TORSDOF 5
ENDMDL
MODEL 2
REMARK VINA RESULT:      -6.3      1.511      2.032
REMARK  Name = 
REMARK  5 active torsions:
REMARK  status: ('A' for Active; 'I' for Inactive)
REMARK    1  A    between atoms: C_2  and  C_4
REMARK    2  A    between atoms: C_4  and  C_5
REMARK    3  A    between atoms: C_5  and  N_6
REMARK    4  A    between atoms: C_7  and  C_9
REMARK    5  A    between atoms: C_14  and  S_15
REMARK                            x       y       z     vdW  Elec       q    Type
REMARK                         _______ _______ _______ _____ _____    ______ ____
ROOT
ATOM      1  N   UNL     1       5.929   4.195  18.608  0.00  0.00    +0.000 N 
ATOM      2  C   UNL     1       4.837   4.249  17.771  0.00  0.00    +0.000 C 
ATOM      3  O   UNL     1       4.920   4.611  16.599  0.00  0.00    +0.000 OA
ATOM      4  H   UNL     1       5.766   4.093  19.605  0.00  0.00    +0.000 HD
ENDROOT
BRANCH   2   5
ATOM      5  C   UNL     1       3.522   3.791  18.304  0.00  0.00    +0.000 A 
ATOM      6  C   UNL     1       3.222   2.431  18.072  0.00  0.00    +0.000 A 
ATOM      7  C   UNL     1       2.028   1.869  18.518  0.00  0.00    +0.000 A 
ATOM      8  C   UNL     1       1.115   2.658  19.204  0.00  0.00    +0.000 A 
ATOM      9  C   UNL     1       1.391   4.009  19.435  0.00  0.00    +0.000 A 
ATOM     10  C   UNL     1       2.589   4.596  18.984  0.00  0.00    +0.000 A 
BRANCH  10  11
ATOM     11  S   UNL     1       2.805   6.350  19.280  0.00  0.00    +0.000 S 
ATOM     12  H   UNL     1       2.069   6.444  20.394  0.00  0.00    +0.000 HD
ENDBRANCH  10  11
ENDBRANCH   2   5
BRANCH   1  13
ATOM     13  C   UNL     1       7.239   4.598  18.128  0.00  0.00    +0.000 C 
BRANCH  13  14
ATOM     14  C   UNL     1       7.594   6.033  18.487  0.00  0.00    +0.000 C 
BRANCH  14  16
ATOM     15  N   UNL     1       7.394   6.264  16.081  0.00  0.00    +0.000 N 
ATOM     16  C   UNL     1       7.494   6.926  17.270  0.00  0.00    +0.000 C 
ATOM     17  O   UNL     1       7.499   8.150  17.297  0.00  0.00    +0.000 OA
ATOM     18  H   UNL     1       7.328   6.824  15.242  0.00  0.00    +0.000 HD
ATOM     19  H   UNL     1       7.389   5.258  15.997  0.00  0.00    +0.000 HD
ENDBRANCH  14  16
ENDBRANCH  13  14
ENDBRANCH   1  13
TORSDOF 5
ENDMDL
MODEL 3
REMARK VINA RESULT:      -6.1      2.113      2.519
REMARK  Name = 
REMARK  5 active torsions:
REMARK  status: ('A' for Active; 'I' for Inactive)
REMARK    1  A    between atoms: C_2  and  C_4
REMARK    2  A    between atoms: C_4  and  C_5
REMARK    3  A    between atoms: C_5  and  N_6
REMARK    4  A    between atoms: C_7  and  C_9
REMARK    5  A    between atoms: C_14  and  S_15
REMARK                            x       y       z     vdW  Elec       q    Type
REMARK                         _______ _______ _______ _____ _____    ______ ____
ROOT
ATOM      1  N   UNL     1       4.300   3.803  17.024  0.00  0.00    +0.000 N 
ATOM      2  C   UNL     1       4.504   3.807  18.385  0.00  0.00    +0.000 C 
ATOM      3  O   UNL     1       5.626   3.865  18.885  0.00  0.00    +0.000 OA
ATOM      4  H   UNL     1       3.381   3.545  16.677  0.00  0.00    +0.000 HD
ENDROOT
BRANCH   2   5
ATOM      5  C   UNL     1       3.307   3.803  19.274  0.00  0.00    +0.000 A 
ATOM      6  C   UNL     1       2.955   2.542  19.800  0.00  0.00    +0.000 A 
ATOM      7  C   UNL     1       1.859   2.394  20.648  0.00  0.00    +0.000 A 
ATOM      8  C   UNL     1       1.098   3.505  20.983  0.00  0.00    +0.000 A 
ATOM      9  C   UNL     1       1.426   4.761  20.463  0.00  0.00    +0.000 A 
ATOM     10  C   UNL     1       2.525   4.928  19.599  0.00  0.00    +0.000 A 
BRANCH  10  11
ATOM     11  S   UNL     1       2.810   6.571  18.944  0.00  0.00    +0.000 S 
ATOM     12  H   UNL     1       3.421   7.095  20.013  0.00  0.00    +0.000 HD
ENDBRANCH  10  11
ENDBRANCH   2   5
BRANCH   1  13
ATOM     13  C   UNL     1       5.431   3.841  16.114  0.00  0.00    +0.000 C 
BRANCH  13  14
ATOM     14  C   UNL     1       5.849   5.255  15.736  0.00  0.00    +0.000 C 
BRANCH  14  16
ATOM     15  N   UNL     1       7.858   4.558  16.904  0.00  0.00    +0.000 N 
ATOM     16  C   UNL     1       7.161   5.616  16.395  0.00  0.00    +0.000 C 
ATOM     17  O   UNL     1       7.608   6.752  16.491  0.00  0.00    +0.000 OA
ATOM     18  H   UNL     1       8.739   4.756  17.355  0.00  0.00    +0.000 HD
ATOM     19  H   UNL     1       7.537   3.601  16.857  0.00  0.00    +0.000 HD
ENDBRANCH  14  16
ENDBRANCH  13  14
ENDBRANCH   1  13
TORSDOF 5
ENDMDL
MODEL 4
REMARK VINA RESULT:      -6.1      2.961      5.770
REMARK  Name = 
REMARK  5 active torsions:
REMARK  status: ('A' for Active; 'I' for Inactive)
REMARK    1  A    between atoms: C_2  and  C_4
REMARK    2  A    between atoms: C_4  and  C_5
REMARK    3  A    between atoms: C_5  and  N_6
REMARK    4  A    between atoms: C_7  and  C_9
REMARK    5  A    between atoms: C_14  and  S_15
REMARK                            x       y       z     vdW  Elec       q    Type
REMARK                         _______ _______ _______ _____ _____    ______ ____
ROOT
ATOM      1  N   UNL     1       3.456   4.629  19.149  0.00  0.00    +0.000 N 
ATOM      2  C   UNL     1       4.666   4.024  18.891  0.00  0.00    +0.000 C 
ATOM      3  O   UNL     1       5.132   3.144  19.612  0.00  0.00    +0.000 OA
ATOM      4  H   UNL     1       3.228   5.480  18.645  0.00  0.00    +0.000 HD
ENDROOT
BRANCH   2   5
ATOM      5  C   UNL     1       5.397   4.419  17.653  0.00  0.00    +0.000 A 
ATOM      6  C   UNL     1       4.809   3.985  16.445  0.00  0.00    +0.000 A 
ATOM      7  C   UNL     1       5.385   4.286  15.213  0.00  0.00    +0.000 A 
ATOM      8  C   UNL     1       6.558   5.027  15.168  0.00  0.00    +0.000 A 
ATOM      9  C   UNL     1       7.160   5.456  16.356  0.00  0.00    +0.000 A 
ATOM     10  C   UNL     1       6.597   5.154  17.610  0.00  0.00    +0.000 A 
BRANCH  10  11
ATOM     11  S   UNL     1       7.490   5.702  19.063  0.00  0.00    +0.000 S 
ATOM     12  H   UNL     1       8.595   6.143  18.449  0.00  0.00    +0.000 HD
ENDBRANCH  10  11
ENDBRANCH   2   5
BRANCH   1  13
ATOM     13  C   UNL     1       2.688   4.256  20.324  0.00  0.00    +0.000 C 
BRANCH  13  14
ATOM     14  C   UNL     1       1.301   3.727  19.990  0.00  0.00    +0.000 C 
BRANCH  14  16
ATOM     15  N   UNL     1       1.462   1.740  18.609  0.00  0.00    +0.000 N 
ATOM     16  C   UNL     1       1.289   3.094  18.617  0.00  0.00    +0.000 C 
ATOM     17  O   UNL     1       1.139   3.702  17.566  0.00  0.00    +0.000 OA
ATOM     18  H   UNL     1       1.463   1.277  17.711  0.00  0.00    +0.000 HD
ATOM     19  H   UNL     1       1.593   1.186  19.443  0.00  0.00    +0.000 HD
ENDBRANCH  14  16
ENDBRANCH  13  14
ENDBRANCH   1  13
TORSDOF 5
ENDMDL
MODEL 5
REMARK VINA RESULT:      -6.1      1.448      1.587
REMARK  Name = 
REMARK  5 active torsions:
REMARK  status: ('A' for Active; 'I' for Inactive)
REMARK    1  A    between atoms: C_2  and  C_4
REMARK    2  A    between atoms: C_4  and  C_5
REMARK    3  A    between atoms: C_5  and  N_6
REMARK    4  A    between atoms: C_7  and  C_9
REMARK    5  A    between atoms: C_14  and  S_15
REMARK                            x       y       z     vdW  Elec       q    Type
REMARK                         _______ _______ _______ _____ _____    ______ ____
ROOT
ATOM      1  N   UNL     1       5.489   5.163  18.955  0.00  0.00    +0.000 N 
ATOM      2  C   UNL     1       4.254   5.121  18.349  0.00  0.00    +0.000 C 
ATOM      3  O   UNL     1       4.065   5.527  17.204  0.00  0.00    +0.000 OA
ATOM      4  H   UNL     1       5.537   5.011  19.958  0.00  0.00    +0.000 HD
ENDROOT
BRANCH   2   5
ATOM      5  C   UNL     1       3.125   4.500  19.100  0.00  0.00    +0.000 A 
ATOM      6  C   UNL     1       2.434   5.368  19.972  0.00  0.00    +0.000 A 
ATOM      7  C   UNL     1       1.357   4.921  20.733  0.00  0.00    +0.000 A 
ATOM      8  C   UNL     1       0.952   3.597  20.634  0.00  0.00    +0.000 A 
ATOM      9  C   UNL     1       1.631   2.719  19.782  0.00  0.00    +0.000 A 
ATOM     10  C   UNL     1       2.727   3.152  19.012  0.00  0.00    +0.000 A 
BRANCH  10  11
ATOM     11  S   UNL     1       3.559   1.923  18.007  0.00  0.00    +0.000 S 
ATOM     12  H   UNL     1       4.820   2.270  18.293  0.00  0.00    +0.000 HD
ENDBRANCH  10  11
ENDBRANCH   2   5
BRANCH   1  13
ATOM     13  C   UNL     1       6.629   5.726  18.254  0.00  0.00    +0.000 C 
BRANCH  13  14
ATOM     14  C   UNL     1       7.480   4.678  17.552  0.00  0.00    +0.000 C 
BRANCH  14  16
ATOM     15  N   UNL     1       6.193   3.625  15.787  0.00  0.00    +0.000 N 
ATOM     16  C   UNL     1       7.114   4.587  16.088  0.00  0.00    +0.000 C 
ATOM     17  O   UNL     1       7.577   5.296  15.204  0.00  0.00    +0.000 OA
ATOM     18  H   UNL     1       5.922   3.529  14.818  0.00  0.00    +0.000 HD
ATOM     19  H   UNL     1       5.780   3.009  16.472  0.00  0.00    +0.000 HD
ENDBRANCH  14  16
ENDBRANCH  13  14
ENDBRANCH   1  13
TORSDOF 5
ENDMDL
MODEL 6
REMARK VINA RESULT:      -6.0      2.307      2.709
REMARK  Name = 
REMARK  5 active torsions:
REMARK  status: ('A' for Active; 'I' for Inactive)
REMARK    1  A    between atoms: C_2  and  C_4
REMARK    2  A    between atoms: C_4  and  C_5
REMARK    3  A    between atoms: C_5  and  N_6
REMARK    4  A    between atoms: C_7  and  C_9
REMARK    5  A    between atoms: C_14  and  S_15
REMARK                            x       y       z     vdW  Elec       q    Type
REMARK                         _______ _______ _______ _____ _____    ______ ____
ROOT
ATOM      1  N   UNL     1       4.706   3.474  17.132  0.00  0.00    +0.000 N 
ATOM      2  C   UNL     1       4.976   3.903  18.411  0.00  0.00    +0.000 C 
ATOM      3  O   UNL     1       6.085   4.308  18.753  0.00  0.00    +0.000 OA
ATOM      4  H   UNL     1       3.844   2.962  16.969  0.00  0.00    +0.000 HD
ENDROOT
BRANCH   2   5
ATOM      5  C   UNL     1       3.854   3.931  19.393  0.00  0.00    +0.000 A 
ATOM      6  C   UNL     1       3.713   2.766  20.176  0.00  0.00    +0.000 A 
ATOM      7  C   UNL     1       2.708   2.657  21.135  0.00  0.00    +0.000 A 
ATOM      8  C   UNL     1       1.828   3.714  21.326  0.00  0.00    +0.000 A 
ATOM      9  C   UNL     1       1.946   4.873  20.553  0.00  0.00    +0.000 A 
ATOM     10  C   UNL     1       2.950   4.996  19.573  0.00  0.00    +0.000 A 
BRANCH  10  11
ATOM     11  S   UNL     1       2.965   6.500  18.599  0.00  0.00    +0.000 S 
ATOM     12  H   UNL     1       3.461   5.985  17.468  0.00  0.00    +0.000 HD
ENDBRANCH  10  11
ENDBRANCH   2   5
BRANCH   1  13
ATOM     13  C   UNL     1       5.755   3.460  16.128  0.00  0.00    +0.000 C 
BRANCH  13  14
ATOM     14  C   UNL     1       5.551   4.495  15.032  0.00  0.00    +0.000 C 
BRANCH  14  16
ATOM     15  N   UNL     1       7.129   5.965  16.140  0.00  0.00    +0.000 N 
ATOM     16  C   UNL     1       5.911   5.876  15.530  0.00  0.00    +0.000 C 
ATOM     17  O   UNL     1       5.203   6.868  15.419  0.00  0.00    +0.000 OA
ATOM     18  H   UNL     1       7.408   6.871  16.491  0.00  0.00    +0.000 HD
ATOM     19  H   UNL     1       7.754   5.182  16.263  0.00  0.00    +0.000 HD
ENDBRANCH  14  16
ENDBRANCH  13  14
ENDBRANCH   1  13
TORSDOF 5
ENDMDL
MODEL 7
REMARK VINA RESULT:      -6.0      1.502      1.574
REMARK  Name = 
REMARK  5 active torsions:
REMARK  status: ('A' for Active; 'I' for Inactive)
REMARK    1  A    between atoms: C_2  and  C_4
REMARK    2  A    between atoms: C_4  and  C_5
REMARK    3  A    between atoms: C_5  and  N_6
REMARK    4  A    between atoms: C_7  and  C_9
REMARK    5  A    between atoms: C_14  and  S_15
REMARK                            x       y       z     vdW  Elec       q    Type
REMARK                         _______ _______ _______ _____ _____    ______ ____
ROOT
ATOM      1  N   UNL     1       5.519   4.188  18.151  0.00  0.00    +0.000 N 
ATOM      2  C   UNL     1       4.262   4.725  17.989  0.00  0.00    +0.000 C 
ATOM      3  O   UNL     1       3.982   5.486  17.065  0.00  0.00    +0.000 OA
ATOM      4  H   UNL     1       5.741   3.743  19.036  0.00  0.00    +0.000 HD
ENDROOT
BRANCH   2   5
ATOM      5  C   UNL     1       3.194   4.311  18.944  0.00  0.00    +0.000 A 
ATOM      6  C   UNL     1       2.641   5.354  19.716  0.00  0.00    +0.000 A 
ATOM      7  C   UNL     1       1.632   5.109  20.645  0.00  0.00    +0.000 A 
ATOM      8  C   UNL     1       1.160   3.815  20.817  0.00  0.00    +0.000 A 
ATOM      9  C   UNL     1       1.704   2.766  20.068  0.00  0.00    +0.000 A 
ATOM     10  C   UNL     1       2.729   2.994  19.131  0.00  0.00    +0.000 A 
BRANCH  10  11
ATOM     11  S   UNL     1       3.393   1.565  18.277  0.00  0.00    +0.000 S 
ATOM     12  H   UNL     1       2.999   1.888  17.038  0.00  0.00    +0.000 HD
ENDBRANCH  10  11
ENDBRANCH   2   5
BRANCH   1  13
ATOM     13  C   UNL     1       6.586   4.532  17.228  0.00  0.00    +0.000 C 
BRANCH  13  14
ATOM     14  C   UNL     1       7.932   4.723  17.912  0.00  0.00    +0.000 C 
BRANCH  14  16
ATOM     15  N   UNL     1       8.243   6.949  18.825  0.00  0.00    +0.000 N 
ATOM     16  C   UNL     1       7.807   5.680  19.076  0.00  0.00    +0.000 C 
ATOM     17  O   UNL     1       7.357   5.390  20.177  0.00  0.00    +0.000 OA
ATOM     18  H   UNL     1       8.179   7.620  19.577  0.00  0.00    +0.000 HD
ATOM     19  H   UNL     1       8.626   7.245  17.939  0.00  0.00    +0.000 HD
ENDBRANCH  14  16
ENDBRANCH  13  14
ENDBRANCH   1  13
TORSDOF 5
ENDMDL
MODEL 8
REMARK VINA RESULT:      -6.0      1.883      2.121
REMARK  Name = 
REMARK  5 active torsions:
REMARK  status: ('A' for Active; 'I' for Inactive)
REMARK    1  A    between atoms: C_2  and  C_4
REMARK    2  A    between atoms: C_4  and  C_5
REMARK    3  A    between atoms: C_5  and  N_6
REMARK    4  A    between atoms: C_7  and  C_9
REMARK    5  A    between atoms: C_14  and  S_15
REMARK                            x       y       z     vdW  Elec       q    Type
REMARK                         _______ _______ _______ _____ _____    ______ ____
ROOT
ATOM      1  N   UNL     1       4.630   5.786  17.901  0.00  0.00    +0.000 N 
ATOM      2  C   UNL     1       4.642   4.771  18.831  0.00  0.00    +0.000 C 
ATOM      3  O   UNL     1       5.684   4.302  19.285  0.00  0.00    +0.000 OA
ATOM      4  H   UNL     1       3.760   5.983  17.416  0.00  0.00    +0.000 HD
ENDROOT
BRANCH   2   5
ATOM      5  C   UNL     1       3.332   4.275  19.344  0.00  0.00    +0.000 A 
ATOM      6  C   UNL     1       2.615   5.190  20.144  0.00  0.00    +0.000 A 
ATOM      7  C   UNL     1       1.375   4.858  20.686  0.00  0.00    +0.000 A 
ATOM      8  C   UNL     1       0.832   3.606  20.436  0.00  0.00    +0.000 A 
ATOM      9  C   UNL     1       1.533   2.683  19.653  0.00  0.00    +0.000 A 
ATOM     10  C   UNL     1       2.790   2.998  19.104  0.00  0.00    +0.000 A 
BRANCH  10  11
ATOM     11  S   UNL     1       3.623   1.713  18.172  0.00  0.00    +0.000 S 
ATOM     12  H   UNL     1       4.787   2.347  17.980  0.00  0.00    +0.000 HD
ENDBRANCH  10  11
ENDBRANCH   2   5
BRANCH   1  13
ATOM     13  C   UNL     1       5.878   6.329  17.395  0.00  0.00    +0.000 C 
BRANCH  13  14
ATOM     14  C   UNL     1       6.169   5.925  15.957  0.00  0.00    +0.000 C 
BRANCH  14  16
ATOM     15  N   UNL     1       7.742   4.310  16.851  0.00  0.00    +0.000 N 
ATOM     16  C   UNL     1       6.786   4.545  15.907  0.00  0.00    +0.000 C 
ATOM     17  O   UNL     1       6.486   3.672  15.102  0.00  0.00    +0.000 OA
ATOM     18  H   UNL     1       8.182   3.400  16.851  0.00  0.00    +0.000 HD
ATOM     19  H   UNL     1       8.033   4.992  17.537  0.00  0.00    +0.000 HD
ENDBRANCH  14  16
ENDBRANCH  13  14
ENDBRANCH   1  13
TORSDOF 5
ENDMDL
MODEL 9
REMARK VINA RESULT:      -5.9      2.058      2.479
REMARK  Name = 
REMARK  5 active torsions:
REMARK  status: ('A' for Active; 'I' for Inactive)
REMARK    1  A    between atoms: C_2  and  C_4
REMARK    2  A    between atoms: C_4  and  C_5
REMARK    3  A    between atoms: C_5  and  N_6
REMARK    4  A    between atoms: C_7  and  C_9
REMARK    5  A    between atoms: C_14  and  S_15
REMARK                            x       y       z     vdW  Elec       q    Type
REMARK                         _______ _______ _______ _____ _____    ______ ____
ROOT
ATOM      1  N   UNL     1       5.564   5.089  19.105  0.00  0.00    +0.000 N 
ATOM      2  C   UNL     1       4.321   5.172  18.519  0.00  0.00    +0.000 C 
ATOM      3  O   UNL     1       4.140   5.709  17.428  0.00  0.00    +0.000 OA
ATOM      4  H   UNL     1       5.616   4.826  20.085  0.00  0.00    +0.000 HD
ENDROOT
BRANCH   2   5
ATOM      5  C   UNL     1       3.172   4.526  19.216  0.00  0.00    +0.000 A 
ATOM      6  C   UNL     1       3.114   3.121  19.102  0.00  0.00    +0.000 A 
ATOM      7  C   UNL     1       2.094   2.389  19.707  0.00  0.00    +0.000 A 
ATOM      8  C   UNL     1       1.116   3.052  20.437  0.00  0.00    +0.000 A 
ATOM      9  C   UNL     1       1.153   4.445  20.552  0.00  0.00    +0.000 A 
ATOM     10  C   UNL     1       2.171   5.201  19.940  0.00  0.00    +0.000 A 
BRANCH  10  11
ATOM     11  S   UNL     1       2.078   6.983  20.102  0.00  0.00    +0.000 S 
ATOM     12  H   UNL     1       1.660   7.034  21.373  0.00  0.00    +0.000 HD
ENDBRANCH  10  11
ENDBRANCH   2   5
BRANCH   1  13
ATOM     13  C   UNL     1       6.722   5.671  18.451  0.00  0.00    +0.000 C 
BRANCH  13  14
ATOM     14  C   UNL     1       7.546   4.654  17.674  0.00  0.00    +0.000 C 
BRANCH  14  16
ATOM     15  N   UNL     1       6.191   3.678  15.915  0.00  0.00    +0.000 N 
ATOM     16  C   UNL     1       7.124   4.626  16.222  0.00  0.00    +0.000 C 
ATOM     17  O   UNL     1       7.555   5.372  15.352  0.00  0.00    +0.000 OA
ATOM     18  H   UNL     1       5.884   3.623  14.954  0.00  0.00    +0.000 HD
ATOM     19  H   UNL     1       5.803   3.034  16.589  0.00  0.00    +0.000 HD
ENDBRANCH  14  16
ENDBRANCH  13  14
ENDBRANCH   1  13
TORSDOF 5
ENDMDL
