MODEL 1
REMARK VINA RESULT:      -8.0      0.000      0.000
REMARK  Name = 
REMARK  3 active torsions:
REMARK  status: ('A' for Active; 'I' for Inactive)
REMARK    1  A    between atoms: C_1  and  C_2
REMARK    2  A    between atoms: C_6  and  C_7
REMARK    3  A    between atoms: C_7  and  O_9
REMARK                            x       y       z     vdW  Elec       q    Type
REMARK                         _______ _______ _______ _____ _____    ______ ____
ROOT
ATOM      1  C   UNL     1       1.926   1.949  19.305  0.00  0.00    +0.000 C 
ATOM      2  C   UNL     1       2.615   3.169  18.745  0.00  0.00    +0.000 A 
ATOM      3  C   UNL     1       3.520   3.003  17.683  0.00  0.00    +0.000 A 
ATOM      4  C   UNL     1       4.197   4.089  17.113  0.00  0.00    +0.000 A 
ATOM      5  C   UNL     1       5.099   3.884  16.050  0.00  0.00    +0.000 A 
ATOM      6  C   UNL     1       5.800   4.945  15.466  0.00  0.00    +0.000 A 
ATOM      7  C   UNL     1       5.586   6.236  15.937  0.00  0.00    +0.000 A 
ATOM      8  C   UNL     1       4.690   6.448  16.992  0.00  0.00    +0.000 A 
ATOM      9  C   UNL     1       3.972   5.392  17.613  0.00  0.00    +0.000 A 
ATOM     10  C   UNL     1       3.044   5.574  18.699  0.00  0.00    +0.000 A 
ATOM     11  C   UNL     1       2.741   6.823  19.274  0.00  0.00    +0.000 A 
ATOM     12  N   UNL     1       1.883   7.050  20.297  0.00  0.00    +0.000 NA
ATOM     13  C   UNL     1       1.265   5.973  20.800  0.00  0.00    +0.000 A 
ATOM     14  C   UNL     1       1.472   4.689  20.326  0.00  0.00    +0.000 A 
ATOM     15  C   UNL     1       2.369   4.464  19.263  0.00  0.00    +0.000 A 
ENDROOT
BRANCH   6  16
ATOM     16  C   UNL     1       6.705   4.633  14.322  0.00  0.00    +0.000 C 
ATOM     17  O   UNL     1       7.649   5.345  14.035  0.00  0.00    +0.000 OA
BRANCH  16  18
ATOM     18  O   UNL     1       6.378   3.540  13.603  0.00  0.00    +0.000 OA
ATOM     19  H   UNL     1       6.469   2.676  14.035  0.00  0.00    +0.000 HD
ENDBRANCH  16  18
ENDBRANCH   6  16
TORSDOF 2
ENDMDL
MODEL 2
REMARK VINA RESULT:      -7.7      4.026      6.252
REMARK  Name = 
REMARK  3 active torsions:
REMARK  status: ('A' for Active; 'I' for Inactive)
REMARK    1  A    between atoms: C_1  and  C_2
REMARK    2  A    between atoms: C_6  and  C_7
REMARK    3  A    between atoms: C_7  and  O_9
REMARK                            x       y       z     vdW  Elec       q    Type
REMARK                         _______ _______ _______ _____ _____    ______ ____
ROOT
ATOM      1  C   UNL     1       7.755   6.449  18.444  0.00  0.00    +0.000 C 
ATOM      2  C   UNL     1       6.590   5.550  18.111  0.00  0.00    +0.000 A 
ATOM      3  C   UNL     1       5.683   5.220  19.132  0.00  0.00    +0.000 A 
ATOM      4  C   UNL     1       4.578   4.390  18.898  0.00  0.00    +0.000 A 
ATOM      5  C   UNL     1       3.690   4.078  19.947  0.00  0.00    +0.000 A 
ATOM      6  C   UNL     1       2.584   3.244  19.749  0.00  0.00    +0.000 A 
ATOM      7  C   UNL     1       2.348   2.725  18.481  0.00  0.00    +0.000 A 
ATOM      8  C   UNL     1       3.225   3.032  17.433  0.00  0.00    +0.000 A 
ATOM      9  C   UNL     1       4.361   3.866  17.603  0.00  0.00    +0.000 A 
ATOM     10  C   UNL     1       5.283   4.201  16.549  0.00  0.00    +0.000 A 
ATOM     11  C   UNL     1       5.165   3.739  15.224  0.00  0.00    +0.000 A 
ATOM     12  N   UNL     1       6.004   4.019  14.198  0.00  0.00    +0.000 NA
ATOM     13  C   UNL     1       7.042   4.817  14.483  0.00  0.00    +0.000 A 
ATOM     14  C   UNL     1       7.272   5.340  15.744  0.00  0.00    +0.000 A 
ATOM     15  C   UNL     1       6.395   5.041  16.805  0.00  0.00    +0.000 A 
ENDROOT
BRANCH   6  16
ATOM     16  C   UNL     1       1.681   3.002  20.912  0.00  0.00    +0.000 C 
ATOM     17  O   UNL     1       2.112   2.830  22.036  0.00  0.00    +0.000 OA
BRANCH  16  18
ATOM     18  O   UNL     1       0.366   2.940  20.623  0.00  0.00    +0.000 OA
ATOM     19  H   UNL     1      -0.162   2.269  21.086  0.00  0.00    +0.000 HD
ENDBRANCH  16  18
ENDBRANCH   6  16
TORSDOF 2
ENDMDL
MODEL 3
REMARK VINA RESULT:      -7.6      1.225      2.691
REMARK  Name = 
REMARK  3 active torsions:
REMARK  status: ('A' for Active; 'I' for Inactive)
REMARK    1  A    between atoms: C_1  and  C_2
REMARK    2  A    between atoms: C_6  and  C_7
REMARK    3  A    between atoms: C_7  and  O_9
REMARK                            x       y       z     vdW  Elec       q    Type
REMARK                         _______ _______ _______ _____ _____    ______ ____
ROOT
ATOM      1  C   UNL     1       2.273   8.525  18.524  0.00  0.00    +0.000 C 
ATOM      2  C   UNL     1       2.957   7.215  18.219  0.00  0.00    +0.000 A 
ATOM      3  C   UNL     1       3.817   7.147  17.111  0.00  0.00    +0.000 A 
ATOM      4  C   UNL     1       4.486   5.965  16.766  0.00  0.00    +0.000 A 
ATOM      5  C   UNL     1       5.340   5.935  15.645  0.00  0.00    +0.000 A 
ATOM      6  C   UNL     1       6.014   4.768  15.267  0.00  0.00    +0.000 A 
ATOM      7  C   UNL     1       5.847   3.616  16.028  0.00  0.00    +0.000 A 
ATOM      8  C   UNL     1       5.001   3.639  17.143  0.00  0.00    +0.000 A 
ATOM      9  C   UNL     1       4.296   4.804  17.547  0.00  0.00    +0.000 A 
ATOM     10  C   UNL     1       3.418   4.863  18.687  0.00  0.00    +0.000 A 
ATOM     11  C   UNL     1       3.156   3.770  19.537  0.00  0.00    +0.000 A 
ATOM     12  N   UNL     1       2.338   3.769  20.616  0.00  0.00    +0.000 NA
ATOM     13  C   UNL     1       1.727   4.928  20.896  0.00  0.00    +0.000 A 
ATOM     14  C   UNL     1       1.899   6.077  20.143  0.00  0.00    +0.000 A 
ATOM     15  C   UNL     1       2.750   6.066  19.020  0.00  0.00    +0.000 A 
ENDROOT
BRANCH   6  16
ATOM     16  C   UNL     1       6.925   4.844  14.088  0.00  0.00    +0.000 C 
ATOM     17  O   UNL     1       7.867   5.612  14.052  0.00  0.00    +0.000 OA
BRANCH  16  18
ATOM     18  O   UNL     1       6.603   4.043  13.053  0.00  0.00    +0.000 OA
ATOM     19  H   UNL     1       6.403   3.114  13.251  0.00  0.00    +0.000 HD
ENDBRANCH  16  18
ENDBRANCH   6  16
TORSDOF 2
ENDMDL
MODEL 4
REMARK VINA RESULT:      -7.6      1.269      2.766
REMARK  Name = 
REMARK  3 active torsions:
REMARK  status: ('A' for Active; 'I' for Inactive)
REMARK    1  A    between atoms: C_1  and  C_2
REMARK    2  A    between atoms: C_6  and  C_7
REMARK    3  A    between atoms: C_7  and  O_9
REMARK                            x       y       z     vdW  Elec       q    Type
REMARK                         _______ _______ _______ _____ _____    ______ ____
ROOT
ATOM      1  C   UNL     1       2.166   7.871  19.330  0.00  0.00    +0.000 C 
ATOM      2  C   UNL     1       2.761   6.608  18.759  0.00  0.00    +0.000 A 
ATOM      3  C   UNL     1       3.691   6.716  17.711  0.00  0.00    +0.000 A 
ATOM      4  C   UNL     1       4.285   5.587  17.131  0.00  0.00    +0.000 A 
ATOM      5  C   UNL     1       5.212   5.735  16.080  0.00  0.00    +0.000 A 
ATOM      6  C   UNL     1       5.814   4.628  15.472  0.00  0.00    +0.000 A 
ATOM      7  C   UNL     1       5.501   3.353  15.928  0.00  0.00    +0.000 A 
ATOM      8  C   UNL     1       4.581   3.198  16.973  0.00  0.00    +0.000 A 
ATOM      9  C   UNL     1       3.945   4.300  17.605  0.00  0.00    +0.000 A 
ATOM     10  C   UNL     1       2.996   4.178  18.680  0.00  0.00    +0.000 A 
ATOM     11  C   UNL     1       2.585   2.948  19.232  0.00  0.00    +0.000 A 
ATOM     12  N   UNL     1       1.694   2.777  20.237  0.00  0.00    +0.000 NA
ATOM     13  C   UNL     1       1.161   3.892  20.752  0.00  0.00    +0.000 A 
ATOM     14  C   UNL     1       1.479   5.163  20.303  0.00  0.00    +0.000 A 
ATOM     15  C   UNL     1       2.405   5.330  19.254  0.00  0.00    +0.000 A 
ENDROOT
BRANCH   6  16
ATOM     16  C   UNL     1       6.811   4.887  14.392  0.00  0.00    +0.000 C 
ATOM     17  O   UNL     1       6.705   4.392  13.286  0.00  0.00    +0.000 OA
BRANCH  16  18
ATOM     18  O   UNL     1       7.857   5.663  14.741  0.00  0.00    +0.000 OA
ATOM     19  H   UNL     1       8.327   5.439  15.559  0.00  0.00    +0.000 HD
ENDBRANCH  16  18
ENDBRANCH   6  16
TORSDOF 2
ENDMDL
MODEL 5
REMARK VINA RESULT:      -7.5      0.801      1.124
REMARK  Name = 
REMARK  3 active torsions:
REMARK  status: ('A' for Active; 'I' for Inactive)
REMARK    1  A    between atoms: C_1  and  C_2
REMARK    2  A    between atoms: C_6  and  C_7
REMARK    3  A    between atoms: C_7  and  O_9
REMARK                            x       y       z     vdW  Elec       q    Type
REMARK                         _______ _______ _______ _____ _____    ______ ____
ROOT
ATOM      1  C   UNL     1       2.464   2.869  20.488  0.00  0.00    +0.000 C 
ATOM      2  C   UNL     1       2.923   3.966  19.558  0.00  0.00    +0.000 A 
ATOM      3  C   UNL     1       3.786   3.634  18.500  0.00  0.00    +0.000 A 
ATOM      4  C   UNL     1       4.254   4.599  17.599  0.00  0.00    +0.000 A 
ATOM      5  C   UNL     1       5.120   4.229  16.551  0.00  0.00    +0.000 A 
ATOM      6  C   UNL     1       5.614   5.169  15.640  0.00  0.00    +0.000 A 
ATOM      7  C   UNL     1       5.226   6.498  15.764  0.00  0.00    +0.000 A 
ATOM      8  C   UNL     1       4.364   6.873  16.802  0.00  0.00    +0.000 A 
ATOM      9  C   UNL     1       3.853   5.946  17.749  0.00  0.00    +0.000 A 
ATOM     10  C   UNL     1       2.967   6.296  18.827  0.00  0.00    +0.000 A 
ATOM     11  C   UNL     1       2.502   7.603  19.071  0.00  0.00    +0.000 A 
ATOM     12  N   UNL     1       1.673   7.988  20.071  0.00  0.00    +0.000 NA
ATOM     13  C   UNL     1       1.259   7.021  20.901  0.00  0.00    +0.000 A 
ATOM     14  C   UNL     1       1.640   5.696  20.772  0.00  0.00    +0.000 A 
ATOM     15  C   UNL     1       2.504   5.308  19.730  0.00  0.00    +0.000 A 
ENDROOT
BRANCH   6  16
ATOM     16  C   UNL     1       6.496   4.675  14.542  0.00  0.00    +0.000 C 
ATOM     17  O   UNL     1       6.148   3.787  13.788  0.00  0.00    +0.000 OA
BRANCH  16  18
ATOM     18  O   UNL     1       7.716   5.245  14.476  0.00  0.00    +0.000 OA
ATOM     19  H   UNL     1       8.089   5.601  15.299  0.00  0.00    +0.000 HD
ENDBRANCH  16  18
ENDBRANCH   6  16
TORSDOF 2
ENDMDL
MODEL 6
REMARK VINA RESULT:      -7.3      3.662      5.344
REMARK  Name = 
REMARK  3 active torsions:
REMARK  status: ('A' for Active; 'I' for Inactive)
REMARK    1  A    between atoms: C_1  and  C_2
REMARK    2  A    between atoms: C_6  and  C_7
REMARK    3  A    between atoms: C_7  and  O_9
REMARK                            x       y       z     vdW  Elec       q    Type
REMARK                         _______ _______ _______ _____ _____    ______ ____
ROOT
ATOM      1  C   UNL     1       4.292   3.637  17.067  0.00  0.00    +0.000 C 
ATOM      2  C   UNL     1       3.576   4.519  18.060  0.00  0.00    +0.000 A 
ATOM      3  C   UNL     1       3.264   5.837  17.688  0.00  0.00    +0.000 A 
ATOM      4  C   UNL     1       2.602   6.713  18.557  0.00  0.00    +0.000 A 
ATOM      5  C   UNL     1       2.307   8.029  18.149  0.00  0.00    +0.000 A 
ATOM      6  C   UNL     1       1.657   8.933  18.997  0.00  0.00    +0.000 A 
ATOM      7  C   UNL     1       1.278   8.513  20.267  0.00  0.00    +0.000 A 
ATOM      8  C   UNL     1       1.565   7.206  20.679  0.00  0.00    +0.000 A 
ATOM      9  C   UNL     1       2.232   6.269  19.847  0.00  0.00    +0.000 A 
ATOM     10  C   UNL     1       2.544   4.919  20.238  0.00  0.00    +0.000 A 
ATOM     11  C   UNL     1       2.223   4.369  21.495  0.00  0.00    +0.000 A 
ATOM     12  N   UNL     1       2.497   3.111  21.915  0.00  0.00    +0.000 NA
ATOM     13  C   UNL     1       3.132   2.320  21.040  0.00  0.00    +0.000 A 
ATOM     14  C   UNL     1       3.502   2.735  19.772  0.00  0.00    +0.000 A 
ATOM     15  C   UNL     1       3.215   4.047  19.346  0.00  0.00    +0.000 A 
ENDROOT
BRANCH   6  16
ATOM     16  C   UNL     1       1.356  10.293  18.462  0.00  0.00    +0.000 C 
ATOM     17  O   UNL     1       0.455  10.976  18.912  0.00  0.00    +0.000 OA
BRANCH  16  18
ATOM     18  O   UNL     1       2.115  10.689  17.421  0.00  0.00    +0.000 OA
ATOM     19  H   UNL     1       3.078  10.655  17.530  0.00  0.00    +0.000 HD
ENDBRANCH  16  18
ENDBRANCH   6  16
TORSDOF 2
ENDMDL
MODEL 7
REMARK VINA RESULT:      -7.2      1.759      3.006
REMARK  Name = 
REMARK  3 active torsions:
REMARK  status: ('A' for Active; 'I' for Inactive)
REMARK    1  A    between atoms: C_1  and  C_2
REMARK    2  A    between atoms: C_6  and  C_7
REMARK    3  A    between atoms: C_7  and  O_9
REMARK                            x       y       z     vdW  Elec       q    Type
REMARK                         _______ _______ _______ _____ _____    ______ ____
ROOT
ATOM      1  C   UNL     1       1.654   6.589  20.813  0.00  0.00    +0.000 C 
ATOM      2  C   UNL     1       2.368   5.746  19.785  0.00  0.00    +0.000 A 
ATOM      3  C   UNL     1       3.496   6.281  19.141  0.00  0.00    +0.000 A 
ATOM      4  C   UNL     1       4.209   5.558  18.176  0.00  0.00    +0.000 A 
ATOM      5  C   UNL     1       5.335   6.129  17.550  0.00  0.00    +0.000 A 
ATOM      6  C   UNL     1       6.062   5.438  16.574  0.00  0.00    +0.000 A 
ATOM      7  C   UNL     1       5.671   4.149  16.228  0.00  0.00    +0.000 A 
ATOM      8  C   UNL     1       4.554   3.574  16.847  0.00  0.00    +0.000 A 
ATOM      9  C   UNL     1       3.790   4.253  17.833  0.00  0.00    +0.000 A 
ATOM     10  C   UNL     1       2.637   3.693  18.489  0.00  0.00    +0.000 A 
ATOM     11  C   UNL     1       2.131   2.404  18.228  0.00  0.00    +0.000 A 
ATOM     12  N   UNL     1       1.051   1.832  18.811  0.00  0.00    +0.000 NA
ATOM     13  C   UNL     1       0.411   2.572  19.726  0.00  0.00    +0.000 A 
ATOM     14  C   UNL     1       0.804   3.852  20.076  0.00  0.00    +0.000 A 
ATOM     15  C   UNL     1       1.928   4.439  19.462  0.00  0.00    +0.000 A 
ENDROOT
BRANCH   6  16
ATOM     16  C   UNL     1       7.260   6.112  15.995  0.00  0.00    +0.000 C 
ATOM     17  O   UNL     1       7.786   7.066  16.536  0.00  0.00    +0.000 OA
BRANCH  16  18
ATOM     18  O   UNL     1       7.688   5.623  14.814  0.00  0.00    +0.000 OA
ATOM     19  H   UNL     1       7.038   5.558  14.095  0.00  0.00    +0.000 HD
ENDBRANCH  16  18
ENDBRANCH   6  16
TORSDOF 2
ENDMDL
MODEL 8
REMARK VINA RESULT:      -6.9      4.122      5.765
REMARK  Name = 
REMARK  3 active torsions:
REMARK  status: ('A' for Active; 'I' for Inactive)
REMARK    1  A    between atoms: C_1  and  C_2
REMARK    2  A    between atoms: C_6  and  C_7
REMARK    3  A    between atoms: C_7  and  O_9
REMARK                            x       y       z     vdW  Elec       q    Type
REMARK                         _______ _______ _______ _____ _____    ______ ____
ROOT
ATOM      1  C   UNL     1       2.111   3.690  21.592  0.00  0.00    +0.000 C 
ATOM      2  C   UNL     1       2.322   4.731  20.521  0.00  0.00    +0.000 A 
ATOM      3  C   UNL     1       1.794   6.017  20.720  0.00  0.00    +0.000 A 
ATOM      4  C   UNL     1       1.949   7.035  19.769  0.00  0.00    +0.000 A 
ATOM      5  C   UNL     1       1.402   8.313  20.002  0.00  0.00    +0.000 A 
ATOM      6  C   UNL     1       1.530   9.347  19.069  0.00  0.00    +0.000 A 
ATOM      7  C   UNL     1       2.229   9.111  17.890  0.00  0.00    +0.000 A 
ATOM      8  C   UNL     1       2.777   7.844  17.652  0.00  0.00    +0.000 A 
ATOM      9  C   UNL     1       2.656   6.771  18.574  0.00  0.00    +0.000 A 
ATOM     10  C   UNL     1       3.205   5.457  18.362  0.00  0.00    +0.000 A 
ATOM     11  C   UNL     1       3.927   5.082  17.212  0.00  0.00    +0.000 A 
ATOM     12  N   UNL     1       4.459   3.862  16.960  0.00  0.00    +0.000 NA
ATOM     13  C   UNL     1       4.278   2.931  17.905  0.00  0.00    +0.000 A 
ATOM     14  C   UNL     1       3.589   3.169  19.083  0.00  0.00    +0.000 A 
ATOM     15  C   UNL     1       3.037   4.440  19.333  0.00  0.00    +0.000 A 
ENDROOT
BRANCH   6  16
ATOM     16  C   UNL     1       0.950  10.676  19.421  0.00  0.00    +0.000 C 
ATOM     17  O   UNL     1       0.878  11.061  20.573  0.00  0.00    +0.000 OA
BRANCH  16  18
ATOM     18  O   UNL     1       0.469  11.393  18.386  0.00  0.00    +0.000 OA
ATOM     19  H   UNL     1       0.294  10.920  17.557  0.00  0.00    +0.000 HD
ENDBRANCH  16  18
ENDBRANCH   6  16
TORSDOF 2
ENDMDL
MODEL 9
REMARK VINA RESULT:      -6.8      4.274      5.890
REMARK  Name = 
REMARK  3 active torsions:
REMARK  status: ('A' for Active; 'I' for Inactive)
REMARK    1  A    between atoms: C_1  and  C_2
REMARK    2  A    between atoms: C_6  and  C_7
REMARK    3  A    between atoms: C_7  and  O_9
REMARK                            x       y       z     vdW  Elec       q    Type
REMARK                         _______ _______ _______ _____ _____    ______ ____
ROOT
ATOM      1  C   UNL     1       1.856   2.601  21.589  0.00  0.00    +0.000 C 
ATOM      2  C   UNL     1       2.059   3.793  20.686  0.00  0.00    +0.000 A 
ATOM      3  C   UNL     1       1.616   5.052  21.123  0.00  0.00    +0.000 A 
ATOM      4  C   UNL     1       1.769   6.203  20.338  0.00  0.00    +0.000 A 
ATOM      5  C   UNL     1       1.310   7.449  20.809  0.00  0.00    +0.000 A 
ATOM      6  C   UNL     1       1.438   8.615  20.046  0.00  0.00    +0.000 A 
ATOM      7  C   UNL     1       2.049   8.542  18.798  0.00  0.00    +0.000 A 
ATOM      8  C   UNL     1       2.509   7.307  18.324  0.00  0.00    +0.000 A 
ATOM      9  C   UNL     1       2.385   6.104  19.070  0.00  0.00    +0.000 A 
ATOM     10  C   UNL     1       2.846   4.819  18.613  0.00  0.00    +0.000 A 
ATOM     11  C   UNL     1       3.474   4.604  17.371  0.00  0.00    +0.000 A 
ATOM     12  N   UNL     1       3.921   3.419  16.892  0.00  0.00    +0.000 NA
ATOM     13  C   UNL     1       3.747   2.355  17.687  0.00  0.00    +0.000 A 
ATOM     14  C   UNL     1       3.146   2.429  18.932  0.00  0.00    +0.000 A 
ATOM     15  C   UNL     1       2.682   3.667  19.420  0.00  0.00    +0.000 A 
ENDROOT
BRANCH   6  16
ATOM     16  C   UNL     1       0.955   9.893  20.645  0.00  0.00    +0.000 C 
ATOM     17  O   UNL     1       1.134  10.162  21.817  0.00  0.00    +0.000 OA
BRANCH  16  18
ATOM     18  O   UNL     1       0.268  10.702  19.813  0.00  0.00    +0.000 OA
ATOM     19  H   UNL     1      -0.308  10.281  19.155  0.00  0.00    +0.000 HD
ENDBRANCH  16  18
ENDBRANCH   6  16
TORSDOF 2
ENDMDL
