MODEL 1
REMARK VINA RESULT:      -8.3      0.000      0.000
REMARK  Name = 
REMARK  1 active torsions:
REMARK  status: ('A' for Active; 'I' for Inactive)
REMARK    1  A    between atoms: C_13  and  C_14
REMARK                            x       y       z     vdW  Elec       q    Type
REMARK                         _______ _______ _______ _____ _____    ______ ____
ROOT
ATOM      1  O   UNL     1       1.406   5.031  17.447  0.00  0.00    +0.000 OA
ATOM      2  C   UNL     1       2.357   4.523  18.025  0.00  0.00    +0.000 C 
ATOM      3  C   UNL     1       2.187   3.803  19.330  0.00  0.00    +0.000 A 
ATOM      4  C   UNL     1       0.912   3.755  19.907  0.00  0.00    +0.000 A 
ATOM      5  C   UNL     1       0.720   3.097  21.124  0.00  0.00    +0.000 A 
ATOM      6  C   UNL     1       1.793   2.481  21.769  0.00  0.00    +0.000 A 
ATOM      7  C   UNL     1       3.068   2.522  21.205  0.00  0.00    +0.000 A 
ATOM      8  C   UNL     1       3.270   3.184  19.987  0.00  0.00    +0.000 A 
ATOM      9  C   UNL     1       4.649   3.229  19.409  0.00  0.00    +0.000 C 
ATOM     10  O   UNL     1       5.586   2.672  19.971  0.00  0.00    +0.000 OA
ATOM     11  C   UNL     1       4.733   3.971  18.186  0.00  0.00    +0.000 A 
ATOM     12  O   UNL     1       5.907   4.170  17.548  0.00  0.00    +0.000 OA
ATOM     13  C   UNL     1       5.647   4.915  16.424  0.00  0.00    +0.000 A 
ATOM     14  C   UNL     1       4.286   5.181  16.369  0.00  0.00    +0.000 A 
ATOM     15  C   UNL     1       3.705   4.578  17.512  0.00  0.00    +0.000 A 
ENDROOT
BRANCH  13  16
ATOM     16  C   UNL     1       6.734   5.327  15.545  0.00  0.00    +0.000 C 
ATOM     17  O   UNL     1       7.539   6.196  15.895  0.00  0.00    +0.000 OA
ATOM     18  N   UNL     1       6.843   4.734  14.292  0.00  0.00    +0.000 N 
ATOM     19  C   UNL     1       7.927   5.052  13.386  0.00  0.00    +0.000 C 
ATOM     20  C   UNL     1       7.346   4.757  12.013  0.00  0.00    +0.000 C 
ATOM     21  C   UNL     1       6.417   3.577  12.260  0.00  0.00    +0.000 C 
ATOM     22  C   UNL     1       5.949   3.750  13.699  0.00  0.00    +0.000 C 
ENDBRANCH  13  16
TORSDOF 1
ENDMDL
MODEL 2
REMARK VINA RESULT:      -8.3      1.316      1.369
REMARK  Name = 
REMARK  1 active torsions:
REMARK  status: ('A' for Active; 'I' for Inactive)
REMARK    1  A    between atoms: C_13  and  C_14
REMARK                            x       y       z     vdW  Elec       q    Type
REMARK                         _______ _______ _______ _____ _____    ______ ____
ROOT
ATOM      1  O   UNL     1       2.833   6.913  18.443  0.00  0.00    +0.000 OA
ATOM      2  C   UNL     1       3.113   5.730  18.311  0.00  0.00    +0.000 C 
ATOM      3  C   UNL     1       2.455   4.671  19.145  0.00  0.00    +0.000 A 
ATOM      4  C   UNL     1       1.531   5.065  20.121  0.00  0.00    +0.000 A 
ATOM      5  C   UNL     1       0.904   4.105  20.918  0.00  0.00    +0.000 A 
ATOM      6  C   UNL     1       1.189   2.750  20.746  0.00  0.00    +0.000 A 
ATOM      7  C   UNL     1       2.108   2.344  19.778  0.00  0.00    +0.000 A 
ATOM      8  C   UNL     1       2.745   3.301  18.977  0.00  0.00    +0.000 A 
ATOM      9  C   UNL     1       3.738   2.844  17.957  0.00  0.00    +0.000 C 
ATOM     10  O   UNL     1       3.974   1.651  17.796  0.00  0.00    +0.000 OA
ATOM     11  C   UNL     1       4.352   3.918  17.233  0.00  0.00    +0.000 A 
ATOM     12  O   UNL     1       5.316   3.703  16.312  0.00  0.00    +0.000 OA
ATOM     13  C   UNL     1       5.693   4.925  15.813  0.00  0.00    +0.000 A 
ATOM     14  C   UNL     1       4.946   5.913  16.440  0.00  0.00    +0.000 A 
ATOM     15  C   UNL     1       4.091   5.258  17.360  0.00  0.00    +0.000 A 
ENDROOT
BRANCH  13  16
ATOM     16  C   UNL     1       6.755   5.021  14.819  0.00  0.00    +0.000 C 
ATOM     17  O   UNL     1       7.752   5.721  15.022  0.00  0.00    +0.000 OA
ATOM     18  N   UNL     1       6.621   4.318  13.627  0.00  0.00    +0.000 N 
ATOM     19  C   UNL     1       7.659   4.321  12.617  0.00  0.00    +0.000 C 
ATOM     20  C   UNL     1       6.904   4.047  11.326  0.00  0.00    +0.000 C 
ATOM     21  C   UNL     1       5.777   3.118  11.757  0.00  0.00    +0.000 C 
ATOM     22  C   UNL     1       5.492   3.505  13.202  0.00  0.00    +0.000 C 
ENDBRANCH  13  16
TORSDOF 1
ENDMDL
MODEL 3
REMARK VINA RESULT:      -8.0      0.777      2.287
REMARK  Name = 
REMARK  1 active torsions:
REMARK  status: ('A' for Active; 'I' for Inactive)
REMARK    1  A    between atoms: C_13  and  C_14
REMARK                            x       y       z     vdW  Elec       q    Type
REMARK                         _______ _______ _______ _____ _____    ______ ____
ROOT
ATOM      1  O   UNL     1       5.259   2.266  19.999  0.00  0.00    +0.000 OA
ATOM      2  C   UNL     1       4.569   3.126  19.468  0.00  0.00    +0.000 C 
ATOM      3  C   UNL     1       3.160   3.384  19.914  0.00  0.00    +0.000 A 
ATOM      4  C   UNL     1       2.623   2.588  20.934  0.00  0.00    +0.000 A 
ATOM      5  C   UNL     1       1.314   2.800  21.369  0.00  0.00    +0.000 A 
ATOM      6  C   UNL     1       0.534   3.805  20.796  0.00  0.00    +0.000 A 
ATOM      7  C   UNL     1       1.056   4.604  19.779  0.00  0.00    +0.000 A 
ATOM      8  C   UNL     1       2.368   4.396  19.333  0.00  0.00    +0.000 A 
ATOM      9  C   UNL     1       2.901   5.255  18.231  0.00  0.00    +0.000 C 
ATOM     10  O   UNL     1       2.219   6.148  17.741  0.00  0.00    +0.000 OA
ATOM     11  C   UNL     1       4.237   4.915  17.836  0.00  0.00    +0.000 A 
ATOM     12  O   UNL     1       4.864   5.542  16.817  0.00  0.00    +0.000 OA
ATOM     13  C   UNL     1       6.112   4.984  16.692  0.00  0.00    +0.000 A 
ATOM     14  C   UNL     1       6.257   3.993  17.653  0.00  0.00    +0.000 A 
ATOM     15  C   UNL     1       5.041   3.948  18.380  0.00  0.00    +0.000 A 
ENDROOT
BRANCH  13  16
ATOM     16  C   UNL     1       7.018   5.431  15.642  0.00  0.00    +0.000 C 
ATOM     17  O   UNL     1       7.803   6.365  15.835  0.00  0.00    +0.000 OA
ATOM     18  N   UNL     1       6.976   4.794  14.407  0.00  0.00    +0.000 N 
ATOM     19  C   UNL     1       7.882   5.145  13.333  0.00  0.00    +0.000 C 
ATOM     20  C   UNL     1       7.120   4.754  12.077  0.00  0.00    +0.000 C 
ATOM     21  C   UNL     1       6.328   3.526  12.503  0.00  0.00    +0.000 C 
ATOM     22  C   UNL     1       6.075   3.728  13.992  0.00  0.00    +0.000 C 
ENDBRANCH  13  16
TORSDOF 1
ENDMDL
MODEL 4
REMARK VINA RESULT:      -7.8      1.327      2.024
REMARK  Name = 
REMARK  1 active torsions:
REMARK  status: ('A' for Active; 'I' for Inactive)
REMARK    1  A    between atoms: C_13  and  C_14
REMARK                            x       y       z     vdW  Elec       q    Type
REMARK                         _______ _______ _______ _____ _____    ______ ____
ROOT
ATOM      1  O   UNL     1       3.800   1.409  17.998  0.00  0.00    +0.000 OA
ATOM      2  C   UNL     1       3.682   2.619  18.136  0.00  0.00    +0.000 C 
ATOM      3  C   UNL     1       2.645   3.204  19.049  0.00  0.00    +0.000 A 
ATOM      4  C   UNL     1       1.775   2.335  19.719  0.00  0.00    +0.000 A 
ATOM      5  C   UNL     1       0.795   2.848  20.572  0.00  0.00    +0.000 A 
ATOM      6  C   UNL     1       0.680   4.225  20.766  0.00  0.00    +0.000 A 
ATOM      7  C   UNL     1       1.539   5.102  20.104  0.00  0.00    +0.000 A 
ATOM      8  C   UNL     1       2.522   4.596  19.243  0.00  0.00    +0.000 A 
ATOM      9  C   UNL     1       3.423   5.555  18.532  0.00  0.00    +0.000 C 
ATOM     10  O   UNL     1       3.329   6.764  18.718  0.00  0.00    +0.000 OA
ATOM     11  C   UNL     1       4.355   4.918  17.649  0.00  0.00    +0.000 A 
ATOM     12  O   UNL     1       5.209   5.625  16.877  0.00  0.00    +0.000 OA
ATOM     13  C   UNL     1       5.953   4.727  16.152  0.00  0.00    +0.000 A 
ATOM     14  C   UNL     1       5.547   3.441  16.482  0.00  0.00    +0.000 A 
ATOM     15  C   UNL     1       4.511   3.572  17.440  0.00  0.00    +0.000 A 
ENDROOT
BRANCH  13  16
ATOM     16  C   UNL     1       6.943   5.196  15.190  0.00  0.00    +0.000 C 
ATOM     17  O   UNL     1       7.746   6.086  15.489  0.00  0.00    +0.000 OA
ATOM     18  N   UNL     1       6.961   4.632  13.920  0.00  0.00    +0.000 N 
ATOM     19  C   UNL     1       7.949   5.007  12.930  0.00  0.00    +0.000 C 
ATOM     20  C   UNL     1       7.260   4.719  11.606  0.00  0.00    +0.000 C 
ATOM     21  C   UNL     1       6.397   3.501  11.907  0.00  0.00    +0.000 C 
ATOM     22  C   UNL     1       6.052   3.629  13.385  0.00  0.00    +0.000 C 
ENDBRANCH  13  16
TORSDOF 1
ENDMDL
MODEL 5
REMARK VINA RESULT:      -7.5      5.224      7.203
REMARK  Name = 
REMARK  1 active torsions:
REMARK  status: ('A' for Active; 'I' for Inactive)
REMARK    1  A    between atoms: C_13  and  C_14
REMARK                            x       y       z     vdW  Elec       q    Type
REMARK                         _______ _______ _______ _____ _____    ______ ____
ROOT
ATOM      1  O   UNL     1      -0.050   8.751  22.304  0.00  0.00    +0.000 OA
ATOM      2  C   UNL     1       0.394   8.996  21.191  0.00  0.00    +0.000 C 
ATOM      3  C   UNL     1       0.016  10.248  20.456  0.00  0.00    +0.000 A 
ATOM      4  C   UNL     1      -0.897  11.126  21.053  0.00  0.00    +0.000 A 
ATOM      5  C   UNL     1      -1.274  12.298  20.394  0.00  0.00    +0.000 A 
ATOM      6  C   UNL     1      -0.741  12.604  19.140  0.00  0.00    +0.000 A 
ATOM      7  C   UNL     1       0.169  11.738  18.534  0.00  0.00    +0.000 A 
ATOM      8  C   UNL     1       0.549  10.558  19.187  0.00  0.00    +0.000 A 
ATOM      9  C   UNL     1       1.514   9.637  18.511  0.00  0.00    +0.000 C 
ATOM     10  O   UNL     1       1.993   9.917  17.418  0.00  0.00    +0.000 OA
ATOM     11  C   UNL     1       1.789   8.446  19.260  0.00  0.00    +0.000 A 
ATOM     12  O   UNL     1       2.591   7.469  18.783  0.00  0.00    +0.000 OA
ATOM     13  C   UNL     1       2.642   6.476  19.730  0.00  0.00    +0.000 A 
ATOM     14  C   UNL     1       1.854   6.847  20.811  0.00  0.00    +0.000 A 
ATOM     15  C   UNL     1       1.300   8.113  20.497  0.00  0.00    +0.000 A 
ENDROOT
BRANCH  13  16
ATOM     16  C   UNL     1       3.406   5.259  19.482  0.00  0.00    +0.000 C 
ATOM     17  O   UNL     1       4.641   5.273  19.488  0.00  0.00    +0.000 OA
ATOM     18  N   UNL     1       2.718   4.079  19.225  0.00  0.00    +0.000 N 
ATOM     19  C   UNL     1       3.406   2.820  19.024  0.00  0.00    +0.000 C 
ATOM     20  C   UNL     1       2.443   2.016  18.166  0.00  0.00    +0.000 C 
ATOM     21  C   UNL     1       1.070   2.466  18.647  0.00  0.00    +0.000 C 
ATOM     22  C   UNL     1       1.278   3.900  19.117  0.00  0.00    +0.000 C 
ENDBRANCH  13  16
TORSDOF 1
ENDMDL
MODEL 6
REMARK VINA RESULT:      -7.5      5.602      6.890
REMARK  Name = 
REMARK  1 active torsions:
REMARK  status: ('A' for Active; 'I' for Inactive)
REMARK    1  A    between atoms: C_13  and  C_14
REMARK                            x       y       z     vdW  Elec       q    Type
REMARK                         _______ _______ _______ _____ _____    ______ ____
ROOT
ATOM      1  O   UNL     1      -0.631  10.907  17.851  0.00  0.00    +0.000 OA
ATOM      2  C   UNL     1      -0.180  10.419  18.877  0.00  0.00    +0.000 C 
ATOM      3  C   UNL     1      -0.634  10.882  20.230  0.00  0.00    +0.000 A 
ATOM      4  C   UNL     1      -1.566  11.925  20.303  0.00  0.00    +0.000 A 
ATOM      5  C   UNL     1      -2.006  12.383  21.547  0.00  0.00    +0.000 A 
ATOM      6  C   UNL     1      -1.525  11.804  22.722  0.00  0.00    +0.000 A 
ATOM      7  C   UNL     1      -0.596  10.766  22.663  0.00  0.00    +0.000 A 
ATOM      8  C   UNL     1      -0.146  10.303  21.420  0.00  0.00    +0.000 A 
ATOM      9  C   UNL     1       0.863   9.199  21.381  0.00  0.00    +0.000 C 
ATOM     10  O   UNL     1       1.271   8.681  22.416  0.00  0.00    +0.000 OA
ATOM     11  C   UNL     1       1.275   8.846  20.055  0.00  0.00    +0.000 A 
ATOM     12  O   UNL     1       2.222   7.911  19.824  0.00  0.00    +0.000 OA
ATOM     13  C   UNL     1       2.387   7.815  18.464  0.00  0.00    +0.000 A 
ATOM     14  C   UNL     1       1.525   8.710  17.845  0.00  0.00    +0.000 A 
ATOM     15  C   UNL     1       0.819   9.377  18.876  0.00  0.00    +0.000 A 
ENDROOT
BRANCH  13  16
ATOM     16  C   UNL     1       3.380   6.907  17.903  0.00  0.00    +0.000 C 
ATOM     17  O   UNL     1       4.436   7.338  17.427  0.00  0.00    +0.000 OA
ATOM     18  N   UNL     1       3.114   5.543  17.901  0.00  0.00    +0.000 N 
ATOM     19  C   UNL     1       4.075   4.576  17.412  0.00  0.00    +0.000 C 
ATOM     20  C   UNL     1       3.214   3.402  16.975  0.00  0.00    +0.000 C 
ATOM     21  C   UNL     1       2.058   3.414  17.966  0.00  0.00    +0.000 C 
ATOM     22  C   UNL     1       1.903   4.878  18.359  0.00  0.00    +0.000 C 
ENDBRANCH  13  16
TORSDOF 1
ENDMDL
MODEL 7
REMARK VINA RESULT:      -7.5      6.226      8.286
REMARK  Name = 
REMARK  1 active torsions:
REMARK  status: ('A' for Active; 'I' for Inactive)
REMARK    1  A    between atoms: C_13  and  C_14
REMARK                            x       y       z     vdW  Elec       q    Type
REMARK                         _______ _______ _______ _____ _____    ______ ____
ROOT
ATOM      1  O   UNL     1       0.386   9.608  23.642  0.00  0.00    +0.000 OA
ATOM      2  C   UNL     1       0.197   9.869  22.463  0.00  0.00    +0.000 C 
ATOM      3  C   UNL     1      -0.693  11.002  22.045  0.00  0.00    +0.000 A 
ATOM      4  C   UNL     1      -1.346  11.743  23.038  0.00  0.00    +0.000 A 
ATOM      5  C   UNL     1      -2.185  12.801  22.683  0.00  0.00    +0.000 A 
ATOM      6  C   UNL     1      -2.375  13.130  21.340  0.00  0.00    +0.000 A 
ATOM      7  C   UNL     1      -1.731  12.400  20.341  0.00  0.00    +0.000 A 
ATOM      8  C   UNL     1      -0.891  11.334  20.688  0.00  0.00    +0.000 A 
ATOM      9  C   UNL     1      -0.223  10.556  19.599  0.00  0.00    +0.000 C 
ATOM     10  O   UNL     1      -0.379  10.859  18.421  0.00  0.00    +0.000 OA
ATOM     11  C   UNL     1       0.573   9.466  20.081  0.00  0.00    +0.000 A 
ATOM     12  O   UNL     1       1.205   8.616  19.243  0.00  0.00    +0.000 OA
ATOM     13  C   UNL     1       1.869   7.692  20.012  0.00  0.00    +0.000 A 
ATOM     14  C   UNL     1       1.641   7.979  21.351  0.00  0.00    +0.000 A 
ATOM     15  C   UNL     1       0.798   9.118  21.388  0.00  0.00    +0.000 A 
ENDROOT
BRANCH  13  16
ATOM     16  C   UNL     1       2.618   6.610  19.384  0.00  0.00    +0.000 C 
ATOM     17  O   UNL     1       3.532   6.849  18.588  0.00  0.00    +0.000 OA
ATOM     18  N   UNL     1       2.276   5.297  19.686  0.00  0.00    +0.000 N 
ATOM     19  C   UNL     1       3.008   4.172  19.145  0.00  0.00    +0.000 C 
ATOM     20  C   UNL     1       1.990   3.043  19.152  0.00  0.00    +0.000 C 
ATOM     21  C   UNL     1       1.145   3.327  20.386  0.00  0.00    +0.000 C 
ATOM     22  C   UNL     1       1.192   4.841  20.545  0.00  0.00    +0.000 C 
ENDBRANCH  13  16
TORSDOF 1
ENDMDL
MODEL 8
REMARK VINA RESULT:      -7.4      5.016      6.793
REMARK  Name = 
REMARK  1 active torsions:
REMARK  status: ('A' for Active; 'I' for Inactive)
REMARK    1  A    between atoms: C_13  and  C_14
REMARK                            x       y       z     vdW  Elec       q    Type
REMARK                         _______ _______ _______ _____ _____    ______ ____
ROOT
ATOM      1  O   UNL     1       1.921   9.924  17.176  0.00  0.00    +0.000 OA
ATOM      2  C   UNL     1       1.646   9.550  18.308  0.00  0.00    +0.000 C 
ATOM      3  C   UNL     1       0.815  10.391  19.231  0.00  0.00    +0.000 A 
ATOM      4  C   UNL     1       0.384  11.648  18.787  0.00  0.00    +0.000 A 
ATOM      5  C   UNL     1      -0.388  12.457  19.622  0.00  0.00    +0.000 A 
ATOM      6  C   UNL     1      -0.738  12.020  20.900  0.00  0.00    +0.000 A 
ATOM      7  C   UNL     1      -0.315  10.771  21.356  0.00  0.00    +0.000 A 
ATOM      8  C   UNL     1       0.463   9.954  20.525  0.00  0.00    +0.000 A 
ATOM      9  C   UNL     1       0.919   8.626  21.040  0.00  0.00    +0.000 C 
ATOM     10  O   UNL     1       0.595   8.238  22.157  0.00  0.00    +0.000 OA
ATOM     11  C   UNL     1       1.742   7.905  20.114  0.00  0.00    +0.000 A 
ATOM     12  O   UNL     1       2.295   6.713  20.426  0.00  0.00    +0.000 OA
ATOM     13  C   UNL     1       3.022   6.296  19.338  0.00  0.00    +0.000 A 
ATOM     14  C   UNL     1       2.916   7.252  18.337  0.00  0.00    +0.000 A 
ATOM     15  C   UNL     1       2.098   8.290  18.847  0.00  0.00    +0.000 A 
ENDROOT
BRANCH  13  16
ATOM     16  C   UNL     1       3.774   5.048  19.387  0.00  0.00    +0.000 C 
ATOM     17  O   UNL     1       4.996   5.050  19.569  0.00  0.00    +0.000 OA
ATOM     18  N   UNL     1       3.093   3.849  19.210  0.00  0.00    +0.000 N 
ATOM     19  C   UNL     1       3.763   2.568  19.299  0.00  0.00    +0.000 C 
ATOM     20  C   UNL     1       2.906   1.654  18.439  0.00  0.00    +0.000 C 
ATOM     21  C   UNL     1       1.494   2.185  18.643  0.00  0.00    +0.000 C 
ATOM     22  C   UNL     1       1.678   3.671  18.922  0.00  0.00    +0.000 C 
ENDBRANCH  13  16
TORSDOF 1
ENDMDL
MODEL 9
REMARK VINA RESULT:      -7.4      5.380      7.931
REMARK  Name = 
REMARK  1 active torsions:
REMARK  status: ('A' for Active; 'I' for Inactive)
REMARK    1  A    between atoms: C_13  and  C_14
REMARK                            x       y       z     vdW  Elec       q    Type
REMARK                         _______ _______ _______ _____ _____    ______ ____
ROOT
ATOM      1  O   UNL     1       1.856   4.820  21.189  0.00  0.00    +0.000 OA
ATOM      2  C   UNL     1       2.189   5.563  20.276  0.00  0.00    +0.000 C 
ATOM      3  C   UNL     1       3.038   5.075  19.140  0.00  0.00    +0.000 A 
ATOM      4  C   UNL     1       3.486   3.748  19.160  0.00  0.00    +0.000 A 
ATOM      5  C   UNL     1       4.283   3.264  18.121  0.00  0.00    +0.000 A 
ATOM      6  C   UNL     1       4.634   4.094  17.056  0.00  0.00    +0.000 A 
ATOM      7  C   UNL     1       4.196   5.418  17.023  0.00  0.00    +0.000 A 
ATOM      8  C   UNL     1       3.399   5.914  18.064  0.00  0.00    +0.000 A 
ATOM      9  C   UNL     1       2.954   7.341  18.017  0.00  0.00    +0.000 C 
ATOM     10  O   UNL     1       3.251   8.063  17.071  0.00  0.00    +0.000 OA
ATOM     11  C   UNL     1       2.184   7.738  19.159  0.00  0.00    +0.000 A 
ATOM     12  O   UNL     1       1.744   9.005  19.320  0.00  0.00    +0.000 OA
ATOM     13  C   UNL     1       1.051   9.056  20.505  0.00  0.00    +0.000 A 
ATOM     14  C   UNL     1       1.066   7.794  21.085  0.00  0.00    +0.000 A 
ATOM     15  C   UNL     1       1.805   6.953  20.217  0.00  0.00    +0.000 A 
ENDROOT
BRANCH  13  16
ATOM     16  C   UNL     1       0.485  10.313  20.975  0.00  0.00    +0.000 C 
ATOM     17  O   UNL     1       0.844  10.809  22.048  0.00  0.00    +0.000 OA
ATOM     18  N   UNL     1      -0.481  10.944  20.200  0.00  0.00    +0.000 N 
ATOM     19  C   UNL     1      -1.050  12.222  20.574  0.00  0.00    +0.000 C 
ATOM     20  C   UNL     1      -2.418  12.215  19.911  0.00  0.00    +0.000 C 
ATOM     21  C   UNL     1      -2.190  11.437  18.622  0.00  0.00    +0.000 C 
ATOM     22  C   UNL     1      -1.061  10.469  18.952  0.00  0.00    +0.000 C 
ENDBRANCH  13  16
TORSDOF 1
ENDMDL
