MODEL 1
REMARK VINA RESULT:      -7.5      0.000      0.000
REMARK  Name = 
REMARK  8 active torsions:
REMARK  status: ('A' for Active; 'I' for Inactive)
REMARK    1  A    between atoms: C_1  and  C_2
REMARK    2  A    between atoms: C_2  and  C_3
REMARK    3  A    between atoms: C_3  and  N_4
REMARK    4  A    between atoms: C_3  and  C_17
REMARK    5  A    between atoms: C_5  and  C_7
REMARK    6  A    between atoms: C_7  and  S_8
REMARK    7  A    between atoms: S_8  and  C_9
REMARK    8  A    between atoms: N_13  and  C_14
REMARK                            x       y       z     vdW  Elec       q    Type
REMARK                         _______ _______ _______ _____ _____    ______ ____
ROOT
ATOM      1  N   UNL     1       3.990   4.807  18.519  0.00  0.00    +0.000 N 
ATOM      2  C   UNL     1       5.355   4.901  18.698  0.00  0.00    +0.000 C 
ATOM      3  O   UNL     1       5.862   5.359  19.719  0.00  0.00    +0.000 OA
ATOM      4  H   UNL     1       3.618   4.492  17.633  0.00  0.00    +0.000 HD
ENDROOT
BRANCH   1   5
ATOM      5  C   UNL     1       3.047   5.188  19.560  0.00  0.00    +0.000 C 
BRANCH   5   6
ATOM      6  C   UNL     1       2.557   6.616  19.360  0.00  0.00    +0.000 A 
ATOM      7  C   UNL     1       1.908   7.283  20.414  0.00  0.00    +0.000 A 
ATOM      8  C   UNL     1       1.394   8.570  20.239  0.00  0.00    +0.000 A 
ATOM      9  C   UNL     1       1.530   9.207  19.010  0.00  0.00    +0.000 A 
ATOM     10 BR   UNL     1       0.815  10.939  18.764  0.00  0.00    +0.000 Br
ATOM     11  C   UNL     1       2.188   8.574  17.958  0.00  0.00    +0.000 A 
ATOM     12  C   UNL     1       2.703   7.286  18.134  0.00  0.00    +0.000 A 
ENDBRANCH   5   6
BRANCH   5  14
ATOM     13  C   UNL     1       1.468   3.674  18.251  0.00  0.00    +0.000 C 
ATOM     14  C   UNL     1       1.865   4.201  19.624  0.00  0.00    +0.000 C 
ENDBRANCH   5  14
ENDBRANCH   1   5
BRANCH   2  15
ATOM     15  C   UNL     1       6.182   4.395  17.523  0.00  0.00    +0.000 C 
BRANCH  15  16
ATOM     16  S   UNL     1       5.176   4.309  16.008  0.00  0.00    +0.000 S 
BRANCH  16  17
ATOM     17  C   UNL     1       6.336   4.731  14.797  0.00  0.00    +0.000 A 
ATOM     18  N   UNL     1       7.285   5.635  14.911  0.00  0.00    +0.000 NA
ATOM     19  N   UNL     1       8.012   5.565  13.745  0.00  0.00    +0.000 NA
ATOM     20  N   UNL     1       7.526   4.638  12.930  0.00  0.00    +0.000 NA
ATOM     21  N   UNL     1       6.455   4.125  13.568  0.00  0.00    +0.000 N 
BRANCH  21  22
ATOM     22  C   UNL     1       5.565   3.154  12.964  0.00  0.00    +0.000 C 
ATOM     23  C   UNL     1       4.693   3.561  11.781  0.00  0.00    +0.000 C 
ATOM     24  C   UNL     1       5.787   2.576  11.574  0.00  0.00    +0.000 C 
ENDBRANCH  21  22
ENDBRANCH  16  17
ENDBRANCH  15  16
ENDBRANCH   2  15
TORSDOF 7
ENDMDL
MODEL 2
REMARK VINA RESULT:      -7.4      1.834      3.007
REMARK  Name = 
REMARK  8 active torsions:
REMARK  status: ('A' for Active; 'I' for Inactive)
REMARK    1  A    between atoms: C_1  and  C_2
REMARK    2  A    between atoms: C_2  and  C_3
REMARK    3  A    between atoms: C_3  and  N_4
REMARK    4  A    between atoms: C_3  and  C_17
REMARK    5  A    between atoms: C_5  and  C_7
REMARK    6  A    between atoms: C_7  and  S_8
REMARK    7  A    between atoms: S_8  and  C_9
REMARK    8  A    between atoms: N_13  and  C_14
REMARK                            x       y       z     vdW  Elec       q    Type
REMARK                         _______ _______ _______ _____ _____    ______ ____
ROOT
ATOM      1  N   UNL     1       3.302   4.496  18.934  0.00  0.00    +0.000 N 
ATOM      2  C   UNL     1       4.286   3.532  19.012  0.00  0.00    +0.000 C 
ATOM      3  O   UNL     1       4.695   3.083  20.081  0.00  0.00    +0.000 OA
ATOM      4  H   UNL     1       3.049   4.887  18.036  0.00  0.00    +0.000 HD
ENDROOT
BRANCH   1   5
ATOM      5  C   UNL     1       2.628   5.009  20.118  0.00  0.00    +0.000 C 
BRANCH   5   6
ATOM      6  C   UNL     1       2.219   6.464  19.928  0.00  0.00    +0.000 A 
ATOM      7  C   UNL     1       1.567   7.144  20.971  0.00  0.00    +0.000 A 
ATOM      8  C   UNL     1       1.126   8.459  20.803  0.00  0.00    +0.000 A 
ATOM      9  C   UNL     1       1.340   9.110  19.592  0.00  0.00    +0.000 A 
ATOM     10 BR   UNL     1       0.724  10.881  19.354  0.00  0.00    +0.000 Br
ATOM     11  C   UNL     1       2.002   8.462  18.552  0.00  0.00    +0.000 A 
ATOM     12  C   UNL     1       2.444   7.146  18.721  0.00  0.00    +0.000 A 
ENDBRANCH   5   6
BRANCH   5  14
ATOM     13  C   UNL     1       1.703   3.182  21.637  0.00  0.00    +0.000 C 
ATOM     14  C   UNL     1       1.413   4.136  20.485  0.00  0.00    +0.000 C 
ENDBRANCH   5  14
ENDBRANCH   1   5
BRANCH   2  15
ATOM     15  C   UNL     1       4.827   3.072  17.665  0.00  0.00    +0.000 C 
BRANCH  15  16
ATOM     16  S   UNL     1       4.272   4.176  16.328  0.00  0.00    +0.000 S 
BRANCH  16  17
ATOM     17  C   UNL     1       5.778   4.670  15.637  0.00  0.00    +0.000 A 
ATOM     18  N   UNL     1       6.269   4.276  14.482  0.00  0.00    +0.000 NA
ATOM     19  N   UNL     1       7.432   4.989  14.306  0.00  0.00    +0.000 NA
ATOM     20  N   UNL     1       7.654   5.807  15.326  0.00  0.00    +0.000 NA
ATOM     21  N   UNL     1       6.636   5.596  16.183  0.00  0.00    +0.000 N 
BRANCH  21  22
ATOM     22  C   UNL     1       6.562   6.216  17.492  0.00  0.00    +0.000 C 
ATOM     23  C   UNL     1       7.395   5.658  18.640  0.00  0.00    +0.000 C 
ATOM     24  C   UNL     1       7.709   7.008  18.101  0.00  0.00    +0.000 C 
ENDBRANCH  21  22
ENDBRANCH  16  17
ENDBRANCH  15  16
ENDBRANCH   2  15
TORSDOF 7
ENDMDL
MODEL 3
REMARK VINA RESULT:      -7.3      1.145      1.632
REMARK  Name = 
REMARK  8 active torsions:
REMARK  status: ('A' for Active; 'I' for Inactive)
REMARK    1  A    between atoms: C_1  and  C_2
REMARK    2  A    between atoms: C_2  and  C_3
REMARK    3  A    between atoms: C_3  and  N_4
REMARK    4  A    between atoms: C_3  and  C_17
REMARK    5  A    between atoms: C_5  and  C_7
REMARK    6  A    between atoms: C_7  and  S_8
REMARK    7  A    between atoms: S_8  and  C_9
REMARK    8  A    between atoms: N_13  and  C_14
REMARK                            x       y       z     vdW  Elec       q    Type
REMARK                         _______ _______ _______ _____ _____    ______ ____
ROOT
ATOM      1  N   UNL     1       3.212   4.419  18.973  0.00  0.00    +0.000 N 
ATOM      2  C   UNL     1       4.436   3.796  18.844  0.00  0.00    +0.000 C 
ATOM      3  O   UNL     1       5.310   3.860  19.704  0.00  0.00    +0.000 OA
ATOM      4  H   UNL     1       2.552   4.399  18.207  0.00  0.00    +0.000 HD
ENDROOT
BRANCH   1   5
ATOM      5  C   UNL     1       2.842   5.151  20.176  0.00  0.00    +0.000 C 
BRANCH   5   6
ATOM      6  C   UNL     1       2.307   6.535  19.831  0.00  0.00    +0.000 A 
ATOM      7  C   UNL     1       2.507   7.057  18.542  0.00  0.00    +0.000 A 
ATOM      8  C   UNL     1       2.082   8.347  18.216  0.00  0.00    +0.000 A 
ATOM      9  C   UNL     1       1.445   9.127  19.176  0.00  0.00    +0.000 A 
ATOM     10 BR   UNL     1       0.889  10.881  18.746  0.00  0.00    +0.000 Br
ATOM     11  C   UNL     1       1.217   8.623  20.455  0.00  0.00    +0.000 A 
ATOM     12  C   UNL     1       1.643   7.331  20.779  0.00  0.00    +0.000 A 
ENDBRANCH   5   6
BRANCH   5  14
ATOM     13  C   UNL     1       0.904   3.495  20.159  0.00  0.00    +0.000 C 
ATOM     14  C   UNL     1       1.823   4.358  21.015  0.00  0.00    +0.000 C 
ENDBRANCH   5  14
ENDBRANCH   1   5
BRANCH   2  15
ATOM     15  C   UNL     1       4.616   3.024  17.543  0.00  0.00    +0.000 C 
BRANCH  15  16
ATOM     16  S   UNL     1       4.154   4.047  16.109  0.00  0.00    +0.000 S 
BRANCH  16  17
ATOM     17  C   UNL     1       5.653   4.825  15.740  0.00  0.00    +0.000 A 
ATOM     18  N   UNL     1       6.206   5.808  16.417  0.00  0.00    +0.000 NA
ATOM     19  N   UNL     1       7.420   6.043  15.815  0.00  0.00    +0.000 NA
ATOM     20  N   UNL     1       7.615   5.223  14.791  0.00  0.00    +0.000 NA
ATOM     21  N   UNL     1       6.500   4.470  14.716  0.00  0.00    +0.000 N 
BRANCH  21  22
ATOM     22  C   UNL     1       6.259   3.517  13.650  0.00  0.00    +0.000 C 
ATOM     23  C   UNL     1       5.265   3.855  12.544  0.00  0.00    +0.000 C 
ATOM     24  C   UNL     1       6.711   3.744  12.215  0.00  0.00    +0.000 C 
ENDBRANCH  21  22
ENDBRANCH  16  17
ENDBRANCH  15  16
ENDBRANCH   2  15
TORSDOF 7
ENDMDL
MODEL 4
REMARK VINA RESULT:      -7.1      1.875      3.193
REMARK  Name = 
REMARK  8 active torsions:
REMARK  status: ('A' for Active; 'I' for Inactive)
REMARK    1  A    between atoms: C_1  and  C_2
REMARK    2  A    between atoms: C_2  and  C_3
REMARK    3  A    between atoms: C_3  and  N_4
REMARK    4  A    between atoms: C_3  and  C_17
REMARK    5  A    between atoms: C_5  and  C_7
REMARK    6  A    between atoms: C_7  and  S_8
REMARK    7  A    between atoms: S_8  and  C_9
REMARK    8  A    between atoms: N_13  and  C_14
REMARK                            x       y       z     vdW  Elec       q    Type
REMARK                         _______ _______ _______ _____ _____    ______ ____
ROOT
ATOM      1  N   UNL     1       3.306   4.623  19.037  0.00  0.00    +0.000 N 
ATOM      2  C   UNL     1       4.196   3.576  19.157  0.00  0.00    +0.000 C 
ATOM      3  O   UNL     1       4.373   2.970  20.211  0.00  0.00    +0.000 OA
ATOM      4  H   UNL     1       3.247   5.139  18.169  0.00  0.00    +0.000 HD
ENDROOT
BRANCH   1   5
ATOM      5  C   UNL     1       2.461   5.048  20.143  0.00  0.00    +0.000 C 
BRANCH   5   6
ATOM      6  C   UNL     1       2.023   6.497  19.972  0.00  0.00    +0.000 A 
ATOM      7  C   UNL     1       2.310   7.174  18.774  0.00  0.00    +0.000 A 
ATOM      8  C   UNL     1       1.974   8.520  18.613  0.00  0.00    +0.000 A 
ATOM      9  C   UNL     1       1.342   9.203  19.647  0.00  0.00    +0.000 A 
ATOM     10 BR   UNL     1       0.908  11.031  19.440  0.00  0.00    +0.000 Br
ATOM     11  C   UNL     1       1.029   8.547  20.835  0.00  0.00    +0.000 A 
ATOM     12  C   UNL     1       1.364   7.199  20.995  0.00  0.00    +0.000 A 
ENDBRANCH   5   6
BRANCH   5  14
ATOM     13  C   UNL     1       1.398   3.139  21.457  0.00  0.00    +0.000 C 
ATOM     14  C   UNL     1       1.243   4.117  20.299  0.00  0.00    +0.000 C 
ENDBRANCH   5  14
ENDBRANCH   1   5
BRANCH   2  15
ATOM     15  C   UNL     1       4.945   3.234  17.875  0.00  0.00    +0.000 C 
BRANCH  15  16
ATOM     16  S   UNL     1       4.320   4.216  16.475  0.00  0.00    +0.000 S 
BRANCH  16  17
ATOM     17  C   UNL     1       5.791   4.698  15.705  0.00  0.00    +0.000 A 
ATOM     18  N   UNL     1       6.247   4.255  14.554  0.00  0.00    +0.000 NA
ATOM     19  N   UNL     1       7.391   4.977  14.300  0.00  0.00    +0.000 NA
ATOM     20  N   UNL     1       7.634   5.849  15.270  0.00  0.00    +0.000 NA
ATOM     21  N   UNL     1       6.651   5.665  16.173  0.00  0.00    +0.000 N 
BRANCH  21  22
ATOM     22  C   UNL     1       6.613   6.347  17.451  0.00  0.00    +0.000 C 
ATOM     23  C   UNL     1       7.610   5.968  18.541  0.00  0.00    +0.000 C 
ATOM     24  C   UNL     1       7.697   7.312  17.910  0.00  0.00    +0.000 C 
ENDBRANCH  21  22
ENDBRANCH  16  17
ENDBRANCH  15  16
ENDBRANCH   2  15
TORSDOF 7
ENDMDL
MODEL 5
REMARK VINA RESULT:      -7.1      0.948      1.422
REMARK  Name = 
REMARK  8 active torsions:
REMARK  status: ('A' for Active; 'I' for Inactive)
REMARK    1  A    between atoms: C_1  and  C_2
REMARK    2  A    between atoms: C_2  and  C_3
REMARK    3  A    between atoms: C_3  and  N_4
REMARK    4  A    between atoms: C_3  and  C_17
REMARK    5  A    between atoms: C_5  and  C_7
REMARK    6  A    between atoms: C_7  and  S_8
REMARK    7  A    between atoms: S_8  and  C_9
REMARK    8  A    between atoms: N_13  and  C_14
REMARK                            x       y       z     vdW  Elec       q    Type
REMARK                         _______ _______ _______ _____ _____    ______ ____
ROOT
ATOM      1  N   UNL     1       3.157   5.413  18.350  0.00  0.00    +0.000 N 
ATOM      2  C   UNL     1       4.396   5.388  17.743  0.00  0.00    +0.000 C 
ATOM      3  O   UNL     1       5.382   5.947  18.218  0.00  0.00    +0.000 OA
ATOM      4  H   UNL     1       2.359   5.000  17.886  0.00  0.00    +0.000 HD
ENDROOT
BRANCH   1   5
ATOM      5  C   UNL     1       2.943   6.055  19.639  0.00  0.00    +0.000 C 
BRANCH   5   6
ATOM      6  C   UNL     1       2.174   7.361  19.479  0.00  0.00    +0.000 A 
ATOM      7  C   UNL     1       2.164   8.013  18.234  0.00  0.00    +0.000 A 
ATOM      8  C   UNL     1       1.519   9.242  18.074  0.00  0.00    +0.000 A 
ATOM      9  C   UNL     1       0.871   9.828  19.157  0.00  0.00    +0.000 A 
ATOM     10 BR   UNL     1       0.018  11.502  18.949  0.00  0.00    +0.000 Br
ATOM     11  C   UNL     1       0.851   9.190  20.395  0.00  0.00    +0.000 A 
ATOM     12  C   UNL     1       1.496   7.959  20.553  0.00  0.00    +0.000 A 
ENDBRANCH   5   6
BRANCH   5  14
ATOM     13  C   UNL     1       1.393   4.048  19.902  0.00  0.00    +0.000 C 
ATOM     14  C   UNL     1       2.223   5.107  20.617  0.00  0.00    +0.000 C 
ENDBRANCH   5  14
ENDBRANCH   1   5
BRANCH   2  15
ATOM     15  C   UNL     1       4.440   4.613  16.432  0.00  0.00    +0.000 C 
BRANCH  15  16
ATOM     16  S   UNL     1       5.992   3.674  16.282  0.00  0.00    +0.000 S 
BRANCH  16  17
ATOM     17  C   UNL     1       6.748   4.464  14.943  0.00  0.00    +0.000 A 
ATOM     18  N   UNL     1       7.656   5.412  15.011  0.00  0.00    +0.000 NA
ATOM     19  N   UNL     1       8.028   5.671  13.712  0.00  0.00    +0.000 NA
ATOM     20  N   UNL     1       7.368   4.897  12.860  0.00  0.00    +0.000 NA
ATOM     21  N   UNL     1       6.540   4.153  13.618  0.00  0.00    +0.000 N 
BRANCH  21  22
ATOM     22  C   UNL     1       5.552   3.250  13.060  0.00  0.00    +0.000 C 
ATOM     23  C   UNL     1       4.743   3.676  11.840  0.00  0.00    +0.000 C 
ATOM     24  C   UNL     1       5.723   2.565  11.712  0.00  0.00    +0.000 C 
ENDBRANCH  21  22
ENDBRANCH  16  17
ENDBRANCH  15  16
ENDBRANCH   2  15
TORSDOF 7
ENDMDL
MODEL 6
REMARK VINA RESULT:      -6.9      1.459      2.045
REMARK  Name = 
REMARK  8 active torsions:
REMARK  status: ('A' for Active; 'I' for Inactive)
REMARK    1  A    between atoms: C_1  and  C_2
REMARK    2  A    between atoms: C_2  and  C_3
REMARK    3  A    between atoms: C_3  and  N_4
REMARK    4  A    between atoms: C_3  and  C_17
REMARK    5  A    between atoms: C_5  and  C_7
REMARK    6  A    between atoms: C_7  and  S_8
REMARK    7  A    between atoms: S_8  and  C_9
REMARK    8  A    between atoms: N_13  and  C_14
REMARK                            x       y       z     vdW  Elec       q    Type
REMARK                         _______ _______ _______ _____ _____    ______ ____
ROOT
ATOM      1  N   UNL     1       4.522   5.764  19.042  0.00  0.00    +0.000 N 
ATOM      2  C   UNL     1       5.421   4.729  19.195  0.00  0.00    +0.000 C 
ATOM      3  O   UNL     1       5.075   3.577  19.442  0.00  0.00    +0.000 OA
ATOM      4  H   UNL     1       4.857   6.710  18.912  0.00  0.00    +0.000 HD
ENDROOT
BRANCH   1   5
ATOM      5  C   UNL     1       3.083   5.551  19.099  0.00  0.00    +0.000 C 
BRANCH   5   6
ATOM      6  C   UNL     1       2.345   6.859  19.351  0.00  0.00    +0.000 A 
ATOM      7  C   UNL     1       2.271   7.823  18.330  0.00  0.00    +0.000 A 
ATOM      8  C   UNL     1       1.653   9.057  18.553  0.00  0.00    +0.000 A 
ATOM      9  C   UNL     1       1.097   9.336  19.797  0.00  0.00    +0.000 A 
ATOM     10 BR   UNL     1       0.282  11.013  20.108  0.00  0.00    +0.000 Br
ATOM     11  C   UNL     1       1.141   8.388  20.817  0.00  0.00    +0.000 A 
ATOM     12  C   UNL     1       1.758   7.153  20.592  0.00  0.00    +0.000 A 
ENDBRANCH   5   6
BRANCH   5  14
ATOM     13  C   UNL     1       1.613   3.720  18.105  0.00  0.00    +0.000 C 
ATOM     14  C   UNL     1       2.574   4.867  17.816  0.00  0.00    +0.000 C 
ENDBRANCH   5  14
ENDBRANCH   1   5
BRANCH   2  15
ATOM     15  C   UNL     1       6.881   5.135  19.038  0.00  0.00    +0.000 C 
BRANCH  15  16
ATOM     16  S   UNL     1       7.502   4.706  17.382  0.00  0.00    +0.000 S 
BRANCH  16  17
ATOM     17  C   UNL     1       6.437   5.612  16.366  0.00  0.00    +0.000 A 
ATOM     18  N   UNL     1       5.895   6.776  16.650  0.00  0.00    +0.000 NA
ATOM     19  N   UNL     1       5.201   7.153  15.523  0.00  0.00    +0.000 NA
ATOM     20  N   UNL     1       5.314   6.245  14.563  0.00  0.00    +0.000 NA
ATOM     21  N   UNL     1       6.066   5.258  15.089  0.00  0.00    +0.000 N 
BRANCH  21  22
ATOM     22  C   UNL     1       6.332   4.012  14.398  0.00  0.00    +0.000 C 
ATOM     23  C   UNL     1       5.432   3.579  13.246  0.00  0.00    +0.000 C 
ATOM     24  C   UNL     1       6.845   3.950  12.966  0.00  0.00    +0.000 C 
ENDBRANCH  21  22
ENDBRANCH  16  17
ENDBRANCH  15  16
ENDBRANCH   2  15
TORSDOF 7
ENDMDL
MODEL 7
REMARK VINA RESULT:      -6.9      2.221      3.389
REMARK  Name = 
REMARK  8 active torsions:
REMARK  status: ('A' for Active; 'I' for Inactive)
REMARK    1  A    between atoms: C_1  and  C_2
REMARK    2  A    between atoms: C_2  and  C_3
REMARK    3  A    between atoms: C_3  and  N_4
REMARK    4  A    between atoms: C_3  and  C_17
REMARK    5  A    between atoms: C_5  and  C_7
REMARK    6  A    between atoms: C_7  and  S_8
REMARK    7  A    between atoms: S_8  and  C_9
REMARK    8  A    between atoms: N_13  and  C_14
REMARK                            x       y       z     vdW  Elec       q    Type
REMARK                         _______ _______ _______ _____ _____    ______ ____
ROOT
ATOM      1  N   UNL     1       3.346   5.197  18.899  0.00  0.00    +0.000 N 
ATOM      2  C   UNL     1       2.637   4.565  17.898  0.00  0.00    +0.000 C 
ATOM      3  O   UNL     1       1.420   4.401  17.945  0.00  0.00    +0.000 OA
ATOM      4  H   UNL     1       4.354   5.245  18.851  0.00  0.00    +0.000 HD
ENDROOT
BRANCH   1   5
ATOM      5  C   UNL     1       2.688   5.776  20.063  0.00  0.00    +0.000 C 
BRANCH   5   6
ATOM      6  C   UNL     1       2.172   7.176  19.760  0.00  0.00    +0.000 A 
ATOM      7  C   UNL     1       1.450   7.878  20.741  0.00  0.00    +0.000 A 
ATOM      8  C   UNL     1       0.912   9.139  20.470  0.00  0.00    +0.000 A 
ATOM      9  C   UNL     1       1.098   9.714  19.218  0.00  0.00    +0.000 A 
ATOM     10 BR   UNL     1       0.352  11.410  18.841  0.00  0.00    +0.000 Br
ATOM     11  C   UNL     1       1.828   9.046  18.237  0.00  0.00    +0.000 A 
ATOM     12  C   UNL     1       2.367   7.785  18.510  0.00  0.00    +0.000 A 
ENDBRANCH   5   6
BRANCH   5  14
ATOM     13  C   UNL     1       2.053   3.764  21.494  0.00  0.00    +0.000 C 
ATOM     14  C   UNL     1       1.553   4.865  20.567  0.00  0.00    +0.000 C 
ENDBRANCH   5  14
ENDBRANCH   1   5
BRANCH   2  15
ATOM     15  C   UNL     1       3.489   4.083  16.731  0.00  0.00    +0.000 C 
BRANCH  15  16
ATOM     16  S   UNL     1       5.089   3.439  17.314  0.00  0.00    +0.000 S 
BRANCH  16  17
ATOM     17  C   UNL     1       6.200   4.332  16.335  0.00  0.00    +0.000 A 
ATOM     18  N   UNL     1       6.542   4.053  15.096  0.00  0.00    +0.000 NA
ATOM     19  N   UNL     1       7.373   5.074  14.697  0.00  0.00    +0.000 NA
ATOM     20  N   UNL     1       7.538   5.965  15.665  0.00  0.00    +0.000 NA
ATOM     21  N   UNL     1       6.829   5.497  16.710  0.00  0.00    +0.000 N 
BRANCH  21  22
ATOM     22  C   UNL     1       6.837   6.123  18.017  0.00  0.00    +0.000 C 
ATOM     23  C   UNL     1       7.845   5.667  19.067  0.00  0.00    +0.000 C 
ATOM     24  C   UNL     1       7.959   7.034  18.493  0.00  0.00    +0.000 C 
ENDBRANCH  21  22
ENDBRANCH  16  17
ENDBRANCH  15  16
ENDBRANCH   2  15
TORSDOF 7
ENDMDL
MODEL 8
REMARK VINA RESULT:      -6.8      2.695      3.727
REMARK  Name = 
REMARK  8 active torsions:
REMARK  status: ('A' for Active; 'I' for Inactive)
REMARK    1  A    between atoms: C_1  and  C_2
REMARK    2  A    between atoms: C_2  and  C_3
REMARK    3  A    between atoms: C_3  and  N_4
REMARK    4  A    between atoms: C_3  and  C_17
REMARK    5  A    between atoms: C_5  and  C_7
REMARK    6  A    between atoms: C_7  and  S_8
REMARK    7  A    between atoms: S_8  and  C_9
REMARK    8  A    between atoms: N_13  and  C_14
REMARK                            x       y       z     vdW  Elec       q    Type
REMARK                         _______ _______ _______ _____ _____    ______ ____
ROOT
ATOM      1  N   UNL     1       2.753   6.584  19.566  0.00  0.00    +0.000 N 
ATOM      2  C   UNL     1       2.638   5.240  19.276  0.00  0.00    +0.000 C 
ATOM      3  O   UNL     1       1.854   4.805  18.435  0.00  0.00    +0.000 OA
ATOM      4  H   UNL     1       3.359   6.888  20.317  0.00  0.00    +0.000 HD
ENDROOT
BRANCH   1   5
ATOM      5  C   UNL     1       1.996   7.597  18.845  0.00  0.00    +0.000 C 
BRANCH   5   6
ATOM      6  C   UNL     1       1.305   8.553  19.808  0.00  0.00    +0.000 A 
ATOM      7  C   UNL     1       1.207   8.218  21.170  0.00  0.00    +0.000 A 
ATOM      8  C   UNL     1       0.526   9.046  22.065  0.00  0.00    +0.000 A 
ATOM      9  C   UNL     1      -0.059  10.223  21.609  0.00  0.00    +0.000 A 
ATOM     10 BR   UNL     1      -1.001  11.334  22.813  0.00  0.00    +0.000 Br
ATOM     11  C   UNL     1       0.043  10.586  20.268  0.00  0.00    +0.000 A 
ATOM     12  C   UNL     1       0.726   9.756  19.373  0.00  0.00    +0.000 A 
ENDBRANCH   5   6
BRANCH   5  14
ATOM     13  C   UNL     1       4.036   7.506  17.318  0.00  0.00    +0.000 C 
ATOM     14  C   UNL     1       2.897   8.363  17.857  0.00  0.00    +0.000 C 
ENDBRANCH   5  14
ENDBRANCH   1   5
BRANCH   2  15
ATOM     15  C   UNL     1       3.557   4.338  20.089  0.00  0.00    +0.000 C 
BRANCH  15  16
ATOM     16  S   UNL     1       4.648   3.369  19.001  0.00  0.00    +0.000 S 
BRANCH  16  17
ATOM     17  C   UNL     1       5.926   4.495  18.698  0.00  0.00    +0.000 A 
ATOM     18  N   UNL     1       6.484   5.293  19.581  0.00  0.00    +0.000 NA
ATOM     19  N   UNL     1       7.502   5.935  18.916  0.00  0.00    +0.000 NA
ATOM     20  N   UNL     1       7.575   5.541  17.652  0.00  0.00    +0.000 NA
ATOM     21  N   UNL     1       6.571   4.656  17.494  0.00  0.00    +0.000 N 
BRANCH  21  22
ATOM     22  C   UNL     1       6.228   4.069  16.213  0.00  0.00    +0.000 C 
ATOM     23  C   UNL     1       5.407   4.871  15.209  0.00  0.00    +0.000 C 
ATOM     24  C   UNL     1       6.823   4.544  14.896  0.00  0.00    +0.000 C 
ENDBRANCH  21  22
ENDBRANCH  16  17
ENDBRANCH  15  16
ENDBRANCH   2  15
TORSDOF 7
ENDMDL
MODEL 9
REMARK VINA RESULT:      -6.8      4.533      6.233
REMARK  Name = 
REMARK  8 active torsions:
REMARK  status: ('A' for Active; 'I' for Inactive)
REMARK    1  A    between atoms: C_1  and  C_2
REMARK    2  A    between atoms: C_2  and  C_3
REMARK    3  A    between atoms: C_3  and  N_4
REMARK    4  A    between atoms: C_3  and  C_17
REMARK    5  A    between atoms: C_5  and  C_7
REMARK    6  A    between atoms: C_7  and  S_8
REMARK    7  A    between atoms: S_8  and  C_9
REMARK    8  A    between atoms: N_13  and  C_14
REMARK                            x       y       z     vdW  Elec       q    Type
REMARK                         _______ _______ _______ _____ _____    ______ ____
ROOT
ATOM      1  N   UNL     1       1.212   8.912  19.236  0.00  0.00    +0.000 N 
ATOM      2  C   UNL     1       2.117   8.634  18.233  0.00  0.00    +0.000 C 
ATOM      3  O   UNL     1       2.595   9.503  17.507  0.00  0.00    +0.000 OA
ATOM      4  H   UNL     1       0.790   8.156  19.759  0.00  0.00    +0.000 HD
ENDROOT
BRANCH   1   5
ATOM      5  C   UNL     1       0.804  10.274  19.552  0.00  0.00    +0.000 C 
BRANCH   5   6
ATOM      6  C   UNL     1      -0.538  10.605  18.914  0.00  0.00    +0.000 A 
ATOM      7  C   UNL     1      -1.368  11.575  19.503  0.00  0.00    +0.000 A 
ATOM      8  C   UNL     1      -2.630  11.856  18.974  0.00  0.00    +0.000 A 
ATOM      9  C   UNL     1      -3.073  11.173  17.846  0.00  0.00    +0.000 A 
ATOM     10 BR   UNL     1      -4.790  11.534  17.143  0.00  0.00    +0.000 Br
ATOM     11  C   UNL     1      -2.261  10.222  17.234  0.00  0.00    +0.000 A 
ATOM     12  C   UNL     1      -0.997   9.943  17.763  0.00  0.00    +0.000 A 
ENDBRANCH   5   6
BRANCH   5  14
ATOM     13  C   UNL     1       1.094   9.238  21.864  0.00  0.00    +0.000 C 
ATOM     14  C   UNL     1       0.763  10.500  21.076  0.00  0.00    +0.000 C 
ENDBRANCH   5  14
ENDBRANCH   1   5
BRANCH   2  15
ATOM     15  C   UNL     1       2.471   7.159  18.094  0.00  0.00    +0.000 C 
BRANCH  15  16
ATOM     16  S   UNL     1       2.493   6.339  19.718  0.00  0.00    +0.000 S 
BRANCH  16  17
ATOM     17  C   UNL     1       3.760   5.181  19.506  0.00  0.00    +0.000 A 
ATOM     18  N   UNL     1       4.997   5.440  19.145  0.00  0.00    +0.000 NA
ATOM     19  N   UNL     1       5.663   4.237  19.193  0.00  0.00    +0.000 NA
ATOM     20  N   UNL     1       4.857   3.257  19.579  0.00  0.00    +0.000 NA
ATOM     21  N   UNL     1       3.650   3.832  19.752  0.00  0.00    +0.000 N 
BRANCH  21  22
ATOM     22  C   UNL     1       2.452   3.078  20.065  0.00  0.00    +0.000 C 
ATOM     23  C   UNL     1       2.133   2.734  21.516  0.00  0.00    +0.000 C 
ATOM     24  C   UNL     1       1.254   3.684  20.782  0.00  0.00    +0.000 C 
ENDBRANCH  21  22
ENDBRANCH  16  17
ENDBRANCH  15  16
ENDBRANCH   2  15
TORSDOF 7
ENDMDL
