MODEL 1
REMARK VINA RESULT:      -8.1      0.000      0.000
REMARK  Name = 
REMARK  7 active torsions:
REMARK  status: ('A' for Active; 'I' for Inactive)
REMARK    1  A    between atoms: C_1  and  O_2
REMARK    2  A    between atoms: O_2  and  C_3
REMARK    3  A    between atoms: C_10  and  C_11
REMARK    4  A    between atoms: C_11  and  O_13
REMARK    5  A    between atoms: O_13  and  C_14
REMARK    6  A    between atoms: C_14  and  C_15
REMARK    7  A    between atoms: C_18  and  N_19
REMARK                            x       y       z     vdW  Elec       q    Type
REMARK                         _______ _______ _______ _____ _____    ______ ____
ROOT
ATOM      1  C   UNL     1       5.916   4.579  15.032  0.00  0.00    +0.000 C 
ATOM      2  O   UNL     1       5.934   5.783  14.829  0.00  0.00    +0.000 OA
ATOM      3  N   UNL     1       5.281   3.887  16.026  0.00  0.00    +0.000 N 
ATOM      4  C   UNL     1       4.520   4.521  16.971  0.00  0.00    +0.000 A 
ATOM      5  N   UNL     1       4.251   5.800  17.058  0.00  0.00    +0.000 NA
ATOM      6  C   UNL     1       3.465   5.953  18.165  0.00  0.00    +0.000 A 
ATOM      7  C   UNL     1       2.909   7.122  18.697  0.00  0.00    +0.000 A 
ATOM      8  C   UNL     1       2.130   7.026  19.857  0.00  0.00    +0.000 A 
ATOM      9  C   UNL     1       1.926   5.776  20.470  0.00  0.00    +0.000 A 
ATOM     10  C   UNL     1       2.477   4.596  19.945  0.00  0.00    +0.000 A 
ATOM     11  C   UNL     1       3.239   4.731  18.784  0.00  0.00    +0.000 A 
ATOM     12  N   UNL     1       3.913   3.830  17.993  0.00  0.00    +0.000 N 
ATOM     13  H   UNL     1       5.417   2.891  16.035  0.00  0.00    +0.000 HD
ATOM     14  H   UNL     1       3.959   2.835  18.143  0.00  0.00    +0.000 HD
ENDROOT
BRANCH   1  16
ATOM     15  C   UNL     1       6.100   3.631  12.905  0.00  0.00    +0.000 C 
ATOM     16  O   UNL     1       6.584   3.683  14.251  0.00  0.00    +0.000 OA
ENDBRANCH   1  16
BRANCH   8  17
ATOM     17  C   UNL     1       1.492   8.227  20.465  0.00  0.00    +0.000 C 
ATOM     18  O   UNL     1       1.243   8.321  21.657  0.00  0.00    +0.000 OA
BRANCH  17  19
ATOM     19  O   UNL     1       1.226   9.152  19.515  0.00  0.00    +0.000 OA
BRANCH  19  20
ATOM     20  C   UNL     1       0.539  10.335  19.940  0.00  0.00    +0.000 C 
BRANCH  20  21
ATOM     21  C   UNL     1      -0.656  10.561  19.045  0.00  0.00    +0.000 A 
ATOM     22  C   UNL     1      -0.802   9.831  17.854  0.00  0.00    +0.000 A 
ATOM     23  C   UNL     1      -1.907  10.037  17.023  0.00  0.00    +0.000 A 
ATOM     24  C   UNL     1      -2.875  10.982  17.387  0.00  0.00    +0.000 A 
ATOM     25  C   UNL     1      -2.745  11.715  18.572  0.00  0.00    +0.000 A 
ATOM     26  C   UNL     1      -1.635  11.503  19.394  0.00  0.00    +0.000 A 
BRANCH  24  27
ATOM     27  N   UNL     1      -4.036  11.208  16.517  0.00  0.00    +0.000 N 
ATOM     28  O   UNL     1      -4.043  10.658  15.406  0.00  0.00    +0.000 OA
ATOM     29  O   UNL     1      -4.945  11.934  16.944  0.00  0.00    +0.000 OA
ENDBRANCH  24  27
ENDBRANCH  20  21
ENDBRANCH  19  20
ENDBRANCH  17  19
ENDBRANCH   8  17
TORSDOF 6
ENDMDL
MODEL 2
REMARK VINA RESULT:      -7.7      3.363      8.423
REMARK  Name = 
REMARK  7 active torsions:
REMARK  status: ('A' for Active; 'I' for Inactive)
REMARK    1  A    between atoms: C_1  and  O_2
REMARK    2  A    between atoms: O_2  and  C_3
REMARK    3  A    between atoms: C_10  and  C_11
REMARK    4  A    between atoms: C_11  and  O_13
REMARK    5  A    between atoms: O_13  and  C_14
REMARK    6  A    between atoms: C_14  and  C_15
REMARK    7  A    between atoms: C_18  and  N_19
REMARK                            x       y       z     vdW  Elec       q    Type
REMARK                         _______ _______ _______ _____ _____    ______ ____
ROOT
ATOM      1  C   UNL     1       1.187  10.511  19.448  0.00  0.00    +0.000 C 
ATOM      2  O   UNL     1       1.500  10.434  18.271  0.00  0.00    +0.000 OA
ATOM      3  N   UNL     1       1.179   9.528  20.398  0.00  0.00    +0.000 N 
ATOM      4  C   UNL     1       1.571   8.248  20.113  0.00  0.00    +0.000 A 
ATOM      5  N   UNL     1       2.027   7.784  18.976  0.00  0.00    +0.000 NA
ATOM      6  C   UNL     1       2.274   6.455  19.175  0.00  0.00    +0.000 A 
ATOM      7  C   UNL     1       2.770   5.506  18.273  0.00  0.00    +0.000 A 
ATOM      8  C   UNL     1       2.938   4.187  18.715  0.00  0.00    +0.000 A 
ATOM      9  C   UNL     1       2.604   3.835  20.035  0.00  0.00    +0.000 A 
ATOM     10  C   UNL     1       2.107   4.779  20.949  0.00  0.00    +0.000 A 
ATOM     11  C   UNL     1       1.961   6.083  20.475  0.00  0.00    +0.000 A 
ATOM     12  N   UNL     1       1.527   7.250  21.058  0.00  0.00    +0.000 N 
ATOM     13  H   UNL     1       0.856   9.792  21.313  0.00  0.00    +0.000 HD
ATOM     14  H   UNL     1       1.223   7.353  22.013  0.00  0.00    +0.000 HD
ENDROOT
BRANCH   1  16
ATOM     15  C   UNL     1       0.003  12.501  19.141  0.00  0.00    +0.000 C 
ATOM     16  O   UNL     1       0.754  11.667  20.029  0.00  0.00    +0.000 OA
ENDBRANCH   1  16
BRANCH   8  17
ATOM     17  C   UNL     1       3.480   3.131  17.814  0.00  0.00    +0.000 C 
ATOM     18  O   UNL     1       3.534   1.951  18.123  0.00  0.00    +0.000 OA
BRANCH  17  19
ATOM     19  O   UNL     1       3.904   3.675  16.651  0.00  0.00    +0.000 OA
BRANCH  19  20
ATOM     20  C   UNL     1       5.299   3.551  16.350  0.00  0.00    +0.000 C 
BRANCH  20  21
ATOM     21  C   UNL     1       6.016   4.797  16.813  0.00  0.00    +0.000 A 
ATOM     22  C   UNL     1       7.059   4.714  17.750  0.00  0.00    +0.000 A 
ATOM     23  C   UNL     1       7.724   5.865  18.181  0.00  0.00    +0.000 A 
ATOM     24  C   UNL     1       7.344   7.112  17.668  0.00  0.00    +0.000 A 
ATOM     25  C   UNL     1       6.308   7.211  16.731  0.00  0.00    +0.000 A 
ATOM     26  C   UNL     1       5.648   6.054  16.310  0.00  0.00    +0.000 A 
BRANCH  24  27
ATOM     27  N   UNL     1       8.034   8.327  18.118  0.00  0.00    +0.000 N 
ATOM     28  O   UNL     1       7.745   9.396  17.561  0.00  0.00    +0.000 OA
ATOM     29  O   UNL     1       8.865   8.215  19.032  0.00  0.00    +0.000 OA
ENDBRANCH  24  27
ENDBRANCH  20  21
ENDBRANCH  19  20
ENDBRANCH  17  19
ENDBRANCH   8  17
TORSDOF 6
ENDMDL
MODEL 3
REMARK VINA RESULT:      -7.7      4.449      7.015
REMARK  Name = 
REMARK  7 active torsions:
REMARK  status: ('A' for Active; 'I' for Inactive)
REMARK    1  A    between atoms: C_1  and  O_2
REMARK    2  A    between atoms: O_2  and  C_3
REMARK    3  A    between atoms: C_10  and  C_11
REMARK    4  A    between atoms: C_11  and  O_13
REMARK    5  A    between atoms: O_13  and  C_14
REMARK    6  A    between atoms: C_14  and  C_15
REMARK    7  A    between atoms: C_18  and  N_19
REMARK                            x       y       z     vdW  Elec       q    Type
REMARK                         _______ _______ _______ _____ _____    ______ ____
ROOT
ATOM      1  C   UNL     1       8.874  11.653  18.096  0.00  0.00    +0.000 C 
ATOM      2  O   UNL     1       8.012  11.829  17.249  0.00  0.00    +0.000 OA
ATOM      3  N   UNL     1       9.223  10.495  18.734  0.00  0.00    +0.000 N 
ATOM      4  C   UNL     1       8.604   9.306  18.459  0.00  0.00    +0.000 A 
ATOM      5  N   UNL     1       7.668   9.076  17.572  0.00  0.00    +0.000 NA
ATOM      6  C   UNL     1       7.362   7.748  17.671  0.00  0.00    +0.000 A 
ATOM      7  C   UNL     1       6.426   7.002  16.945  0.00  0.00    +0.000 A 
ATOM      8  C   UNL     1       6.291   5.637  17.231  0.00  0.00    +0.000 A 
ATOM      9  C   UNL     1       7.078   5.043  18.234  0.00  0.00    +0.000 A 
ATOM     10  C   UNL     1       8.021   5.781  18.968  0.00  0.00    +0.000 A 
ATOM     11  C   UNL     1       8.133   7.135  18.649  0.00  0.00    +0.000 A 
ATOM     12  N   UNL     1       8.929   8.149  19.127  0.00  0.00    +0.000 N 
ATOM     13  H   UNL     1       9.948  10.567  19.428  0.00  0.00    +0.000 HD
ATOM     14  H   UNL     1       9.625   8.059  19.851  0.00  0.00    +0.000 HD
ENDROOT
BRANCH   1  16
ATOM     15  C   UNL     1       9.010  13.476  19.549  0.00  0.00    +0.000 C 
ATOM     16  O   UNL     1       9.663  12.657  18.574  0.00  0.00    +0.000 OA
ENDBRANCH   1  16
BRANCH   8  17
ATOM     17  C   UNL     1       5.328   4.781  16.483  0.00  0.00    +0.000 C 
ATOM     18  O   UNL     1       5.671   3.831  15.797  0.00  0.00    +0.000 OA
BRANCH  17  19
ATOM     19  O   UNL     1       4.063   5.222  16.665  0.00  0.00    +0.000 OA
BRANCH  19  20
ATOM     20  C   UNL     1       3.268   4.524  17.632  0.00  0.00    +0.000 C 
BRANCH  20  21
ATOM     21  C   UNL     1       2.686   5.522  18.605  0.00  0.00    +0.000 A 
ATOM     22  C   UNL     1       2.159   5.094  19.835  0.00  0.00    +0.000 A 
ATOM     23  C   UNL     1       1.619   6.014  20.737  0.00  0.00    +0.000 A 
ATOM     24  C   UNL     1       1.606   7.376  20.407  0.00  0.00    +0.000 A 
ATOM     25  C   UNL     1       2.129   7.818  19.186  0.00  0.00    +0.000 A 
ATOM     26  C   UNL     1       2.665   6.888  18.290  0.00  0.00    +0.000 A 
BRANCH  24  27
ATOM     27  N   UNL     1       1.036   8.349  21.348  0.00  0.00    +0.000 N 
ATOM     28  O   UNL     1       1.817   9.122  21.923  0.00  0.00    +0.000 OA
ATOM     29  O   UNL     1      -0.192   8.343  21.511  0.00  0.00    +0.000 OA
ENDBRANCH  24  27
ENDBRANCH  20  21
ENDBRANCH  19  20
ENDBRANCH  17  19
ENDBRANCH   8  17
TORSDOF 6
ENDMDL
MODEL 4
REMARK VINA RESULT:      -7.6      2.122      8.136
REMARK  Name = 
REMARK  7 active torsions:
REMARK  status: ('A' for Active; 'I' for Inactive)
REMARK    1  A    between atoms: C_1  and  O_2
REMARK    2  A    between atoms: O_2  and  C_3
REMARK    3  A    between atoms: C_10  and  C_11
REMARK    4  A    between atoms: C_11  and  O_13
REMARK    5  A    between atoms: O_13  and  C_14
REMARK    6  A    between atoms: C_14  and  C_15
REMARK    7  A    between atoms: C_18  and  N_19
REMARK                            x       y       z     vdW  Elec       q    Type
REMARK                         _______ _______ _______ _____ _____    ______ ____
ROOT
ATOM      1  C   UNL     1      -3.263  10.375  15.254  0.00  0.00    +0.000 C 
ATOM      2  O   UNL     1      -3.361   9.238  15.688  0.00  0.00    +0.000 OA
ATOM      3  N   UNL     1      -2.614  11.448  15.800  0.00  0.00    +0.000 N 
ATOM      4  C   UNL     1      -1.934  11.351  16.984  0.00  0.00    +0.000 A 
ATOM      5  N   UNL     1      -1.762  10.284  17.725  0.00  0.00    +0.000 NA
ATOM      6  C   UNL     1      -1.028  10.681  18.806  0.00  0.00    +0.000 A 
ATOM      7  C   UNL     1      -0.577   9.923  19.892  0.00  0.00    +0.000 A 
ATOM      8  C   UNL     1       0.167  10.562  20.893  0.00  0.00    +0.000 A 
ATOM      9  C   UNL     1       0.440  11.939  20.800  0.00  0.00    +0.000 A 
ATOM     10  C   UNL     1      -0.005  12.710  19.715  0.00  0.00    +0.000 A 
ATOM     11  C   UNL     1      -0.735  12.037  18.735  0.00  0.00    +0.000 A 
ATOM     12  N   UNL     1      -1.314  12.438  17.554  0.00  0.00    +0.000 N 
ATOM     13  H   UNL     1      -2.678  12.315  15.295  0.00  0.00    +0.000 HD
ATOM     14  H   UNL     1      -1.293  13.372  17.176  0.00  0.00    +0.000 HD
ENDROOT
BRANCH   1  16
ATOM     15  C   UNL     1      -3.717   9.814  13.032  0.00  0.00    +0.000 C 
ATOM     16  O   UNL     1      -3.838  10.777  14.084  0.00  0.00    +0.000 OA
ENDBRANCH   1  16
BRANCH   8  17
ATOM     17  C   UNL     1       0.695   9.811  22.066  0.00  0.00    +0.000 C 
ATOM     18  O   UNL     1       0.374  10.058  23.218  0.00  0.00    +0.000 OA
BRANCH  17  19
ATOM     19  O   UNL     1       1.569   8.861  21.665  0.00  0.00    +0.000 OA
BRANCH  19  20
ATOM     20  C   UNL     1       1.031   7.560  21.396  0.00  0.00    +0.000 C 
BRANCH  20  21
ATOM     21  C   UNL     1       1.838   6.910  20.297  0.00  0.00    +0.000 A 
ATOM     22  C   UNL     1       2.263   7.658  19.187  0.00  0.00    +0.000 A 
ATOM     23  C   UNL     1       3.009   7.059  18.168  0.00  0.00    +0.000 A 
ATOM     24  C   UNL     1       3.332   5.699  18.260  0.00  0.00    +0.000 A 
ATOM     25  C   UNL     1       2.918   4.941  19.361  0.00  0.00    +0.000 A 
ATOM     26  C   UNL     1       2.170   5.549  20.373  0.00  0.00    +0.000 A 
BRANCH  24  27
ATOM     27  N   UNL     1       4.112   5.061  17.191  0.00  0.00    +0.000 N 
ATOM     28  O   UNL     1       3.741   3.947  16.791  0.00  0.00    +0.000 OA
ATOM     29  O   UNL     1       5.094   5.674  16.748  0.00  0.00    +0.000 OA
ENDBRANCH  24  27
ENDBRANCH  20  21
ENDBRANCH  19  20
ENDBRANCH  17  19
ENDBRANCH   8  17
TORSDOF 6
ENDMDL
MODEL 5
REMARK VINA RESULT:      -7.6      3.306      9.646
REMARK  Name = 
REMARK  7 active torsions:
REMARK  status: ('A' for Active; 'I' for Inactive)
REMARK    1  A    between atoms: C_1  and  O_2
REMARK    2  A    between atoms: O_2  and  C_3
REMARK    3  A    between atoms: C_10  and  C_11
REMARK    4  A    between atoms: C_11  and  O_13
REMARK    5  A    between atoms: O_13  and  C_14
REMARK    6  A    between atoms: C_14  and  C_15
REMARK    7  A    between atoms: C_18  and  N_19
REMARK                            x       y       z     vdW  Elec       q    Type
REMARK                         _______ _______ _______ _____ _____    ______ ____
ROOT
ATOM      1  C   UNL     1      -1.128  12.961  22.215  0.00  0.00    +0.000 C 
ATOM      2  O   UNL     1      -1.038  12.195  23.160  0.00  0.00    +0.000 OA
ATOM      3  N   UNL     1      -0.686  12.794  20.932  0.00  0.00    +0.000 N 
ATOM      4  C   UNL     1      -0.055  11.647  20.531  0.00  0.00    +0.000 A 
ATOM      5  N   UNL     1       0.180  10.572  21.241  0.00  0.00    +0.000 NA
ATOM      6  C   UNL     1       0.838   9.703  20.417  0.00  0.00    +0.000 A 
ATOM      7  C   UNL     1       1.312   8.415  20.692  0.00  0.00    +0.000 A 
ATOM      8  C   UNL     1       1.965   7.711  19.672  0.00  0.00    +0.000 A 
ATOM      9  C   UNL     1       2.142   8.300  18.407  0.00  0.00    +0.000 A 
ATOM     10  C   UNL     1       1.669   9.590  18.119  0.00  0.00    +0.000 A 
ATOM     11  C   UNL     1       1.017  10.257  19.157  0.00  0.00    +0.000 A 
ATOM     12  N   UNL     1       0.424  11.494  19.252  0.00  0.00    +0.000 N 
ATOM     13  H   UNL     1      -0.833  13.566  20.303  0.00  0.00    +0.000 HD
ATOM     14  H   UNL     1       0.361  12.174  18.511  0.00  0.00    +0.000 HD
ENDROOT
BRANCH   1  16
ATOM     15  C   UNL     1      -0.890  15.249  21.806  0.00  0.00    +0.000 C 
ATOM     16  O   UNL     1      -1.713  14.190  22.306  0.00  0.00    +0.000 OA
ENDBRANCH   1  16
BRANCH   8  17
ATOM     17  C   UNL     1       2.478   6.329  19.890  0.00  0.00    +0.000 C 
ATOM     18  O   UNL     1       1.805   5.435  20.381  0.00  0.00    +0.000 OA
BRANCH  17  19
ATOM     19  O   UNL     1       3.766   6.234  19.491  0.00  0.00    +0.000 OA
BRANCH  19  20
ATOM     20  C   UNL     1       4.276   4.915  19.262  0.00  0.00    +0.000 C 
BRANCH  20  21
ATOM     21  C   UNL     1       5.033   4.898  17.956  0.00  0.00    +0.000 A 
ATOM     22  C   UNL     1       6.404   4.591  17.929  0.00  0.00    +0.000 A 
ATOM     23  C   UNL     1       7.107   4.575  16.722  0.00  0.00    +0.000 A 
ATOM     24  C   UNL     1       6.434   4.868  15.529  0.00  0.00    +0.000 A 
ATOM     25  C   UNL     1       5.068   5.173  15.539  0.00  0.00    +0.000 A 
ATOM     26  C   UNL     1       4.375   5.188  16.752  0.00  0.00    +0.000 A 
BRANCH  24  27
ATOM     27  N   UNL     1       7.167   4.857  14.257  0.00  0.00    +0.000 N 
ATOM     28  O   UNL     1       8.156   5.598  14.153  0.00  0.00    +0.000 OA
ATOM     29  O   UNL     1       6.756   4.107  13.360  0.00  0.00    +0.000 OA
ENDBRANCH  24  27
ENDBRANCH  20  21
ENDBRANCH  19  20
ENDBRANCH  17  19
ENDBRANCH   8  17
TORSDOF 6
ENDMDL
MODEL 6
REMARK VINA RESULT:      -7.5      2.677      8.389
REMARK  Name = 
REMARK  7 active torsions:
REMARK  status: ('A' for Active; 'I' for Inactive)
REMARK    1  A    between atoms: C_1  and  O_2
REMARK    2  A    between atoms: O_2  and  C_3
REMARK    3  A    between atoms: C_10  and  C_11
REMARK    4  A    between atoms: C_11  and  O_13
REMARK    5  A    between atoms: O_13  and  C_14
REMARK    6  A    between atoms: C_14  and  C_15
REMARK    7  A    between atoms: C_18  and  N_19
REMARK                            x       y       z     vdW  Elec       q    Type
REMARK                         _______ _______ _______ _____ _____    ______ ____
ROOT
ATOM      1  C   UNL     1      -3.279  10.267  14.654  0.00  0.00    +0.000 C 
ATOM      2  O   UNL     1      -2.782   9.154  14.719  0.00  0.00    +0.000 OA
ATOM      3  N   UNL     1      -3.252  11.273  15.580  0.00  0.00    +0.000 N 
ATOM      4  C   UNL     1      -2.595  11.135  16.773  0.00  0.00    +0.000 A 
ATOM      5  N   UNL     1      -1.894  10.109  17.189  0.00  0.00    +0.000 NA
ATOM      6  C   UNL     1      -1.442  10.433  18.437  0.00  0.00    +0.000 A 
ATOM      7  C   UNL     1      -0.650   9.678  19.311  0.00  0.00    +0.000 A 
ATOM      8  C   UNL     1      -0.314  10.230  20.554  0.00  0.00    +0.000 A 
ATOM      9  C   UNL     1      -0.775  11.511  20.908  0.00  0.00    +0.000 A 
ATOM     10  C   UNL     1      -1.569  12.277  20.039  0.00  0.00    +0.000 A 
ATOM     11  C   UNL     1      -1.876  11.698  18.807  0.00  0.00    +0.000 A 
ATOM     12  N   UNL     1      -2.599  12.131  17.721  0.00  0.00    +0.000 N 
ATOM     13  H   UNL     1      -3.754  12.112  15.345  0.00  0.00    +0.000 HD
ATOM     14  H   UNL     1      -3.059  13.024  17.639  0.00  0.00    +0.000 HD
ENDROOT
BRANCH   1  16
ATOM     15  C   UNL     1      -3.989   9.779  12.483  0.00  0.00    +0.000 C 
ATOM     16  O   UNL     1      -3.999  10.699  13.579  0.00  0.00    +0.000 OA
ENDBRANCH   1  16
BRANCH   8  17
ATOM     17  C   UNL     1       0.542   9.490  21.524  0.00  0.00    +0.000 C 
ATOM     18  O   UNL     1       0.919   9.967  22.583  0.00  0.00    +0.000 OA
BRANCH  17  19
ATOM     19  O   UNL     1       0.838   8.259  21.049  0.00  0.00    +0.000 OA
BRANCH  19  20
ATOM     20  C   UNL     1       1.993   8.152  20.207  0.00  0.00    +0.000 C 
BRANCH  20  21
ATOM     21  C   UNL     1       2.144   6.719  19.757  0.00  0.00    +0.000 A 
ATOM     22  C   UNL     1       1.768   5.662  20.603  0.00  0.00    +0.000 A 
ATOM     23  C   UNL     1       1.908   4.335  20.190  0.00  0.00    +0.000 A 
ATOM     24  C   UNL     1       2.428   4.060  18.918  0.00  0.00    +0.000 A 
ATOM     25  C   UNL     1       2.805   5.103  18.063  0.00  0.00    +0.000 A 
ATOM     26  C   UNL     1       2.663   6.426  18.487  0.00  0.00    +0.000 A 
BRANCH  24  27
ATOM     27  N   UNL     1       2.582   2.668  18.478  0.00  0.00    +0.000 N 
ATOM     28  O   UNL     1       3.202   1.892  19.220  0.00  0.00    +0.000 OA
ATOM     29  O   UNL     1       2.080   2.347  17.391  0.00  0.00    +0.000 OA
ENDBRANCH  24  27
ENDBRANCH  20  21
ENDBRANCH  19  20
ENDBRANCH  17  19
ENDBRANCH   8  17
TORSDOF 6
ENDMDL
MODEL 7
REMARK VINA RESULT:      -7.5      4.583      6.525
REMARK  Name = 
REMARK  7 active torsions:
REMARK  status: ('A' for Active; 'I' for Inactive)
REMARK    1  A    between atoms: C_1  and  O_2
REMARK    2  A    between atoms: O_2  and  C_3
REMARK    3  A    between atoms: C_10  and  C_11
REMARK    4  A    between atoms: C_11  and  O_13
REMARK    5  A    between atoms: O_13  and  C_14
REMARK    6  A    between atoms: C_14  and  C_15
REMARK    7  A    between atoms: C_18  and  N_19
REMARK                            x       y       z     vdW  Elec       q    Type
REMARK                         _______ _______ _______ _____ _____    ______ ____
ROOT
ATOM      1  C   UNL     1       8.858  11.888  17.951  0.00  0.00    +0.000 C 
ATOM      2  O   UNL     1       7.923  12.050  17.183  0.00  0.00    +0.000 OA
ATOM      3  N   UNL     1       9.262  10.743  18.579  0.00  0.00    +0.000 N 
ATOM      4  C   UNL     1       8.618   9.551  18.388  0.00  0.00    +0.000 A 
ATOM      5  N   UNL     1       7.603   9.306  17.596  0.00  0.00    +0.000 NA
ATOM      6  C   UNL     1       7.305   7.982  17.751  0.00  0.00    +0.000 A 
ATOM      7  C   UNL     1       6.305   7.225  17.130  0.00  0.00    +0.000 A 
ATOM      8  C   UNL     1       6.193   5.867  17.457  0.00  0.00    +0.000 A 
ATOM      9  C   UNL     1       7.067   5.291  18.397  0.00  0.00    +0.000 A 
ATOM     10  C   UNL     1       8.075   6.040  19.025  0.00  0.00    +0.000 A 
ATOM     11  C   UNL     1       8.161   7.386  18.668  0.00  0.00    +0.000 A 
ATOM     12  N   UNL     1       8.999   8.408  19.049  0.00  0.00    +0.000 N 
ATOM     13  H   UNL     1      10.047  10.827  19.202  0.00  0.00    +0.000 HD
ATOM     14  H   UNL     1       9.758   8.330  19.708  0.00  0.00    +0.000 HD
ENDROOT
BRANCH   1  16
ATOM     15  C   UNL     1       9.405  13.404  19.642  0.00  0.00    +0.000 C 
ATOM     16  O   UNL     1       9.690  12.899  18.333  0.00  0.00    +0.000 OA
ENDBRANCH   1  16
BRANCH   8  17
ATOM     17  C   UNL     1       5.164   4.999  16.819  0.00  0.00    +0.000 C 
ATOM     18  O   UNL     1       5.437   3.986  16.194  0.00  0.00    +0.000 OA
BRANCH  17  19
ATOM     19  O   UNL     1       3.926   5.506  17.021  0.00  0.00    +0.000 OA
BRANCH  19  20
ATOM     20  C   UNL     1       3.394   5.401  18.347  0.00  0.00    +0.000 C 
BRANCH  20  21
ATOM     21  C   UNL     1       2.664   6.678  18.689  0.00  0.00    +0.000 A 
ATOM     22  C   UNL     1       2.446   7.659  17.708  0.00  0.00    +0.000 A 
ATOM     23  C   UNL     1       1.772   8.843  18.021  0.00  0.00    +0.000 A 
ATOM     24  C   UNL     1       1.311   9.048  19.328  0.00  0.00    +0.000 A 
ATOM     25  C   UNL     1       1.519   8.078  20.316  0.00  0.00    +0.000 A 
ATOM     26  C   UNL     1       2.197   6.900  19.993  0.00  0.00    +0.000 A 
BRANCH  24  27
ATOM     27  N   UNL     1       0.606  10.290  19.666  0.00  0.00    +0.000 N 
ATOM     28  O   UNL     1      -0.627  10.309  19.535  0.00  0.00    +0.000 OA
ATOM     29  O   UNL     1       1.283  11.248  20.066  0.00  0.00    +0.000 OA
ENDBRANCH  24  27
ENDBRANCH  20  21
ENDBRANCH  19  20
ENDBRANCH  17  19
ENDBRANCH   8  17
TORSDOF 6
ENDMDL
MODEL 8
REMARK VINA RESULT:      -7.5      3.354      8.821
REMARK  Name = 
REMARK  7 active torsions:
REMARK  status: ('A' for Active; 'I' for Inactive)
REMARK    1  A    between atoms: C_1  and  O_2
REMARK    2  A    between atoms: O_2  and  C_3
REMARK    3  A    between atoms: C_10  and  C_11
REMARK    4  A    between atoms: C_11  and  O_13
REMARK    5  A    between atoms: O_13  and  C_14
REMARK    6  A    between atoms: C_14  and  C_15
REMARK    7  A    between atoms: C_18  and  N_19
REMARK                            x       y       z     vdW  Elec       q    Type
REMARK                         _______ _______ _______ _____ _____    ______ ____
ROOT
ATOM      1  C   UNL     1       0.747  11.985  20.971  0.00  0.00    +0.000 C 
ATOM      2  O   UNL     1       0.498  11.443  22.036  0.00  0.00    +0.000 OA
ATOM      3  N   UNL     1       1.175  11.420  19.802  0.00  0.00    +0.000 N 
ATOM      4  C   UNL     1       1.372  10.070  19.684  0.00  0.00    +0.000 A 
ATOM      5  N   UNL     1       1.161   9.147  20.590  0.00  0.00    +0.000 NA
ATOM      6  C   UNL     1       1.509   7.958  20.015  0.00  0.00    +0.000 A 
ATOM      7  C   UNL     1       1.470   6.670  20.561  0.00  0.00    +0.000 A 
ATOM      8  C   UNL     1       1.885   5.593  19.767  0.00  0.00    +0.000 A 
ATOM      9  C   UNL     1       2.337   5.816  18.453  0.00  0.00    +0.000 A 
ATOM     10  C   UNL     1       2.379   7.103  17.894  0.00  0.00    +0.000 A 
ATOM     11  C   UNL     1       1.950   8.148  18.712  0.00  0.00    +0.000 A 
ATOM     12  N   UNL     1       1.839   9.506  18.521  0.00  0.00    +0.000 N 
ATOM     13  H   UNL     1       1.353  12.050  19.038  0.00  0.00    +0.000 HD
ATOM     14  H   UNL     1       2.070  10.001  17.674  0.00  0.00    +0.000 HD
ENDROOT
BRANCH   1  16
ATOM     15  C   UNL     1      -0.221  13.682  19.690  0.00  0.00    +0.000 C 
ATOM     16  O   UNL     1       0.640  13.331  20.778  0.00  0.00    +0.000 OA
ENDBRANCH   1  16
BRANCH   8  17
ATOM     17  C   UNL     1       1.850   4.194  20.279  0.00  0.00    +0.000 C 
ATOM     18  O   UNL     1       0.815   3.572  20.456  0.00  0.00    +0.000 OA
BRANCH  17  19
ATOM     19  O   UNL     1       3.104   3.750  20.524  0.00  0.00    +0.000 OA
BRANCH  19  20
ATOM     20  C   UNL     1       3.669   2.849  19.564  0.00  0.00    +0.000 C 
BRANCH  20  21
ATOM     21  C   UNL     1       4.620   3.612  18.672  0.00  0.00    +0.000 A 
ATOM     22  C   UNL     1       5.522   4.539  19.219  0.00  0.00    +0.000 A 
ATOM     23  C   UNL     1       6.403   5.247  18.397  0.00  0.00    +0.000 A 
ATOM     24  C   UNL     1       6.383   5.025  17.014  0.00  0.00    +0.000 A 
ATOM     25  C   UNL     1       5.491   4.102  16.454  0.00  0.00    +0.000 A 
ATOM     26  C   UNL     1       4.613   3.402  17.285  0.00  0.00    +0.000 A 
BRANCH  24  27
ATOM     27  N   UNL     1       7.302   5.768  16.142  0.00  0.00    +0.000 N 
ATOM     28  O   UNL     1       7.686   6.884  16.524  0.00  0.00    +0.000 OA
ATOM     29  O   UNL     1       7.644   5.236  15.077  0.00  0.00    +0.000 OA
ENDBRANCH  24  27
ENDBRANCH  20  21
ENDBRANCH  19  20
ENDBRANCH  17  19
ENDBRANCH   8  17
TORSDOF 6
ENDMDL
MODEL 9
REMARK VINA RESULT:      -7.4      3.388      8.876
REMARK  Name = 
REMARK  7 active torsions:
REMARK  status: ('A' for Active; 'I' for Inactive)
REMARK    1  A    between atoms: C_1  and  O_2
REMARK    2  A    between atoms: O_2  and  C_3
REMARK    3  A    between atoms: C_10  and  C_11
REMARK    4  A    between atoms: C_11  and  O_13
REMARK    5  A    between atoms: O_13  and  C_14
REMARK    6  A    between atoms: C_14  and  C_15
REMARK    7  A    between atoms: C_18  and  N_19
REMARK                            x       y       z     vdW  Elec       q    Type
REMARK                         _______ _______ _______ _____ _____    ______ ____
ROOT
ATOM      1  C   UNL     1       0.118  11.744  21.858  0.00  0.00    +0.000 C 
ATOM      2  O   UNL     1      -0.112  11.026  22.818  0.00  0.00    +0.000 OA
ATOM      3  N   UNL     1       0.631  11.403  20.637  0.00  0.00    +0.000 N 
ATOM      4  C   UNL     1       0.953  10.109  20.328  0.00  0.00    +0.000 A 
ATOM      5  N   UNL     1       0.800   9.044  21.074  0.00  0.00    +0.000 NA
ATOM      6  C   UNL     1       1.272   7.990  20.344  0.00  0.00    +0.000 A 
ATOM      7  C   UNL     1       1.333   6.635  20.689  0.00  0.00    +0.000 A 
ATOM      8  C   UNL     1       1.868   5.732  19.761  0.00  0.00    +0.000 A 
ATOM      9  C   UNL     1       2.337   6.191  18.516  0.00  0.00    +0.000 A 
ATOM     10  C   UNL     1       2.279   7.547  18.159  0.00  0.00    +0.000 A 
ATOM     11  C   UNL     1       1.733   8.415  19.105  0.00  0.00    +0.000 A 
ATOM     12  N   UNL     1       1.505   9.771  19.114  0.00  0.00    +0.000 N 
ATOM     13  H   UNL     1       0.774  12.155  19.985  0.00  0.00    +0.000 HD
ATOM     14  H   UNL     1       1.715  10.407  18.362  0.00  0.00    +0.000 HD
ENDROOT
BRANCH   1  16
ATOM     15  C   UNL     1      -1.226  13.483  21.068  0.00  0.00    +0.000 C 
ATOM     16  O   UNL     1      -0.104  13.089  21.865  0.00  0.00    +0.000 OA
ENDBRANCH   1  16
BRANCH   8  17
ATOM     17  C   UNL     1       1.946   4.273  20.055  0.00  0.00    +0.000 C 
ATOM     18  O   UNL     1       1.083   3.476  19.720  0.00  0.00    +0.000 OA
BRANCH  17  19
ATOM     19  O   UNL     1       3.073   3.990  20.745  0.00  0.00    +0.000 OA
BRANCH  19  20
ATOM     20  C   UNL     1       3.972   3.043  20.154  0.00  0.00    +0.000 C 
BRANCH  20  21
ATOM     21  C   UNL     1       4.616   3.667  18.938  0.00  0.00    +0.000 A 
ATOM     22  C   UNL     1       4.209   3.296  17.646  0.00  0.00    +0.000 A 
ATOM     23  C   UNL     1       4.804   3.870  16.519  0.00  0.00    +0.000 A 
ATOM     24  C   UNL     1       5.814   4.826  16.686  0.00  0.00    +0.000 A 
ATOM     25  C   UNL     1       6.228   5.208  17.967  0.00  0.00    +0.000 A 
ATOM     26  C   UNL     1       5.629   4.625  19.087  0.00  0.00    +0.000 A 
BRANCH  24  27
ATOM     27  N   UNL     1       6.447   5.432  15.507  0.00  0.00    +0.000 N 
ATOM     28  O   UNL     1       5.714   5.762  14.563  0.00  0.00    +0.000 OA
ATOM     29  O   UNL     1       7.677   5.581  15.525  0.00  0.00    +0.000 OA
ENDBRANCH  24  27
ENDBRANCH  20  21
ENDBRANCH  19  20
ENDBRANCH  17  19
ENDBRANCH   8  17
TORSDOF 6
ENDMDL
