MODEL 1
REMARK VINA RESULT:      -7.8      0.000      0.000
REMARK  Name = 
REMARK  6 active torsions:
REMARK  status: ('A' for Active; 'I' for Inactive)
REMARK    1  A    between atoms: C_1  and  N_2
REMARK    2  A    between atoms: C_6  and  C_7
REMARK    3  A    between atoms: N_18  and  C_19
REMARK    4  A    between atoms: C_19  and  C_20
REMARK    5  A    between atoms: C_19  and  C_21
REMARK    6  A    between atoms: C_19  and  C_22
REMARK                            x       y       z     vdW  Elec       q    Type
REMARK                         _______ _______ _______ _____ _____    ______ ____
ROOT
ATOM      1  C   UNL     1       0.178  11.090  18.642  0.00  0.00    +0.000 C 
ATOM      2  O   UNL     1      -1.001  10.977  18.292  0.00  0.00    +0.000 OA
ATOM      3  N   UNL     1       0.792  12.333  18.829  0.00  0.00    +0.000 N 
ATOM      4  C   UNL     1      -0.050  13.529  18.753  0.00  0.00    +0.000 C 
ATOM      5  C   UNL     1       0.413  14.591  19.748  0.00  0.00    +0.000 C 
ATOM      6  C   UNL     1       1.915  14.902  19.632  0.00  0.00    +0.000 C 
ATOM      7  C   UNL     1       2.674  13.552  19.806  0.00  0.00    +0.000 C 
ATOM      8  C   UNL     1       2.233  12.569  18.719  0.00  0.00    +0.000 C 
ATOM      9  C   UNL     1       2.303  15.541  18.245  0.00  0.00    +0.000 C 
ATOM     10  C   UNL     1       3.753  15.876  18.357  0.00  0.00    +0.000 A 
ATOM     11  C   UNL     1       4.894  15.358  17.788  0.00  0.00    +0.000 A 
ATOM     12  N   UNL     1       5.935  15.782  18.592  0.00  0.00    +0.000 N 
ATOM     13  N   UNL     1       5.530  16.618  19.570  0.00  0.00    +0.000 NA
ATOM     14  C   UNL     1       4.199  16.556  19.517  0.00  0.00    +0.000 A 
ATOM     15  C   UNL     1       3.304  16.799  20.651  0.00  0.00    +0.000 C 
ATOM     16  O   UNL     1       3.448  17.665  21.506  0.00  0.00    +0.000 OA
ATOM     17  N   UNL     1       2.251  15.889  20.706  0.00  0.00    +0.000 N 
ATOM     18  H   UNL     1       1.736  15.911  21.578  0.00  0.00    +0.000 HD
ENDROOT
BRANCH   1  24
ATOM     19  C   UNL     1       4.232   5.073  17.578  0.00  0.00    +0.000 C 
ATOM     20  N   UNL     1       3.401   6.135  18.075  0.00  0.00    +0.000 N 
ATOM     21  N   UNL     1       3.172   7.323  17.311  0.00  0.00    +0.000 N 
ATOM     22  C   UNL     1       2.374   8.088  18.191  0.00  0.00    +0.000 A 
ATOM     23  C   UNL     1       1.732   9.282  17.922  0.00  0.00    +0.000 A 
ATOM     24  C   UNL     1       0.932   9.844  18.935  0.00  0.00    +0.000 A 
ATOM     25  C   UNL     1       0.777   9.177  20.175  0.00  0.00    +0.000 A 
ATOM     26  C   UNL     1       1.494   8.027  20.468  0.00  0.00    +0.000 A 
ATOM     27  C   UNL     1       2.263   7.509  19.451  0.00  0.00    +0.000 A 
ATOM     28  C   UNL     1       2.986   6.249  19.389  0.00  0.00    +0.000 A 
ATOM     29  O   UNL     1       3.133   5.484  20.327  0.00  0.00    +0.000 OA
ATOM     30  H   UNL     1       2.658   7.123  16.450  0.00  0.00    +0.000 HD
ENDBRANCH   1  24
BRANCH  12  31
ATOM     31  C   UNL     1       7.311  15.248  18.624  0.00  0.00    +0.000 C 
ATOM     32  C   UNL     1       8.292  16.333  18.158  0.00  0.00    +0.000 C 
ATOM     33  C   UNL     1       7.711  14.803  20.050  0.00  0.00    +0.000 C 
ATOM     34  C   UNL     1       7.419  14.012  17.705  0.00  0.00    +0.000 C 
ENDBRANCH  12  31
TORSDOF 2
ENDMDL
MODEL 2
REMARK VINA RESULT:      -7.5      2.800      7.700
REMARK  Name = 
REMARK  6 active torsions:
REMARK  status: ('A' for Active; 'I' for Inactive)
REMARK    1  A    between atoms: C_1  and  N_2
REMARK    2  A    between atoms: C_6  and  C_7
REMARK    3  A    between atoms: N_18  and  C_19
REMARK    4  A    between atoms: C_19  and  C_20
REMARK    5  A    between atoms: C_19  and  C_21
REMARK    6  A    between atoms: C_19  and  C_22
REMARK                            x       y       z     vdW  Elec       q    Type
REMARK                         _______ _______ _______ _____ _____    ______ ____
ROOT
ATOM      1  C   UNL     1       3.266  16.708  19.510  0.00  0.00    +0.000 C 
ATOM      2  O   UNL     1       3.119  17.934  19.519  0.00  0.00    +0.000 OA
ATOM      3  N   UNL     1       2.191  15.820  19.406  0.00  0.00    +0.000 N 
ATOM      4  C   UNL     1       0.864  16.383  19.144  0.00  0.00    +0.000 C 
ATOM      5  C   UNL     1       0.046  15.464  18.240  0.00  0.00    +0.000 C 
ATOM      6  C   UNL     1      -0.004  14.014  18.751  0.00  0.00    +0.000 C 
ATOM      7  C   UNL     1       1.471  13.536  18.907  0.00  0.00    +0.000 C 
ATOM      8  C   UNL     1       2.204  14.442  19.900  0.00  0.00    +0.000 C 
ATOM      9  C   UNL     1      -0.744  13.878  20.135  0.00  0.00    +0.000 C 
ATOM     10  C   UNL     1      -0.795  12.413  20.412  0.00  0.00    +0.000 A 
ATOM     11  C   UNL     1      -0.163  11.594  21.320  0.00  0.00    +0.000 A 
ATOM     12  N   UNL     1      -0.282  10.315  20.813  0.00  0.00    +0.000 N 
ATOM     13  N   UNL     1      -1.037  10.265  19.696  0.00  0.00    +0.000 NA
ATOM     14  C   UNL     1      -1.222  11.546  19.375  0.00  0.00    +0.000 A 
ATOM     15  C   UNL     1      -1.466  12.041  18.018  0.00  0.00    +0.000 C 
ATOM     16  O   UNL     1      -2.169  11.501  17.172  0.00  0.00    +0.000 OA
ATOM     17  N   UNL     1      -0.761  13.209  17.740  0.00  0.00    +0.000 N 
ATOM     18  H   UNL     1      -0.757  13.462  16.759  0.00  0.00    +0.000 HD
ENDROOT
BRANCH   1  24
ATOM     19  C   UNL     1       9.306  13.051  17.528  0.00  0.00    +0.000 C 
ATOM     20  N   UNL     1       8.278  13.812  18.185  0.00  0.00    +0.000 N 
ATOM     21  N   UNL     1       7.111  14.250  17.483  0.00  0.00    +0.000 N 
ATOM     22  C   UNL     1       6.432  14.990  18.477  0.00  0.00    +0.000 A 
ATOM     23  C   UNL     1       5.162  15.531  18.404  0.00  0.00    +0.000 A 
ATOM     24  C   UNL     1       4.655  16.182  19.544  0.00  0.00    +0.000 A 
ATOM     25  C   UNL     1       5.425  16.244  20.732  0.00  0.00    +0.000 A 
ATOM     26  C   UNL     1       6.730  15.777  20.769  0.00  0.00    +0.000 A 
ATOM     27  C   UNL     1       7.187  15.147  19.634  0.00  0.00    +0.000 A 
ATOM     28  C   UNL     1       8.426  14.417  19.420  0.00  0.00    +0.000 A 
ATOM     29  O   UNL     1       9.349  14.362  20.213  0.00  0.00    +0.000 OA
ATOM     30  H   UNL     1       6.538  13.461  17.176  0.00  0.00    +0.000 HD
ENDBRANCH   1  24
BRANCH  12  31
ATOM     31  C   UNL     1       0.490   9.122  21.215  0.00  0.00    +0.000 C 
ATOM     32  C   UNL     1      -0.475   7.973  21.539  0.00  0.00    +0.000 C 
ATOM     33  C   UNL     1       1.443   8.659  20.088  0.00  0.00    +0.000 C 
ATOM     34  C   UNL     1       1.356   9.445  22.451  0.00  0.00    +0.000 C 
ENDBRANCH  12  31
TORSDOF 2
ENDMDL
MODEL 3
REMARK VINA RESULT:      -7.4      2.820      7.900
REMARK  Name = 
REMARK  6 active torsions:
REMARK  status: ('A' for Active; 'I' for Inactive)
REMARK    1  A    between atoms: C_1  and  N_2
REMARK    2  A    between atoms: C_6  and  C_7
REMARK    3  A    between atoms: N_18  and  C_19
REMARK    4  A    between atoms: C_19  and  C_20
REMARK    5  A    between atoms: C_19  and  C_21
REMARK    6  A    between atoms: C_19  and  C_22
REMARK                            x       y       z     vdW  Elec       q    Type
REMARK                         _______ _______ _______ _____ _____    ______ ____
ROOT
ATOM      1  C   UNL     1       3.813  16.350  19.100  0.00  0.00    +0.000 C 
ATOM      2  O   UNL     1       3.791  17.584  19.118  0.00  0.00    +0.000 OA
ATOM      3  N   UNL     1       2.650  15.574  19.137  0.00  0.00    +0.000 N 
ATOM      4  C   UNL     1       1.364  16.268  19.035  0.00  0.00    +0.000 C 
ATOM      5  C   UNL     1       0.353  15.439  18.246  0.00  0.00    +0.000 C 
ATOM      6  C   UNL     1       0.222  13.999  18.771  0.00  0.00    +0.000 C 
ATOM      7  C   UNL     1       1.650  13.376  18.749  0.00  0.00    +0.000 C 
ATOM      8  C   UNL     1       2.586  14.199  19.637  0.00  0.00    +0.000 C 
ATOM      9  C   UNL     1      -0.351  13.932  20.237  0.00  0.00    +0.000 C 
ATOM     10  C   UNL     1      -0.514  12.478  20.530  0.00  0.00    +0.000 A 
ATOM     11  C   UNL     1       0.140  11.597  21.361  0.00  0.00    +0.000 A 
ATOM     12  N   UNL     1      -0.167  10.338  20.883  0.00  0.00    +0.000 N 
ATOM     13  N   UNL     1      -1.055  10.368  19.867  0.00  0.00    +0.000 NA
ATOM     14  C   UNL     1      -1.150  11.663  19.561  0.00  0.00    +0.000 A 
ATOM     15  C   UNL     1      -1.509  12.185  18.240  0.00  0.00    +0.000 C 
ATOM     16  O   UNL     1      -2.360  11.721  17.492  0.00  0.00    +0.000 OA
ATOM     17  N   UNL     1      -0.730  13.278  17.868  0.00  0.00    +0.000 N 
ATOM     18  H   UNL     1      -0.822  13.534  16.892  0.00  0.00    +0.000 HD
ENDROOT
BRANCH   1  24
ATOM     19  C   UNL     1      10.793  14.552  20.455  0.00  0.00    +0.000 C 
ATOM     20  N   UNL     1       9.469  14.740  19.926  0.00  0.00    +0.000 N 
ATOM     21  N   UNL     1       8.435  15.351  20.704  0.00  0.00    +0.000 N 
ATOM     22  C   UNL     1       7.327  15.273  19.831  0.00  0.00    +0.000 A 
ATOM     23  C   UNL     1       6.079  15.842  20.001  0.00  0.00    +0.000 A 
ATOM     24  C   UNL     1       5.136  15.687  18.967  0.00  0.00    +0.000 A 
ATOM     25  C   UNL     1       5.483  14.992  17.783  0.00  0.00    +0.000 A 
ATOM     26  C   UNL     1       6.706  14.350  17.657  0.00  0.00    +0.000 A 
ATOM     27  C   UNL     1       7.599  14.526  18.689  0.00  0.00    +0.000 A 
ATOM     28  C   UNL     1       8.995  14.131  18.779  0.00  0.00    +0.000 A 
ATOM     29  O   UNL     1       9.575  13.432  17.966  0.00  0.00    +0.000 OA
ATOM     30  H   UNL     1       8.650  16.328  20.916  0.00  0.00    +0.000 HD
ENDBRANCH   1  24
BRANCH  12  31
ATOM     31  C   UNL     1       0.525   9.072  21.196  0.00  0.00    +0.000 C 
ATOM     32  C   UNL     1      -0.513   7.976  21.474  0.00  0.00    +0.000 C 
ATOM     33  C   UNL     1       1.423   8.613  20.024  0.00  0.00    +0.000 C 
ATOM     34  C   UNL     1       1.434   9.259  22.430  0.00  0.00    +0.000 C 
ENDBRANCH  12  31
TORSDOF 2
ENDMDL
MODEL 4
REMARK VINA RESULT:      -7.4      3.015      5.773
REMARK  Name = 
REMARK  6 active torsions:
REMARK  status: ('A' for Active; 'I' for Inactive)
REMARK    1  A    between atoms: C_1  and  N_2
REMARK    2  A    between atoms: C_6  and  C_7
REMARK    3  A    between atoms: N_18  and  C_19
REMARK    4  A    between atoms: C_19  and  C_20
REMARK    5  A    between atoms: C_19  and  C_21
REMARK    6  A    between atoms: C_19  and  C_22
REMARK                            x       y       z     vdW  Elec       q    Type
REMARK                         _______ _______ _______ _____ _____    ______ ____
ROOT
ATOM      1  C   UNL     1       3.695  16.080  18.902  0.00  0.00    +0.000 C 
ATOM      2  O   UNL     1       3.018  17.034  18.505  0.00  0.00    +0.000 OA
ATOM      3  N   UNL     1       5.073  16.172  19.119  0.00  0.00    +0.000 N 
ATOM      4  C   UNL     1       5.694  17.495  19.016  0.00  0.00    +0.000 C 
ATOM      5  C   UNL     1       6.820  17.654  20.034  0.00  0.00    +0.000 C 
ATOM      6  C   UNL     1       7.841  16.504  19.980  0.00  0.00    +0.000 C 
ATOM      7  C   UNL     1       7.043  15.180  20.176  0.00  0.00    +0.000 C 
ATOM      8  C   UNL     1       5.998  15.038  19.068  0.00  0.00    +0.000 C 
ATOM      9  C   UNL     1       8.621  16.442  18.612  0.00  0.00    +0.000 C 
ATOM     10  C   UNL     1       9.630  15.356  18.783  0.00  0.00    +0.000 A 
ATOM     11  C   UNL     1       9.763  14.091  18.258  0.00  0.00    +0.000 A 
ATOM     12  N   UNL     1      10.629  13.426  19.104  0.00  0.00    +0.000 N 
ATOM     13  N   UNL     1      11.128  14.224  20.070  0.00  0.00    +0.000 NA
ATOM     14  C   UNL     1      10.413  15.345  19.964  0.00  0.00    +0.000 A 
ATOM     15  C   UNL     1      10.152  16.277  21.063  0.00  0.00    +0.000 C 
ATOM     16  O   UNL     1      10.953  16.611  21.928  0.00  0.00    +0.000 OA
ATOM     17  N   UNL     1       8.837  16.738  21.072  0.00  0.00    +0.000 N 
ATOM     18  H   UNL     1       8.579  17.224  21.922  0.00  0.00    +0.000 HD
ENDROOT
BRANCH   1  24
ATOM     19  C   UNL     1       0.740   9.426  18.023  0.00  0.00    +0.000 C 
ATOM     20  N   UNL     1       1.169  10.723  18.470  0.00  0.00    +0.000 N 
ATOM     21  N   UNL     1       2.151  11.474  17.750  0.00  0.00    +0.000 N 
ATOM     22  C   UNL     1       2.300  12.619  18.564  0.00  0.00    +0.000 A 
ATOM     23  C   UNL     1       3.022  13.763  18.283  0.00  0.00    +0.000 A 
ATOM     24  C   UNL     1       2.983  14.815  19.217  0.00  0.00    +0.000 A 
ATOM     25  C   UNL     1       2.196  14.699  20.390  0.00  0.00    +0.000 A 
ATOM     26  C   UNL     1       1.546  13.515  20.706  0.00  0.00    +0.000 A 
ATOM     27  C   UNL     1       1.609  12.512  19.766  0.00  0.00    +0.000 A 
ATOM     28  C   UNL     1       0.908  11.239  19.726  0.00  0.00    +0.000 A 
ATOM     29  O   UNL     1       0.225  10.791  20.631  0.00  0.00    +0.000 OA
ATOM     30  H   UNL     1       1.815  11.740  16.822  0.00  0.00    +0.000 HD
ENDBRANCH   1  24
BRANCH  12  31
ATOM     31  C   UNL     1      10.849  11.968  19.188  0.00  0.00    +0.000 C 
ATOM     32  C   UNL     1      10.459  11.314  17.855  0.00  0.00    +0.000 C 
ATOM     33  C   UNL     1      12.330  11.637  19.484  0.00  0.00    +0.000 C 
ATOM     34  C   UNL     1      10.003  11.372  20.333  0.00  0.00    +0.000 C 
ENDBRANCH  12  31
TORSDOF 2
ENDMDL
MODEL 5
REMARK VINA RESULT:      -7.3      3.094      6.064
REMARK  Name = 
REMARK  6 active torsions:
REMARK  status: ('A' for Active; 'I' for Inactive)
REMARK    1  A    between atoms: C_1  and  N_2
REMARK    2  A    between atoms: C_6  and  C_7
REMARK    3  A    between atoms: N_18  and  C_19
REMARK    4  A    between atoms: C_19  and  C_20
REMARK    5  A    between atoms: C_19  and  C_21
REMARK    6  A    between atoms: C_19  and  C_22
REMARK                            x       y       z     vdW  Elec       q    Type
REMARK                         _______ _______ _______ _____ _____    ______ ____
ROOT
ATOM      1  C   UNL     1       3.709  16.176  19.084  0.00  0.00    +0.000 C 
ATOM      2  O   UNL     1       3.070  17.196  18.809  0.00  0.00    +0.000 OA
ATOM      3  N   UNL     1       5.062  16.206  19.436  0.00  0.00    +0.000 N 
ATOM      4  C   UNL     1       5.687  17.516  19.632  0.00  0.00    +0.000 C 
ATOM      5  C   UNL     1       6.718  17.471  20.758  0.00  0.00    +0.000 C 
ATOM      6  C   UNL     1       7.741  16.334  20.585  0.00  0.00    +0.000 C 
ATOM      7  C   UNL     1       6.931  15.009  20.465  0.00  0.00    +0.000 C 
ATOM      8  C   UNL     1       5.990  15.086  19.261  0.00  0.00    +0.000 C 
ATOM      9  C   UNL     1       8.641  16.511  19.305  0.00  0.00    +0.000 C 
ATOM     10  C   UNL     1       9.632  15.397  19.363  0.00  0.00    +0.000 A 
ATOM     11  C   UNL     1       9.814  14.247  18.630  0.00  0.00    +0.000 A 
ATOM     12  N   UNL     1      10.601  13.426  19.414  0.00  0.00    +0.000 N 
ATOM     13  N   UNL     1      11.010  14.027  20.550  0.00  0.00    +0.000 NA
ATOM     14  C   UNL     1      10.306  15.159  20.587  0.00  0.00    +0.000 A 
ATOM     15  C   UNL     1       9.945  15.880  21.810  0.00  0.00    +0.000 C 
ATOM     16  O   UNL     1      10.664  16.039  22.789  0.00  0.00    +0.000 OA
ATOM     17  N   UNL     1       8.634  16.351  21.786  0.00  0.00    +0.000 N 
ATOM     18  H   UNL     1       8.300  16.677  22.685  0.00  0.00    +0.000 HD
ENDROOT
BRANCH   1  24
ATOM     19  C   UNL     1      -0.303  10.552  21.544  0.00  0.00    +0.000 C 
ATOM     20  N   UNL     1       0.526  11.470  20.812  0.00  0.00    +0.000 N 
ATOM     21  N   UNL     1       0.728  12.813  21.260  0.00  0.00    +0.000 N 
ATOM     22  C   UNL     1       1.535  13.348  20.231  0.00  0.00    +0.000 A 
ATOM     23  C   UNL     1       2.160  14.581  20.206  0.00  0.00    +0.000 A 
ATOM     24  C   UNL     1       2.974  14.885  19.098  0.00  0.00    +0.000 A 
ATOM     25  C   UNL     1       3.161  13.933  18.066  0.00  0.00    +0.000 A 
ATOM     26  C   UNL     1       2.462  12.735  18.057  0.00  0.00    +0.000 A 
ATOM     27  C   UNL     1       1.677  12.475  19.157  0.00  0.00    +0.000 A 
ATOM     28  C   UNL     1       0.967  11.259  19.518  0.00  0.00    +0.000 A 
ATOM     29  O   UNL     1       0.846  10.283  18.798  0.00  0.00    +0.000 OA
ATOM     30  H   UNL     1       1.226  12.842  22.152  0.00  0.00    +0.000 HD
ENDBRANCH   1  24
BRANCH  12  31
ATOM     31  C   UNL     1      10.815  11.975  19.249  0.00  0.00    +0.000 C 
ATOM     32  C   UNL     1       9.932  11.211  20.245  0.00  0.00    +0.000 C 
ATOM     33  C   UNL     1      10.459  11.509  17.818  0.00  0.00    +0.000 C 
ATOM     34  C   UNL     1      12.300  11.630  19.493  0.00  0.00    +0.000 C 
ENDBRANCH  12  31
TORSDOF 2
ENDMDL
MODEL 6
REMARK VINA RESULT:      -7.2      3.409      9.139
REMARK  Name = 
REMARK  6 active torsions:
REMARK  status: ('A' for Active; 'I' for Inactive)
REMARK    1  A    between atoms: C_1  and  N_2
REMARK    2  A    between atoms: C_6  and  C_7
REMARK    3  A    between atoms: N_18  and  C_19
REMARK    4  A    between atoms: C_19  and  C_20
REMARK    5  A    between atoms: C_19  and  C_21
REMARK    6  A    between atoms: C_19  and  C_22
REMARK                            x       y       z     vdW  Elec       q    Type
REMARK                         _______ _______ _______ _____ _____    ______ ____
ROOT
ATOM      1  C   UNL     1       0.613   8.515  21.269  0.00  0.00    +0.000 C 
ATOM      2  O   UNL     1       0.075   8.503  22.381  0.00  0.00    +0.000 OA
ATOM      3  N   UNL     1       1.218   7.384  20.711  0.00  0.00    +0.000 N 
ATOM      4  C   UNL     1       1.062   6.110  21.416  0.00  0.00    +0.000 C 
ATOM      5  C   UNL     1       0.941   4.949  20.432  0.00  0.00    +0.000 C 
ATOM      6  C   UNL     1       2.075   4.928  19.391  0.00  0.00    +0.000 C 
ATOM      7  C   UNL     1       2.064   6.315  18.681  0.00  0.00    +0.000 C 
ATOM      8  C   UNL     1       2.287   7.424  19.711  0.00  0.00    +0.000 C 
ATOM      9  C   UNL     1       3.492   4.685  20.035  0.00  0.00    +0.000 C 
ATOM     10  C   UNL     1       4.436   4.583  18.884  0.00  0.00    +0.000 A 
ATOM     11  C   UNL     1       5.432   5.398  18.396  0.00  0.00    +0.000 A 
ATOM     12  N   UNL     1       5.643   4.989  17.094  0.00  0.00    +0.000 N 
ATOM     13  N   UNL     1       4.914   3.902  16.764  0.00  0.00    +0.000 NA
ATOM     14  C   UNL     1       4.081   3.749  17.794  0.00  0.00    +0.000 A 
ATOM     15  C   UNL     1       2.762   3.115  17.715  0.00  0.00    +0.000 C 
ATOM     16  O   UNL     1       2.482   2.120  17.059  0.00  0.00    +0.000 OA
ATOM     17  N   UNL     1       1.795   3.800  18.448  0.00  0.00    +0.000 N 
ATOM     18  H   UNL     1       0.847   3.500  18.255  0.00  0.00    +0.000 HD
ENDROOT
BRANCH   1  24
ATOM     19  C   UNL     1       1.628  15.530  19.385  0.00  0.00    +0.000 C 
ATOM     20  N   UNL     1       1.230  14.154  19.513  0.00  0.00    +0.000 N 
ATOM     21  N   UNL     1       1.886  13.269  20.425  0.00  0.00    +0.000 N 
ATOM     22  C   UNL     1       1.226  12.046  20.174  0.00  0.00    +0.000 A 
ATOM     23  C   UNL     1       1.351  10.861  20.874  0.00  0.00    +0.000 A 
ATOM     24  C   UNL     1       0.545   9.775  20.485  0.00  0.00    +0.000 A 
ATOM     25  C   UNL     1      -0.385   9.920  19.425  0.00  0.00    +0.000 A 
ATOM     26  C   UNL     1      -0.442  11.083  18.672  0.00  0.00    +0.000 A 
ATOM     27  C   UNL     1       0.362  12.120  19.085  0.00  0.00    +0.000 A 
ATOM     28  C   UNL     1       0.408  13.496  18.617  0.00  0.00    +0.000 A 
ATOM     29  O   UNL     1      -0.199  13.923  17.650  0.00  0.00    +0.000 OA
ATOM     30  H   UNL     1       1.744  13.555  21.396  0.00  0.00    +0.000 HD
ENDBRANCH   1  24
BRANCH  12  31
ATOM     31  C   UNL     1       6.356   5.727  16.032  0.00  0.00    +0.000 C 
ATOM     32  C   UNL     1       7.395   6.660  16.667  0.00  0.00    +0.000 C 
ATOM     33  C   UNL     1       7.085   4.764  15.066  0.00  0.00    +0.000 C 
ATOM     34  C   UNL     1       5.352   6.550  15.197  0.00  0.00    +0.000 C 
ENDBRANCH  12  31
TORSDOF 2
ENDMDL
MODEL 7
REMARK VINA RESULT:      -7.2      3.210      5.538
REMARK  Name = 
REMARK  6 active torsions:
REMARK  status: ('A' for Active; 'I' for Inactive)
REMARK    1  A    between atoms: C_1  and  N_2
REMARK    2  A    between atoms: C_6  and  C_7
REMARK    3  A    between atoms: N_18  and  C_19
REMARK    4  A    between atoms: C_19  and  C_20
REMARK    5  A    between atoms: C_19  and  C_21
REMARK    6  A    between atoms: C_19  and  C_22
REMARK                            x       y       z     vdW  Elec       q    Type
REMARK                         _______ _______ _______ _____ _____    ______ ____
ROOT
ATOM      1  C   UNL     1       2.875  15.543  18.555  0.00  0.00    +0.000 C 
ATOM      2  O   UNL     1       2.161  16.422  18.061  0.00  0.00    +0.000 OA
ATOM      3  N   UNL     1       4.241  15.727  18.794  0.00  0.00    +0.000 N 
ATOM      4  C   UNL     1       4.795  17.068  18.590  0.00  0.00    +0.000 C 
ATOM      5  C   UNL     1       5.884  17.374  19.614  0.00  0.00    +0.000 C 
ATOM      6  C   UNL     1       6.963  16.280  19.684  0.00  0.00    +0.000 C 
ATOM      7  C   UNL     1       6.230  14.937  19.978  0.00  0.00    +0.000 C 
ATOM      8  C   UNL     1       5.223  14.644  18.863  0.00  0.00    +0.000 C 
ATOM      9  C   UNL     1       7.782  16.142  18.345  0.00  0.00    +0.000 C 
ATOM     10  C   UNL     1       8.840  15.130  18.633  0.00  0.00    +0.000 A 
ATOM     11  C   UNL     1       9.052  13.833  18.223  0.00  0.00    +0.000 A 
ATOM     12  N   UNL     1       9.928  13.291  19.144  0.00  0.00    +0.000 N 
ATOM     13  N   UNL     1      10.360  14.195  20.047  0.00  0.00    +0.000 NA
ATOM     14  C   UNL     1       9.592  15.263  19.827  0.00  0.00    +0.000 A 
ATOM     15  C   UNL     1       9.253  16.271  20.834  0.00  0.00    +0.000 C 
ATOM     16  O   UNL     1      10.013  16.720  21.684  0.00  0.00    +0.000 OA
ATOM     17  N   UNL     1       7.917  16.660  20.773  0.00  0.00    +0.000 N 
ATOM     18  H   UNL     1       7.611  17.203  21.572  0.00  0.00    +0.000 HD
ENDROOT
BRANCH   1  24
ATOM     19  C   UNL     1      -0.702  10.644  22.676  0.00  0.00    +0.000 C 
ATOM     20  N   UNL     1       0.045  11.360  21.678  0.00  0.00    +0.000 N 
ATOM     21  N   UNL     1       0.179  12.784  21.724  0.00  0.00    +0.000 N 
ATOM     22  C   UNL     1       0.917  13.047  20.549  0.00  0.00    +0.000 A 
ATOM     23  C   UNL     1       1.464  14.253  20.151  0.00  0.00    +0.000 A 
ATOM     24  C   UNL     1       2.220  14.274  18.964  0.00  0.00    +0.000 A 
ATOM     25  C   UNL     1       2.431  13.081  18.229  0.00  0.00    +0.000 A 
ATOM     26  C   UNL     1       1.806  11.896  18.588  0.00  0.00    +0.000 A 
ATOM     27  C   UNL     1       1.077  11.916  19.754  0.00  0.00    +0.000 A 
ATOM     28  C   UNL     1       0.454  10.817  20.474  0.00  0.00    +0.000 A 
ATOM     29  O   UNL     1       0.369   9.673  20.061  0.00  0.00    +0.000 OA
ATOM     30  H   UNL     1       0.704  13.086  22.548  0.00  0.00    +0.000 HD
ENDBRANCH   1  24
BRANCH  12  31
ATOM     31  C   UNL     1      10.221  11.860  19.360  0.00  0.00    +0.000 C 
ATOM     32  C   UNL     1       9.725  11.441  20.751  0.00  0.00    +0.000 C 
ATOM     33  C   UNL     1       9.523  10.974  18.301  0.00  0.00    +0.000 C 
ATOM     34  C   UNL     1      11.739  11.609  19.246  0.00  0.00    +0.000 C 
ENDBRANCH  12  31
TORSDOF 2
ENDMDL
MODEL 8
REMARK VINA RESULT:      -7.1      3.376      4.998
REMARK  Name = 
REMARK  6 active torsions:
REMARK  status: ('A' for Active; 'I' for Inactive)
REMARK    1  A    between atoms: C_1  and  N_2
REMARK    2  A    between atoms: C_6  and  C_7
REMARK    3  A    between atoms: N_18  and  C_19
REMARK    4  A    between atoms: C_19  and  C_20
REMARK    5  A    between atoms: C_19  and  C_21
REMARK    6  A    between atoms: C_19  and  C_22
REMARK                            x       y       z     vdW  Elec       q    Type
REMARK                         _______ _______ _______ _____ _____    ______ ____
ROOT
ATOM      1  C   UNL     1       1.562  16.027  19.883  0.00  0.00    +0.000 C 
ATOM      2  O   UNL     1       0.750  16.956  19.925  0.00  0.00    +0.000 OA
ATOM      3  N   UNL     1       2.939  16.223  20.033  0.00  0.00    +0.000 N 
ATOM      4  C   UNL     1       3.402  17.561  20.406  0.00  0.00    +0.000 C 
ATOM      5  C   UNL     1       4.611  17.485  21.334  0.00  0.00    +0.000 C 
ATOM      6  C   UNL     1       5.735  16.592  20.780  0.00  0.00    +0.000 C 
ATOM      7  C   UNL     1       5.107  15.193  20.504  0.00  0.00    +0.000 C 
ATOM      8  C   UNL     1       3.966  15.329  19.493  0.00  0.00    +0.000 C 
ATOM      9  C   UNL     1       6.361  17.152  19.447  0.00  0.00    +0.000 C 
ATOM     10  C   UNL     1       7.491  16.232  19.126  0.00  0.00    +0.000 A 
ATOM     11  C   UNL     1       7.697  15.285  18.148  0.00  0.00    +0.000 A 
ATOM     12  N   UNL     1       8.716  14.481  18.619  0.00  0.00    +0.000 N 
ATOM     13  N   UNL     1       9.233  14.923  19.784  0.00  0.00    +0.000 NA
ATOM     14  C   UNL     1       8.397  15.892  20.160  0.00  0.00    +0.000 A 
ATOM     15  C   UNL     1       8.162  16.302  21.547  0.00  0.00    +0.000 C 
ATOM     16  O   UNL     1       9.015  16.398  22.421  0.00  0.00    +0.000 OA
ATOM     17  N   UNL     1       6.816  16.539  21.814  0.00  0.00    +0.000 N 
ATOM     18  H   UNL     1       6.604  16.632  22.800  0.00  0.00    +0.000 HD
ENDROOT
BRANCH   1  24
ATOM     19  C   UNL     1      -2.370  10.400  17.304  0.00  0.00    +0.000 C 
ATOM     20  N   UNL     1      -1.527  11.303  18.039  0.00  0.00    +0.000 N 
ATOM     21  N   UNL     1      -1.157  12.579  17.508  0.00  0.00    +0.000 N 
ATOM     22  C   UNL     1      -0.301  13.079  18.514  0.00  0.00    +0.000 A 
ATOM     23  C   UNL     1       0.244  14.346  18.604  0.00  0.00    +0.000 A 
ATOM     24  C   UNL     1       1.026  14.650  19.734  0.00  0.00    +0.000 A 
ATOM     25  C   UNL     1       1.213  13.685  20.753  0.00  0.00    +0.000 A 
ATOM     26  C   UNL     1       0.737  12.389  20.614  0.00  0.00    +0.000 A 
ATOM     27  C   UNL     1      -0.023  12.133  19.496  0.00  0.00    +0.000 A 
ATOM     28  C   UNL     1      -0.788  10.946  19.153  0.00  0.00    +0.000 A 
ATOM     29  O   UNL     1      -0.763   9.897  19.773  0.00  0.00    +0.000 OA
ATOM     30  H   UNL     1      -1.968  13.190  17.397  0.00  0.00    +0.000 HD
ENDBRANCH   1  24
BRANCH  12  31
ATOM     31  C   UNL     1       9.096  13.143  18.124  0.00  0.00    +0.000 C 
ATOM     32  C   UNL     1       7.974  12.588  17.235  0.00  0.00    +0.000 C 
ATOM     33  C   UNL     1      10.400  13.196  17.294  0.00  0.00    +0.000 C 
ATOM     34  C   UNL     1       9.343  12.190  19.314  0.00  0.00    +0.000 C 
ENDBRANCH  12  31
TORSDOF 2
ENDMDL
MODEL 9
REMARK VINA RESULT:      -7.0      3.382      5.600
REMARK  Name = 
REMARK  6 active torsions:
REMARK  status: ('A' for Active; 'I' for Inactive)
REMARK    1  A    between atoms: C_1  and  N_2
REMARK    2  A    between atoms: C_6  and  C_7
REMARK    3  A    between atoms: N_18  and  C_19
REMARK    4  A    between atoms: C_19  and  C_20
REMARK    5  A    between atoms: C_19  and  C_21
REMARK    6  A    between atoms: C_19  and  C_22
REMARK                            x       y       z     vdW  Elec       q    Type
REMARK                         _______ _______ _______ _____ _____    ______ ____
ROOT
ATOM      1  C   UNL     1       2.739  16.077  19.580  0.00  0.00    +0.000 C 
ATOM      2  O   UNL     1       2.097  17.111  19.370  0.00  0.00    +0.000 OA
ATOM      3  N   UNL     1       4.099  16.087  19.905  0.00  0.00    +0.000 N 
ATOM      4  C   UNL     1       4.731  17.385  20.154  0.00  0.00    +0.000 C 
ATOM      5  C   UNL     1       5.784  17.281  21.255  0.00  0.00    +0.000 C 
ATOM      6  C   UNL     1       6.801  16.153  21.003  0.00  0.00    +0.000 C 
ATOM      7  C   UNL     1       5.985  14.836  20.833  0.00  0.00    +0.000 C 
ATOM      8  C   UNL     1       5.020  14.976  19.654  0.00  0.00    +0.000 C 
ATOM      9  C   UNL     1       7.675  16.393  19.715  0.00  0.00    +0.000 C 
ATOM     10  C   UNL     1       8.664  15.276  19.697  0.00  0.00    +0.000 A 
ATOM     11  C   UNL     1       8.828  14.164  18.902  0.00  0.00    +0.000 A 
ATOM     12  N   UNL     1       9.629  13.303  19.627  0.00  0.00    +0.000 N 
ATOM     13  N   UNL     1      10.063  13.846  20.784  0.00  0.00    +0.000 NA
ATOM     14  C   UNL     1       9.363  14.976  20.892  0.00  0.00    +0.000 A 
ATOM     15  C   UNL     1       9.028  15.633  22.158  0.00  0.00    +0.000 C 
ATOM     16  O   UNL     1       9.768  15.741  23.128  0.00  0.00    +0.000 OA
ATOM     17  N   UNL     1       7.719  16.107  22.185  0.00  0.00    +0.000 N 
ATOM     18  H   UNL     1       7.404  16.388  23.106  0.00  0.00    +0.000 HD
ENDROOT
BRANCH   1  24
ATOM     19  C   UNL     1      -2.261  11.043  17.724  0.00  0.00    +0.000 C 
ATOM     20  N   UNL     1      -1.205  11.823  18.311  0.00  0.00    +0.000 N 
ATOM     21  N   UNL     1      -0.740  13.029  17.698  0.00  0.00    +0.000 N 
ATOM     22  C   UNL     1       0.310  13.411  18.563  0.00  0.00    +0.000 A 
ATOM     23  C   UNL     1       1.033  14.589  18.541  0.00  0.00    +0.000 A 
ATOM     24  C   UNL     1       2.000  14.788  19.544  0.00  0.00    +0.000 A 
ATOM     25  C   UNL     1       2.192  13.815  20.555  0.00  0.00    +0.000 A 
ATOM     26  C   UNL     1       1.526  12.599  20.519  0.00  0.00    +0.000 A 
ATOM     27  C   UNL     1       0.589  12.444  19.523  0.00  0.00    +0.000 A 
ATOM     28  C   UNL     1      -0.375  11.374  19.322  0.00  0.00    +0.000 A 
ATOM     29  O   UNL     1      -0.410  10.337  19.962  0.00  0.00    +0.000 OA
ATOM     30  H   UNL     1      -1.465  13.748  17.683  0.00  0.00    +0.000 HD
ENDBRANCH   1  24
BRANCH  12  31
ATOM     31  C   UNL     1       9.836  11.862  19.385  0.00  0.00    +0.000 C 
ATOM     32  C   UNL     1      11.331  11.589  19.167  0.00  0.00    +0.000 C 
ATOM     33  C   UNL     1       9.351  11.012  20.583  0.00  0.00    +0.000 C 
ATOM     34  C   UNL     1       9.034  11.415  18.144  0.00  0.00    +0.000 C 
ENDBRANCH  12  31
TORSDOF 2
ENDMDL
