MODEL 1
REMARK VINA RESULT:      -8.4      0.000      0.000
REMARK  Name = 
REMARK  8 active torsions:
REMARK  status: ('A' for Active; 'I' for Inactive)
REMARK    1  A    between atoms: C_1  and  C_2
REMARK    2  A    between atoms: C_2  and  C_3
REMARK    3  A    between atoms: C_5  and  C_6
REMARK    4  A    between atoms: C_6  and  C_7
REMARK    5  A    between atoms: C_6  and  N_8
REMARK    6  A    between atoms: C_12  and  C_13
REMARK    7  A    between atoms: C_16  and  N_17
REMARK    8  A    between atoms: C_18  and  C_19
REMARK                            x       y       z     vdW  Elec       q    Type
REMARK                         _______ _______ _______ _____ _____    ______ ____
ROOT
ATOM      1  N   UNL     1       4.693   5.059  18.460  0.00  0.00    +0.000 N 
ATOM      2  C   UNL     1       4.790   3.696  18.653  0.00  0.00    +0.000 A 
ATOM      3  C   UNL     1       3.627   3.319  19.265  0.00  0.00    +0.000 A 
ATOM      4  N   UNL     1       2.815   4.400  19.445  0.00  0.00    +0.000 NA
ATOM      5  C   UNL     1       3.451   5.455  18.958  0.00  0.00    +0.000 A 
ENDROOT
BRANCH   5   6
ATOM      6  C   UNL     1       2.833   6.796  18.910  0.00  0.00    +0.000 A 
ATOM      7  C   UNL     1       2.892   7.619  17.798  0.00  0.00    +0.000 A 
ATOM      8  C   UNL     1       2.161   8.808  17.734  0.00  0.00    +0.000 A 
ATOM      9  C   UNL     1       1.409   9.261  18.817  0.00  0.00    +0.000 A 
ATOM     10  C   UNL     1       1.468   8.524  20.001  0.00  0.00    +0.000 A 
ATOM     11  C   UNL     1       2.165   7.301  20.040  0.00  0.00    +0.000 A 
BRANCH   9  12
ATOM     12  N   UNL     1       0.588  10.418  18.740  0.00  0.00    +0.000 N 
ATOM     13  C   UNL     1      -0.648  10.489  18.104  0.00  0.00    +0.000 C 
ATOM     14  C   UNL     1      -1.384  11.789  18.270  0.00  0.00    +0.000 C 
ATOM     15  O   UNL     1      -1.176   9.596  17.432  0.00  0.00    +0.000 OA
ATOM     16  H   UNL     1       0.903  11.234  19.244  0.00  0.00    +0.000 HD
ENDBRANCH   9  12
ENDBRANCH   5   6
BRANCH   1  17
ATOM     17  C   UNL     1       5.767   5.858  17.858  0.00  0.00    +0.000 C 
ATOM     18  C   UNL     1       7.000   5.920  18.765  0.00  0.00    +0.000 C 
BRANCH  17  21
ATOM     19  C   UNL     1       6.282   4.571  14.447  0.00  0.00    +0.000 A 
ATOM     20  C   UNL     1       5.380   4.700  15.526  0.00  0.00    +0.000 A 
ATOM     21  C   UNL     1       6.084   5.409  16.472  0.00  0.00    +0.000 A 
ATOM     22  O   UNL     1       7.292   5.761  15.955  0.00  0.00    +0.000 OA
ATOM     23  N   UNL     1       7.417   5.241  14.681  0.00  0.00    +0.000 NA
BRANCH  19  25
ATOM     24  C   UNL     1       7.132   4.192  12.140  0.00  0.00    +0.000 C 
ATOM     25  C   UNL     1       6.119   3.774  13.200  0.00  0.00    +0.000 C 
ENDBRANCH  19  25
ENDBRANCH  17  21
ENDBRANCH   1  17
TORSDOF 5
ENDMDL
MODEL 2
REMARK VINA RESULT:      -8.4      1.015      1.015
REMARK  Name = 
REMARK  8 active torsions:
REMARK  status: ('A' for Active; 'I' for Inactive)
REMARK    1  A    between atoms: C_1  and  C_2
REMARK    2  A    between atoms: C_2  and  C_3
REMARK    3  A    between atoms: C_5  and  C_6
REMARK    4  A    between atoms: C_6  and  C_7
REMARK    5  A    between atoms: C_6  and  N_8
REMARK    6  A    between atoms: C_12  and  C_13
REMARK    7  A    between atoms: C_16  and  N_17
REMARK    8  A    between atoms: C_18  and  C_19
REMARK                            x       y       z     vdW  Elec       q    Type
REMARK                         _______ _______ _______ _____ _____    ______ ____
ROOT
ATOM      1  N   UNL     1       4.911   5.144  18.622  0.00  0.00    +0.000 N 
ATOM      2  C   UNL     1       5.065   3.811  18.944  0.00  0.00    +0.000 A 
ATOM      3  C   UNL     1       3.920   3.447  19.596  0.00  0.00    +0.000 A 
ATOM      4  N   UNL     1       3.063   4.504  19.675  0.00  0.00    +0.000 NA
ATOM      5  C   UNL     1       3.653   5.534  19.086  0.00  0.00    +0.000 A 
ENDROOT
BRANCH   5   6
ATOM      6  C   UNL     1       2.978   6.837  18.912  0.00  0.00    +0.000 A 
ATOM      7  C   UNL     1       3.106   7.611  17.771  0.00  0.00    +0.000 A 
ATOM      8  C   UNL     1       2.329   8.755  17.579  0.00  0.00    +0.000 A 
ATOM      9  C   UNL     1       1.453   9.216  18.561  0.00  0.00    +0.000 A 
ATOM     10  C   UNL     1       1.431   8.537  19.781  0.00  0.00    +0.000 A 
ATOM     11  C   UNL     1       2.179   7.355  19.946  0.00  0.00    +0.000 A 
BRANCH   9  12
ATOM     12  N   UNL     1       0.588  10.323  18.348  0.00  0.00    +0.000 N 
ATOM     13  C   UNL     1       0.644  11.533  19.032  0.00  0.00    +0.000 C 
ATOM     14  C   UNL     1      -0.297  12.596  18.538  0.00  0.00    +0.000 C 
ATOM     15  O   UNL     1       1.381  11.799  19.988  0.00  0.00    +0.000 OA
ATOM     16  H   UNL     1      -0.077  10.242  17.593  0.00  0.00    +0.000 HD
ENDBRANCH   9  12
ENDBRANCH   5   6
BRANCH   1  17
ATOM     17  C   UNL     1       5.948   5.926  17.939  0.00  0.00    +0.000 C 
ATOM     18  C   UNL     1       7.239   5.991  18.764  0.00  0.00    +0.000 C 
BRANCH  17  21
ATOM     19  C   UNL     1       6.232   4.587  14.522  0.00  0.00    +0.000 A 
ATOM     20  C   UNL     1       5.403   4.739  15.654  0.00  0.00    +0.000 A 
ATOM     21  C   UNL     1       6.172   5.454  16.543  0.00  0.00    +0.000 A 
ATOM     22  O   UNL     1       7.346   5.789  15.944  0.00  0.00    +0.000 OA
ATOM     23  N   UNL     1       7.385   5.250  14.672  0.00  0.00    +0.000 NA
BRANCH  19  25
ATOM     24  C   UNL     1       7.011   4.073  12.215  0.00  0.00    +0.000 C 
ATOM     25  C   UNL     1       5.983   3.774  13.299  0.00  0.00    +0.000 C 
ENDBRANCH  19  25
ENDBRANCH  17  21
ENDBRANCH   1  17
TORSDOF 5
ENDMDL
MODEL 3
REMARK VINA RESULT:      -8.3      0.390      1.048
REMARK  Name = 
REMARK  8 active torsions:
REMARK  status: ('A' for Active; 'I' for Inactive)
REMARK    1  A    between atoms: C_1  and  C_2
REMARK    2  A    between atoms: C_2  and  C_3
REMARK    3  A    between atoms: C_5  and  C_6
REMARK    4  A    between atoms: C_6  and  C_7
REMARK    5  A    between atoms: C_6  and  N_8
REMARK    6  A    between atoms: C_12  and  C_13
REMARK    7  A    between atoms: C_16  and  N_17
REMARK    8  A    between atoms: C_18  and  C_19
REMARK                            x       y       z     vdW  Elec       q    Type
REMARK                         _______ _______ _______ _____ _____    ______ ____
ROOT
ATOM      1  N   UNL     1       4.945   5.165  18.485  0.00  0.00    +0.000 N 
ATOM      2  C   UNL     1       5.255   3.847  18.749  0.00  0.00    +0.000 A 
ATOM      3  C   UNL     1       4.220   3.360  19.498  0.00  0.00    +0.000 A 
ATOM      4  N   UNL     1       3.281   4.329  19.694  0.00  0.00    +0.000 NA
ATOM      5  C   UNL     1       3.709   5.422  19.082  0.00  0.00    +0.000 A 
ENDROOT
BRANCH   5   6
ATOM      6  C   UNL     1       2.902   6.658  19.016  0.00  0.00    +0.000 A 
ATOM      7  C   UNL     1       2.145   7.128  20.076  0.00  0.00    +0.000 A 
ATOM      8  C   UNL     1       1.527   8.379  20.029  0.00  0.00    +0.000 A 
ATOM      9  C   UNL     1       1.571   9.172  18.883  0.00  0.00    +0.000 A 
ATOM     10  C   UNL     1       2.194   8.643  17.752  0.00  0.00    +0.000 A 
ATOM     11  C   UNL     1       2.860   7.404  17.824  0.00  0.00    +0.000 A 
BRANCH   9  12
ATOM     12  N   UNL     1       1.027  10.485  18.847  0.00  0.00    +0.000 N 
ATOM     13  C   UNL     1      -0.256  10.814  18.422  0.00  0.00    +0.000 C 
ATOM     14  C   UNL     1      -0.642  12.256  18.598  0.00  0.00    +0.000 C 
ATOM     15  O   UNL     1      -1.082  10.041  17.923  0.00  0.00    +0.000 OA
ATOM     16  H   UNL     1       1.601  11.225  19.223  0.00  0.00    +0.000 HD
ENDBRANCH   9  12
ENDBRANCH   5   6
BRANCH   1  17
ATOM     17  C   UNL     1       5.831   6.057  17.729  0.00  0.00    +0.000 C 
ATOM     18  C   UNL     1       7.091   6.409  18.527  0.00  0.00    +0.000 C 
BRANCH  17  21
ATOM     19  C   UNL     1       6.300   4.569  14.394  0.00  0.00    +0.000 A 
ATOM     20  C   UNL     1       5.404   4.785  15.465  0.00  0.00    +0.000 A 
ATOM     21  C   UNL     1       6.132   5.523  16.370  0.00  0.00    +0.000 A 
ATOM     22  O   UNL     1       7.348   5.809  15.833  0.00  0.00    +0.000 OA
ATOM     23  N   UNL     1       7.455   5.216  14.590  0.00  0.00    +0.000 NA
BRANCH  19  25
ATOM     24  C   UNL     1       7.038   4.129  12.060  0.00  0.00    +0.000 C 
ATOM     25  C   UNL     1       6.110   3.710  13.193  0.00  0.00    +0.000 C 
ENDBRANCH  19  25
ENDBRANCH  17  21
ENDBRANCH   1  17
TORSDOF 5
ENDMDL
MODEL 4
REMARK VINA RESULT:      -8.0      1.283      1.326
REMARK  Name = 
REMARK  8 active torsions:
REMARK  status: ('A' for Active; 'I' for Inactive)
REMARK    1  A    between atoms: C_1  and  C_2
REMARK    2  A    between atoms: C_2  and  C_3
REMARK    3  A    between atoms: C_5  and  C_6
REMARK    4  A    between atoms: C_6  and  C_7
REMARK    5  A    between atoms: C_6  and  N_8
REMARK    6  A    between atoms: C_12  and  C_13
REMARK    7  A    between atoms: C_16  and  N_17
REMARK    8  A    between atoms: C_18  and  C_19
REMARK                            x       y       z     vdW  Elec       q    Type
REMARK                         _______ _______ _______ _____ _____    ______ ____
ROOT
ATOM      1  N   UNL     1       4.376   4.961  17.687  0.00  0.00    +0.000 N 
ATOM      2  C   UNL     1       4.338   3.595  17.496  0.00  0.00    +0.000 A 
ATOM      3  C   UNL     1       3.100   3.191  17.914  0.00  0.00    +0.000 A 
ATOM      4  N   UNL     1       2.373   4.261  18.344  0.00  0.00    +0.000 NA
ATOM      5  C   UNL     1       3.136   5.336  18.207  0.00  0.00    +0.000 A 
ENDROOT
BRANCH   5   6
ATOM      6  C   UNL     1       2.642   6.697  18.502  0.00  0.00    +0.000 A 
ATOM      7  C   UNL     1       2.568   7.700  17.550  0.00  0.00    +0.000 A 
ATOM      8  C   UNL     1       1.948   8.920  17.827  0.00  0.00    +0.000 A 
ATOM      9  C   UNL     1       1.453   9.215  19.097  0.00  0.00    +0.000 A 
ATOM     10  C   UNL     1       1.663   8.278  20.109  0.00  0.00    +0.000 A 
ATOM     11  C   UNL     1       2.243   7.029  19.809  0.00  0.00    +0.000 A 
BRANCH   9  12
ATOM     12  N   UNL     1       0.739  10.412  19.374  0.00  0.00    +0.000 N 
ATOM     13  C   UNL     1       1.146  11.695  19.019  0.00  0.00    +0.000 C 
ATOM     14  C   UNL     1       0.156  12.788  19.310  0.00  0.00    +0.000 C 
ATOM     15  O   UNL     1       2.225  12.002  18.500  0.00  0.00    +0.000 OA
ATOM     16  H   UNL     1      -0.168  10.311  19.806  0.00  0.00    +0.000 HD
ENDBRANCH   9  12
ENDBRANCH   5   6
BRANCH   1  17
ATOM     17  C   UNL     1       5.561   5.775  17.392  0.00  0.00    +0.000 C 
ATOM     18  C   UNL     1       6.589   5.708  18.527  0.00  0.00    +0.000 C 
BRANCH  17  21
ATOM     19  C   UNL     1       6.719   4.820  14.031  0.00  0.00    +0.000 A 
ATOM     20  C   UNL     1       5.614   4.917  14.905  0.00  0.00    +0.000 A 
ATOM     21  C   UNL     1       6.142   5.450  16.059  0.00  0.00    +0.000 A 
ATOM     22  O   UNL     1       7.455   5.741  15.853  0.00  0.00    +0.000 OA
ATOM     23  N   UNL     1       7.819   5.351  14.579  0.00  0.00    +0.000 NA
BRANCH  19  25
ATOM     24  C   UNL     1       5.554   3.309  12.434  0.00  0.00    +0.000 C 
ATOM     25  C   UNL     1       6.778   4.182  12.687  0.00  0.00    +0.000 C 
ENDBRANCH  19  25
ENDBRANCH  17  21
ENDBRANCH   1  17
TORSDOF 5
ENDMDL
MODEL 5
REMARK VINA RESULT:      -8.0      1.306      1.677
REMARK  Name = 
REMARK  8 active torsions:
REMARK  status: ('A' for Active; 'I' for Inactive)
REMARK    1  A    between atoms: C_1  and  C_2
REMARK    2  A    between atoms: C_2  and  C_3
REMARK    3  A    between atoms: C_5  and  C_6
REMARK    4  A    between atoms: C_6  and  C_7
REMARK    5  A    between atoms: C_6  and  N_8
REMARK    6  A    between atoms: C_12  and  C_13
REMARK    7  A    between atoms: C_16  and  N_17
REMARK    8  A    between atoms: C_18  and  C_19
REMARK                            x       y       z     vdW  Elec       q    Type
REMARK                         _______ _______ _______ _____ _____    ______ ____
ROOT
ATOM      1  N   UNL     1       4.922   5.587  18.019  0.00  0.00    +0.000 N 
ATOM      2  C   UNL     1       5.422   4.330  18.291  0.00  0.00    +0.000 A 
ATOM      3  C   UNL     1       4.626   3.813  19.276  0.00  0.00    +0.000 A 
ATOM      4  N   UNL     1       3.649   4.702  19.610  0.00  0.00    +0.000 NA
ATOM      5  C   UNL     1       3.818   5.776  18.854  0.00  0.00    +0.000 A 
ENDROOT
BRANCH   5   6
ATOM      6  C   UNL     1       2.885   6.921  18.888  0.00  0.00    +0.000 A 
ATOM      7  C   UNL     1       2.187   7.297  20.023  0.00  0.00    +0.000 A 
ATOM      8  C   UNL     1       1.441   8.477  20.060  0.00  0.00    +0.000 A 
ATOM      9  C   UNL     1       1.296   9.284  18.932  0.00  0.00    +0.000 A 
ATOM     10  C   UNL     1       1.861   8.836  17.737  0.00  0.00    +0.000 A 
ATOM     11  C   UNL     1       2.655   7.672  17.722  0.00  0.00    +0.000 A 
BRANCH   9  12
ATOM     12  N   UNL     1       0.618  10.533  18.974  0.00  0.00    +0.000 N 
ATOM     13  C   UNL     1       1.201  11.774  18.738  0.00  0.00    +0.000 C 
ATOM     14  C   UNL     1       0.249  12.937  18.714  0.00  0.00    +0.000 C 
ATOM     15  O   UNL     1       2.403  11.994  18.554  0.00  0.00    +0.000 OA
ATOM     16  H   UNL     1      -0.379  10.504  19.123  0.00  0.00    +0.000 HD
ENDBRANCH   9  12
ENDBRANCH   5   6
BRANCH   1  17
ATOM     17  C   UNL     1       5.527   6.491  17.035  0.00  0.00    +0.000 C 
ATOM     18  C   UNL     1       6.603   7.378  17.672  0.00  0.00    +0.000 C 
BRANCH  17  21
ATOM     19  C   UNL     1       6.432   4.549  14.041  0.00  0.00    +0.000 A 
ATOM     20  C   UNL     1       5.383   4.994  14.875  0.00  0.00    +0.000 A 
ATOM     21  C   UNL     1       6.012   5.759  15.831  0.00  0.00    +0.000 A 
ATOM     22  O   UNL     1       7.336   5.843  15.531  0.00  0.00    +0.000 OA
ATOM     23  N   UNL     1       7.602   5.088  14.404  0.00  0.00    +0.000 NA
BRANCH  19  25
ATOM     24  C   UNL     1       4.983   3.547  12.285  0.00  0.00    +0.000 C 
ATOM     25  C   UNL     1       6.367   3.569  12.922  0.00  0.00    +0.000 C 
ENDBRANCH  19  25
ENDBRANCH  17  21
ENDBRANCH   1  17
TORSDOF 5
ENDMDL
MODEL 6
REMARK VINA RESULT:      -8.0      0.963      1.008
REMARK  Name = 
REMARK  8 active torsions:
REMARK  status: ('A' for Active; 'I' for Inactive)
REMARK    1  A    between atoms: C_1  and  C_2
REMARK    2  A    between atoms: C_2  and  C_3
REMARK    3  A    between atoms: C_5  and  C_6
REMARK    4  A    between atoms: C_6  and  C_7
REMARK    5  A    between atoms: C_6  and  N_8
REMARK    6  A    between atoms: C_12  and  C_13
REMARK    7  A    between atoms: C_16  and  N_17
REMARK    8  A    between atoms: C_18  and  C_19
REMARK                            x       y       z     vdW  Elec       q    Type
REMARK                         _______ _______ _______ _____ _____    ______ ____
ROOT
ATOM      1  N   UNL     1       4.196   5.084  19.121  0.00  0.00    +0.000 N 
ATOM      2  C   UNL     1       4.155   3.745  19.450  0.00  0.00    +0.000 A 
ATOM      3  C   UNL     1       2.908   3.521  19.964  0.00  0.00    +0.000 A 
ATOM      4  N   UNL     1       2.178   4.672  19.953  0.00  0.00    +0.000 NA
ATOM      5  C   UNL     1       2.947   5.622  19.442  0.00  0.00    +0.000 A 
ENDROOT
BRANCH   5   6
ATOM      6  C   UNL     1       2.454   6.994  19.202  0.00  0.00    +0.000 A 
ATOM      7  C   UNL     1       2.584   7.644  17.986  0.00  0.00    +0.000 A 
ATOM      8  C   UNL     1       1.965   8.874  17.751  0.00  0.00    +0.000 A 
ATOM      9  C   UNL     1       1.262   9.541  18.753  0.00  0.00    +0.000 A 
ATOM     10  C   UNL     1       1.258   8.974  20.029  0.00  0.00    +0.000 A 
ATOM     11  C   UNL     1       1.840   7.710  20.244  0.00  0.00    +0.000 A 
BRANCH   9  12
ATOM     12  N   UNL     1       0.550  10.746  18.508  0.00  0.00    +0.000 N 
ATOM     13  C   UNL     1      -0.823  10.843  18.302  0.00  0.00    +0.000 C 
ATOM     14  C   UNL     1      -1.360  12.242  18.191  0.00  0.00    +0.000 C 
ATOM     15  O   UNL     1      -1.616   9.900  18.204  0.00  0.00    +0.000 OA
ATOM     16  H   UNL     1       1.079  11.604  18.552  0.00  0.00    +0.000 HD
ENDBRANCH   9  12
ENDBRANCH   5   6
BRANCH   1  17
ATOM     17  C   UNL     1       5.389   5.735  18.567  0.00  0.00    +0.000 C 
ATOM     18  C   UNL     1       6.641   5.408  19.388  0.00  0.00    +0.000 C 
BRANCH  17  21
ATOM     19  C   UNL     1       5.928   4.751  15.061  0.00  0.00    +0.000 A 
ATOM     20  C   UNL     1       5.913   4.326  16.407  0.00  0.00    +0.000 A 
ATOM     21  C   UNL     1       5.553   5.450  17.113  0.00  0.00    +0.000 A 
ATOM     22  O   UNL     1       5.279   6.455  16.238  0.00  0.00    +0.000 OA
ATOM     23  N   UNL     1       5.509   6.017  14.948  0.00  0.00    +0.000 NA
BRANCH  19  25
ATOM     24  C   UNL     1       5.230   3.715  12.910  0.00  0.00    +0.000 C 
ATOM     25  C   UNL     1       6.386   3.998  13.861  0.00  0.00    +0.000 C 
ENDBRANCH  19  25
ENDBRANCH  17  21
ENDBRANCH   1  17
TORSDOF 5
ENDMDL
MODEL 7
REMARK VINA RESULT:      -7.9      0.980      1.402
REMARK  Name = 
REMARK  8 active torsions:
REMARK  status: ('A' for Active; 'I' for Inactive)
REMARK    1  A    between atoms: C_1  and  C_2
REMARK    2  A    between atoms: C_2  and  C_3
REMARK    3  A    between atoms: C_5  and  C_6
REMARK    4  A    between atoms: C_6  and  C_7
REMARK    5  A    between atoms: C_6  and  N_8
REMARK    6  A    between atoms: C_12  and  C_13
REMARK    7  A    between atoms: C_16  and  N_17
REMARK    8  A    between atoms: C_18  and  C_19
REMARK                            x       y       z     vdW  Elec       q    Type
REMARK                         _______ _______ _______ _____ _____    ______ ____
ROOT
ATOM      1  N   UNL     1       4.476   4.833  19.149  0.00  0.00    +0.000 N 
ATOM      2  C   UNL     1       4.620   3.487  19.417  0.00  0.00    +0.000 A 
ATOM      3  C   UNL     1       3.445   3.090  19.991  0.00  0.00    +0.000 A 
ATOM      4  N   UNL     1       2.580   4.140  20.076  0.00  0.00    +0.000 NA
ATOM      5  C   UNL     1       3.194   5.198  19.566  0.00  0.00    +0.000 A 
ENDROOT
BRANCH   5   6
ATOM      6  C   UNL     1       2.523   6.505  19.419  0.00  0.00    +0.000 A 
ATOM      7  C   UNL     1       1.893   7.157  20.467  0.00  0.00    +0.000 A 
ATOM      8  C   UNL     1       1.412   8.460  20.327  0.00  0.00    +0.000 A 
ATOM      9  C   UNL     1       1.466   9.131  19.105  0.00  0.00    +0.000 A 
ATOM     10  C   UNL     1       1.951   8.429  18.001  0.00  0.00    +0.000 A 
ATOM     11  C   UNL     1       2.482   7.134  18.162  0.00  0.00    +0.000 A 
BRANCH   9  12
ATOM     12  N   UNL     1       1.066  10.488  18.966  0.00  0.00    +0.000 N 
ATOM     13  C   UNL     1      -0.209  10.921  18.615  0.00  0.00    +0.000 C 
ATOM     14  C   UNL     1      -0.418  12.408  18.658  0.00  0.00    +0.000 C 
ATOM     15  O   UNL     1      -1.158  10.203  18.279  0.00  0.00    +0.000 OA
ATOM     16  H   UNL     1       1.750  11.190  19.204  0.00  0.00    +0.000 HD
ENDBRANCH   9  12
ENDBRANCH   5   6
BRANCH   1  17
ATOM     17  C   UNL     1       5.543   5.649  18.559  0.00  0.00    +0.000 C 
ATOM     18  C   UNL     1       6.864   5.484  19.318  0.00  0.00    +0.000 C 
BRANCH  17  21
ATOM     19  C   UNL     1       6.025   4.785  15.013  0.00  0.00    +0.000 A 
ATOM     20  C   UNL     1       6.065   4.322  16.346  0.00  0.00    +0.000 A 
ATOM     21  C   UNL     1       5.679   5.411  17.093  0.00  0.00    +0.000 A 
ATOM     22  O   UNL     1       5.338   6.426  16.254  0.00  0.00    +0.000 OA
ATOM     23  N   UNL     1       5.550   6.034  14.947  0.00  0.00    +0.000 NA
BRANCH  19  25
ATOM     24  C   UNL     1       5.302   3.694  12.897  0.00  0.00    +0.000 C 
ATOM     25  C   UNL     1       6.481   4.084  13.780  0.00  0.00    +0.000 C 
ENDBRANCH  19  25
ENDBRANCH  17  21
ENDBRANCH   1  17
TORSDOF 5
ENDMDL
MODEL 8
REMARK VINA RESULT:      -7.8      1.435      1.475
REMARK  Name = 
REMARK  8 active torsions:
REMARK  status: ('A' for Active; 'I' for Inactive)
REMARK    1  A    between atoms: C_1  and  C_2
REMARK    2  A    between atoms: C_2  and  C_3
REMARK    3  A    between atoms: C_5  and  C_6
REMARK    4  A    between atoms: C_6  and  C_7
REMARK    5  A    between atoms: C_6  and  N_8
REMARK    6  A    between atoms: C_12  and  C_13
REMARK    7  A    between atoms: C_16  and  N_17
REMARK    8  A    between atoms: C_18  and  C_19
REMARK                            x       y       z     vdW  Elec       q    Type
REMARK                         _______ _______ _______ _____ _____    ______ ____
ROOT
ATOM      1  N   UNL     1       4.140   4.676  17.586  0.00  0.00    +0.000 N 
ATOM      2  C   UNL     1       3.994   3.335  17.299  0.00  0.00    +0.000 A 
ATOM      3  C   UNL     1       2.712   3.013  17.650  0.00  0.00    +0.000 A 
ATOM      4  N   UNL     1       2.063   4.111  18.131  0.00  0.00    +0.000 NA
ATOM      5  C   UNL     1       2.918   5.122  18.093  0.00  0.00    +0.000 A 
ENDROOT
BRANCH   5   6
ATOM      6  C   UNL     1       2.531   6.498  18.467  0.00  0.00    +0.000 A 
ATOM      7  C   UNL     1       2.406   7.527  17.548  0.00  0.00    +0.000 A 
ATOM      8  C   UNL     1       1.884   8.769  17.916  0.00  0.00    +0.000 A 
ATOM      9  C   UNL     1       1.547   9.056  19.238  0.00  0.00    +0.000 A 
ATOM     10  C   UNL     1       1.817   8.084  20.203  0.00  0.00    +0.000 A 
ATOM     11  C   UNL     1       2.294   6.817  19.816  0.00  0.00    +0.000 A 
BRANCH   9  12
ATOM     12  N   UNL     1       0.930  10.280  19.615  0.00  0.00    +0.000 N 
ATOM     13  C   UNL     1       0.056  10.446  20.686  0.00  0.00    +0.000 C 
ATOM     14  C   UNL     1      -0.363  11.863  20.959  0.00  0.00    +0.000 C 
ATOM     15  O   UNL     1      -0.392   9.550  21.410  0.00  0.00    +0.000 OA
ATOM     16  H   UNL     1       1.202  11.104  19.100  0.00  0.00    +0.000 HD
ENDBRANCH   9  12
ENDBRANCH   5   6
BRANCH   1  17
ATOM     17  C   UNL     1       5.399   5.403  17.384  0.00  0.00    +0.000 C 
ATOM     18  C   UNL     1       6.384   5.154  18.533  0.00  0.00    +0.000 C 
BRANCH  17  21
ATOM     19  C   UNL     1       6.620   4.521  14.025  0.00  0.00    +0.000 A 
ATOM     20  C   UNL     1       5.557   4.418  14.949  0.00  0.00    +0.000 A 
ATOM     21  C   UNL     1       5.989   5.133  16.042  0.00  0.00    +0.000 A 
ATOM     22  O   UNL     1       7.188   5.705  15.752  0.00  0.00    +0.000 OA
ATOM     23  N   UNL     1       7.585   5.327  14.484  0.00  0.00    +0.000 NA
BRANCH  19  25
ATOM     24  C   UNL     1       5.423   3.429  12.137  0.00  0.00    +0.000 C 
ATOM     25  C   UNL     1       6.775   3.826  12.718  0.00  0.00    +0.000 C 
ENDBRANCH  19  25
ENDBRANCH  17  21
ENDBRANCH   1  17
TORSDOF 5
ENDMDL
MODEL 9
REMARK VINA RESULT:      -7.6      1.727      2.438
REMARK  Name = 
REMARK  8 active torsions:
REMARK  status: ('A' for Active; 'I' for Inactive)
REMARK    1  A    between atoms: C_1  and  C_2
REMARK    2  A    between atoms: C_2  and  C_3
REMARK    3  A    between atoms: C_5  and  C_6
REMARK    4  A    between atoms: C_6  and  C_7
REMARK    5  A    between atoms: C_6  and  N_8
REMARK    6  A    between atoms: C_12  and  C_13
REMARK    7  A    between atoms: C_16  and  N_17
REMARK    8  A    between atoms: C_18  and  C_19
REMARK                            x       y       z     vdW  Elec       q    Type
REMARK                         _______ _______ _______ _____ _____    ______ ____
ROOT
ATOM      1  N   UNL     1       2.934   3.181  19.256  0.00  0.00    +0.000 N 
ATOM      2  C   UNL     1       2.405   1.939  18.971  0.00  0.00    +0.000 A 
ATOM      3  C   UNL     1       1.118   2.162  18.567  0.00  0.00    +0.000 A 
ATOM      4  N   UNL     1       0.841   3.497  18.583  0.00  0.00    +0.000 NA
ATOM      5  C   UNL     1       1.934   4.121  18.995  0.00  0.00    +0.000 A 
ENDROOT
BRANCH   5   6
ATOM      6  C   UNL     1       2.026   5.594  19.059  0.00  0.00    +0.000 A 
ATOM      7  C   UNL     1       2.419   6.376  17.986  0.00  0.00    +0.000 A 
ATOM      8  C   UNL     1       2.339   7.770  18.035  0.00  0.00    +0.000 A 
ATOM      9  C   UNL     1       1.942   8.437  19.193  0.00  0.00    +0.000 A 
ATOM     10  C   UNL     1       1.697   7.670  20.333  0.00  0.00    +0.000 A 
ATOM     11  C   UNL     1       1.730   6.263  20.259  0.00  0.00    +0.000 A 
BRANCH   9  12
ATOM     12  N   UNL     1       1.767   9.847  19.235  0.00  0.00    +0.000 N 
ATOM     13  C   UNL     1       0.636  10.532  18.799  0.00  0.00    +0.000 C 
ATOM     14  C   UNL     1       0.637  12.011  19.066  0.00  0.00    +0.000 C 
ATOM     15  O   UNL     1      -0.342  10.038  18.226  0.00  0.00    +0.000 OA
ATOM     16  H   UNL     1       2.499  10.384  19.676  0.00  0.00    +0.000 HD
ENDBRANCH   9  12
ENDBRANCH   5   6
BRANCH   1  17
ATOM     17  C   UNL     1       4.298   3.371  19.762  0.00  0.00    +0.000 C 
ATOM     18  C   UNL     1       4.822   2.110  20.457  0.00  0.00    +0.000 C 
BRANCH  17  21
ATOM     19  C   UNL     1       6.356   4.520  16.933  0.00  0.00    +0.000 A 
ATOM     20  C   UNL     1       5.091   4.046  17.344  0.00  0.00    +0.000 A 
ATOM     21  C   UNL     1       5.218   3.879  18.704  0.00  0.00    +0.000 A 
ATOM     22  O   UNL     1       6.447   4.315  19.092  0.00  0.00    +0.000 OA
ATOM     23  N   UNL     1       7.161   4.724  17.983  0.00  0.00    +0.000 NA
BRANCH  19  25
ATOM     24  C   UNL     1       6.077   3.897  14.541  0.00  0.00    +0.000 C 
ATOM     25  C   UNL     1       6.851   4.741  15.547  0.00  0.00    +0.000 C 
ENDBRANCH  19  25
ENDBRANCH  17  21
ENDBRANCH   1  17
TORSDOF 5
ENDMDL
