MODEL 1
REMARK VINA RESULT:      -7.3      0.000      0.000
REMARK  Name = 
REMARK  6 active torsions:
REMARK  status: ('A' for Active; 'I' for Inactive)
REMARK    1  A    between atoms: C_1  and  C_2
REMARK    2  A    between atoms: C_2  and  C_3
REMARK    3  A    between atoms: C_7  and  C_8
REMARK    4  A    between atoms: N_10  and  C_11
REMARK    5  A    between atoms: C_11  and  C_12
REMARK    6  A    between atoms: C_12  and  N_13
REMARK                            x       y       z     vdW  Elec       q    Type
REMARK                         _______ _______ _______ _____ _____    ______ ____
ROOT
ATOM      1  C   UNL     1      -2.452  11.271  17.512  0.00  0.00    +0.000 C 
ATOM      2  N   UNL     1      -1.243  10.807  17.593  0.00  0.00    +0.000 NA
ATOM      3  C   UNL     1      -0.534  10.639  18.804  0.00  0.00    +0.000 A 
ATOM      4  C   UNL     1       0.146   9.432  19.001  0.00  0.00    +0.000 A 
ATOM      5  C   UNL     1       0.886   9.189  20.174  0.00  0.00    +0.000 A 
ATOM      6  C   UNL     1       0.936  10.177  21.164  0.00  0.00    +0.000 A 
ATOM      7  C   UNL     1       0.310  11.401  20.958  0.00  0.00    +0.000 A 
ATOM      8  C   UNL     1      -0.391  11.645  19.776  0.00  0.00    +0.000 A 
ATOM      9  S   UNL     1      -1.148  13.249  19.595  0.00  0.00    +0.000 S 
ATOM     10  C   UNL     1      -2.822  12.653  19.616  0.00  0.00    +0.000 A 
ATOM     11  C   UNL     1      -3.653  13.092  20.657  0.00  0.00    +0.000 A 
ATOM     12  C   UNL     1      -4.989  12.701  20.701  0.00  0.00    +0.000 A 
ATOM     13  C   UNL     1      -5.481  11.836  19.727  0.00  0.00    +0.000 A 
ATOM     14 BR   UNL     1      -7.322  11.409  19.711  0.00  0.00    +0.000 Br
ATOM     15  C   UNL     1      -4.643  11.325  18.732  0.00  0.00    +0.000 A 
ATOM     16  C   UNL     1      -3.310  11.750  18.656  0.00  0.00    +0.000 A 
ENDROOT
BRANCH   5  17
ATOM     17  C   UNL     1       1.605   7.891  20.317  0.00  0.00    +0.000 C 
ATOM     18  O   UNL     1       1.443   7.210  21.333  0.00  0.00    +0.000 OA
ATOM     19  N   UNL     1       2.443   7.499  19.291  0.00  0.00    +0.000 N 
ATOM     20  H   UNL     1       2.476   8.003  18.417  0.00  0.00    +0.000 HD
BRANCH  19  21
ATOM     21  C   UNL     1       3.134   6.223  19.354  0.00  0.00    +0.000 C 
BRANCH  21  22
ATOM     22  C   UNL     1       2.422   5.125  18.536  0.00  0.00    +0.000 C 
BRANCH  22  23
ATOM     23  N   UNL     1       1.852   4.013  19.324  0.00  0.00    +0.000 NA
ATOM     24  C   UNL     1       2.844   3.477  20.290  0.00  0.00    +0.000 C 
ATOM     25  C   UNL     1       3.973   2.650  19.638  0.00  0.00    +0.000 C 
ATOM     26  O   UNL     1       3.463   1.608  18.795  0.00  0.00    +0.000 OA
ATOM     27  C   UNL     1       2.556   2.133  17.817  0.00  0.00    +0.000 C 
ATOM     28  C   UNL     1       1.394   2.870  18.504  0.00  0.00    +0.000 C 
ENDBRANCH  22  23
ENDBRANCH  21  22
ENDBRANCH  19  21
ENDBRANCH   5  17
BRANCH   1  30
ATOM     29  C   UNL     1      -2.958  10.211  15.183  0.00  0.00    +0.000 C 
ATOM     30  C   UNL     1      -3.027  11.432  16.095  0.00  0.00    +0.000 C 
ENDBRANCH   1  30
TORSDOF 5
ENDMDL
MODEL 2
REMARK VINA RESULT:      -7.2      3.584      4.879
REMARK  Name = 
REMARK  6 active torsions:
REMARK  status: ('A' for Active; 'I' for Inactive)
REMARK    1  A    between atoms: C_1  and  C_2
REMARK    2  A    between atoms: C_2  and  C_3
REMARK    3  A    between atoms: C_7  and  C_8
REMARK    4  A    between atoms: N_10  and  C_11
REMARK    5  A    between atoms: C_11  and  C_12
REMARK    6  A    between atoms: C_12  and  N_13
REMARK                            x       y       z     vdW  Elec       q    Type
REMARK                         _______ _______ _______ _____ _____    ______ ____
ROOT
ATOM      1  C   UNL     1      -0.488  11.866  21.742  0.00  0.00    +0.000 C 
ATOM      2  N   UNL     1      -0.463  10.606  21.430  0.00  0.00    +0.000 NA
ATOM      3  C   UNL     1       0.122  10.089  20.252  0.00  0.00    +0.000 A 
ATOM      4  C   UNL     1       0.947   8.966  20.371  0.00  0.00    +0.000 A 
ATOM      5  C   UNL     1       1.557   8.380  19.245  0.00  0.00    +0.000 A 
ATOM      6  C   UNL     1       1.337   8.941  17.982  0.00  0.00    +0.000 A 
ATOM      7  C   UNL     1       0.476  10.024  17.843  0.00  0.00    +0.000 A 
ATOM      8  C   UNL     1      -0.153  10.575  18.961  0.00  0.00    +0.000 A 
ATOM      9  S   UNL     1      -1.251  11.951  18.682  0.00  0.00    +0.000 S 
ATOM     10  C   UNL     1      -0.259  13.142  19.552  0.00  0.00    +0.000 A 
ATOM     11  C   UNL     1       0.245  14.226  18.818  0.00  0.00    +0.000 A 
ATOM     12  C   UNL     1       0.987  15.218  19.453  0.00  0.00    +0.000 A 
ATOM     13  C   UNL     1       1.261  15.103  20.813  0.00  0.00    +0.000 A 
ATOM     14 BR   UNL     1       2.155  16.512  21.702  0.00  0.00    +0.000 Br
ATOM     15  C   UNL     1       0.837  13.986  21.539  0.00  0.00    +0.000 A 
ATOM     16  C   UNL     1       0.051  13.007  20.917  0.00  0.00    +0.000 A 
ENDROOT
BRANCH   5  17
ATOM     17  C   UNL     1       2.410   7.172  19.434  0.00  0.00    +0.000 C 
ATOM     18  O   UNL     1       2.352   6.541  20.494  0.00  0.00    +0.000 OA
ATOM     19  N   UNL     1       3.249   6.804  18.401  0.00  0.00    +0.000 N 
ATOM     20  H   UNL     1       3.201   7.254  17.498  0.00  0.00    +0.000 HD
BRANCH  19  21
ATOM     21  C   UNL     1       4.069   5.610  18.510  0.00  0.00    +0.000 C 
BRANCH  21  22
ATOM     22  C   UNL     1       4.297   4.924  17.147  0.00  0.00    +0.000 C 
BRANCH  22  23
ATOM     23  N   UNL     1       5.530   4.116  17.041  0.00  0.00    +0.000 NA
ATOM     24  C   UNL     1       6.680   4.803  17.681  0.00  0.00    +0.000 C 
ATOM     25  C   UNL     1       7.211   6.013  16.884  0.00  0.00    +0.000 C 
ATOM     26  O   UNL     1       7.510   5.676  15.522  0.00  0.00    +0.000 OA
ATOM     27  C   UNL     1       6.379   5.072  14.881  0.00  0.00    +0.000 C 
ATOM     28  C   UNL     1       5.933   3.817  15.649  0.00  0.00    +0.000 C 
ENDBRANCH  22  23
ENDBRANCH  21  22
ENDBRANCH  19  21
ENDBRANCH   5  17
BRANCH   1  30
ATOM     29  C   UNL     1      -2.747  12.181  23.006  0.00  0.00    +0.000 C 
ATOM     30  C   UNL     1      -1.223  12.232  23.041  0.00  0.00    +0.000 C 
ENDBRANCH   1  30
TORSDOF 5
ENDMDL
MODEL 3
REMARK VINA RESULT:      -7.2      0.640      1.149
REMARK  Name = 
REMARK  6 active torsions:
REMARK  status: ('A' for Active; 'I' for Inactive)
REMARK    1  A    between atoms: C_1  and  C_2
REMARK    2  A    between atoms: C_2  and  C_3
REMARK    3  A    between atoms: C_7  and  C_8
REMARK    4  A    between atoms: N_10  and  C_11
REMARK    5  A    between atoms: C_11  and  C_12
REMARK    6  A    between atoms: C_12  and  N_13
REMARK                            x       y       z     vdW  Elec       q    Type
REMARK                         _______ _______ _______ _____ _____    ______ ____
ROOT
ATOM      1  C   UNL     1      -2.694  11.266  17.646  0.00  0.00    +0.000 C 
ATOM      2  N   UNL     1      -1.477  10.819  17.693  0.00  0.00    +0.000 NA
ATOM      3  C   UNL     1      -0.711  10.721  18.877  0.00  0.00    +0.000 A 
ATOM      4  C   UNL     1      -0.008   9.532  19.103  0.00  0.00    +0.000 A 
ATOM      5  C   UNL     1       0.790   9.359  20.251  0.00  0.00    +0.000 A 
ATOM      6  C   UNL     1       0.874  10.397  21.186  0.00  0.00    +0.000 A 
ATOM      7  C   UNL     1       0.224  11.602  20.946  0.00  0.00    +0.000 A 
ATOM      8  C   UNL     1      -0.535  11.778  19.788  0.00  0.00    +0.000 A 
ATOM      9  S   UNL     1      -1.318  13.362  19.560  0.00  0.00    +0.000 S 
ATOM     10  C   UNL     1      -2.982  12.753  19.691  0.00  0.00    +0.000 A 
ATOM     11  C   UNL     1      -3.769  13.238  20.747  0.00  0.00    +0.000 A 
ATOM     12  C   UNL     1      -5.096  12.836  20.874  0.00  0.00    +0.000 A 
ATOM     13  C   UNL     1      -5.623  11.917  19.971  0.00  0.00    +0.000 A 
ATOM     14 BR   UNL     1      -7.458  11.472  20.063  0.00  0.00    +0.000 Br
ATOM     15  C   UNL     1      -4.826  11.362  18.965  0.00  0.00    +0.000 A 
ATOM     16  C   UNL     1      -3.503  11.796  18.803  0.00  0.00    +0.000 A 
ENDROOT
BRANCH   5  17
ATOM     17  C   UNL     1       1.530   8.077  20.426  0.00  0.00    +0.000 C 
ATOM     18  O   UNL     1       1.467   7.475  21.503  0.00  0.00    +0.000 OA
ATOM     19  N   UNL     1       2.275   7.608  19.362  0.00  0.00    +0.000 N 
ATOM     20  H   UNL     1       2.223   8.043  18.452  0.00  0.00    +0.000 HD
BRANCH  19  21
ATOM     21  C   UNL     1       2.980   6.342  19.459  0.00  0.00    +0.000 C 
BRANCH  21  22
ATOM     22  C   UNL     1       2.355   5.249  18.567  0.00  0.00    +0.000 C 
BRANCH  22  23
ATOM     23  N   UNL     1       3.308   4.485  17.735  0.00  0.00    +0.000 NA
ATOM     24  C   UNL     1       2.661   3.290  17.137  0.00  0.00    +0.000 C 
ATOM     25  C   UNL     1       2.383   2.156  18.146  0.00  0.00    +0.000 C 
ATOM     26  O   UNL     1       3.557   1.787  18.884  0.00  0.00    +0.000 OA
ATOM     27  C   UNL     1       4.147   2.930  19.517  0.00  0.00    +0.000 C 
ATOM     28  C   UNL     1       4.496   4.003  18.473  0.00  0.00    +0.000 C 
ENDBRANCH  22  23
ENDBRANCH  21  22
ENDBRANCH  19  21
ENDBRANCH   5  17
BRANCH   1  30
ATOM     29  C   UNL     1      -2.832  10.360  15.205  0.00  0.00    +0.000 C 
ATOM     30  C   UNL     1      -3.337  11.347  16.252  0.00  0.00    +0.000 C 
ENDBRANCH   1  30
TORSDOF 5
ENDMDL
MODEL 4
REMARK VINA RESULT:      -7.2      3.623      5.087
REMARK  Name = 
REMARK  6 active torsions:
REMARK  status: ('A' for Active; 'I' for Inactive)
REMARK    1  A    between atoms: C_1  and  C_2
REMARK    2  A    between atoms: C_2  and  C_3
REMARK    3  A    between atoms: C_7  and  C_8
REMARK    4  A    between atoms: N_10  and  C_11
REMARK    5  A    between atoms: C_11  and  C_12
REMARK    6  A    between atoms: C_12  and  N_13
REMARK                            x       y       z     vdW  Elec       q    Type
REMARK                         _______ _______ _______ _____ _____    ______ ____
ROOT
ATOM      1  C   UNL     1      -0.308  11.616  21.635  0.00  0.00    +0.000 C 
ATOM      2  N   UNL     1      -0.332  10.352  21.340  0.00  0.00    +0.000 NA
ATOM      3  C   UNL     1       0.318   9.785  20.220  0.00  0.00    +0.000 A 
ATOM      4  C   UNL     1       1.062   8.617  20.419  0.00  0.00    +0.000 A 
ATOM      5  C   UNL     1       1.728   7.980  19.355  0.00  0.00    +0.000 A 
ATOM      6  C   UNL     1       1.647   8.534  18.072  0.00  0.00    +0.000 A 
ATOM      7  C   UNL     1       0.867   9.663  17.850  0.00  0.00    +0.000 A 
ATOM      8  C   UNL     1       0.181  10.266  18.905  0.00  0.00    +0.000 A 
ATOM      9  S   UNL     1      -0.806  11.700  18.522  0.00  0.00    +0.000 S 
ATOM     10  C   UNL     1       0.179  12.844  19.460  0.00  0.00    +0.000 A 
ATOM     11  C   UNL     1       0.805  13.885  18.761  0.00  0.00    +0.000 A 
ATOM     12  C   UNL     1       1.549  14.842  19.446  0.00  0.00    +0.000 A 
ATOM     13  C   UNL     1       1.701  14.732  20.825  0.00  0.00    +0.000 A 
ATOM     14 BR   UNL     1       2.600  16.099  21.772  0.00  0.00    +0.000 Br
ATOM     15  C   UNL     1       1.153  13.652  21.524  0.00  0.00    +0.000 A 
ATOM     16  C   UNL     1       0.365  12.711  20.847  0.00  0.00    +0.000 A 
ENDROOT
BRANCH   5  17
ATOM     17  C   UNL     1       2.489   6.728  19.627  0.00  0.00    +0.000 C 
ATOM     18  O   UNL     1       2.306   6.117  20.684  0.00  0.00    +0.000 OA
ATOM     19  N   UNL     1       3.388   6.296  18.671  0.00  0.00    +0.000 N 
ATOM     20  H   UNL     1       3.442   6.734  17.763  0.00  0.00    +0.000 HD
BRANCH  19  21
ATOM     21  C   UNL     1       4.124   5.058  18.861  0.00  0.00    +0.000 C 
BRANCH  21  22
ATOM     22  C   UNL     1       5.549   5.295  19.404  0.00  0.00    +0.000 C 
BRANCH  22  23
ATOM     23  N   UNL     1       6.646   4.791  18.552  0.00  0.00    +0.000 NA
ATOM     24  C   UNL     1       7.905   5.538  18.800  0.00  0.00    +0.000 C 
ATOM     25  C   UNL     1       7.906   6.973  18.232  0.00  0.00    +0.000 C 
ATOM     26  O   UNL     1       7.557   7.005  16.841  0.00  0.00    +0.000 OA
ATOM     27  C   UNL     1       6.308   6.341  16.608  0.00  0.00    +0.000 C 
ATOM     28  C   UNL     1       6.372   4.887  17.101  0.00  0.00    +0.000 C 
ENDBRANCH  22  23
ENDBRANCH  21  22
ENDBRANCH  19  21
ENDBRANCH   5  17
BRANCH   1  30
ATOM     29  C   UNL     1      -2.567  12.474  22.614  0.00  0.00    +0.000 C 
ATOM     30  C   UNL     1      -1.126  12.044  22.865  0.00  0.00    +0.000 C 
ENDBRANCH   1  30
TORSDOF 5
ENDMDL
MODEL 5
REMARK VINA RESULT:      -7.1      3.102      4.321
REMARK  Name = 
REMARK  6 active torsions:
REMARK  status: ('A' for Active; 'I' for Inactive)
REMARK    1  A    between atoms: C_1  and  C_2
REMARK    2  A    between atoms: C_2  and  C_3
REMARK    3  A    between atoms: C_7  and  C_8
REMARK    4  A    between atoms: N_10  and  C_11
REMARK    5  A    between atoms: C_11  and  C_12
REMARK    6  A    between atoms: C_12  and  N_13
REMARK                            x       y       z     vdW  Elec       q    Type
REMARK                         _______ _______ _______ _____ _____    ______ ____
ROOT
ATOM      1  C   UNL     1      -0.495  11.663  21.734  0.00  0.00    +0.000 C 
ATOM      2  N   UNL     1      -0.417  10.417  21.379  0.00  0.00    +0.000 NA
ATOM      3  C   UNL     1       0.158   9.970  20.167  0.00  0.00    +0.000 A 
ATOM      4  C   UNL     1       1.041   8.887  20.224  0.00  0.00    +0.000 A 
ATOM      5  C   UNL     1       1.646   8.371  19.061  0.00  0.00    +0.000 A 
ATOM      6  C   UNL     1       1.360   8.962  17.825  0.00  0.00    +0.000 A 
ATOM      7  C   UNL     1       0.442  10.003  17.748  0.00  0.00    +0.000 A 
ATOM      8  C   UNL     1      -0.180  10.484  18.902  0.00  0.00    +0.000 A 
ATOM      9  S   UNL     1      -1.352  11.811  18.702  0.00  0.00    +0.000 S 
ATOM     10  C   UNL     1      -0.395  13.021  19.584  0.00  0.00    +0.000 A 
ATOM     11  C   UNL     1       0.031  14.153  18.875  0.00  0.00    +0.000 A 
ATOM     12  C   UNL     1       0.742  15.160  19.523  0.00  0.00    +0.000 A 
ATOM     13  C   UNL     1       1.062  15.014  20.870  0.00  0.00    +0.000 A 
ATOM     14 BR   UNL     1       1.910  16.436  21.782  0.00  0.00    +0.000 Br
ATOM     15  C   UNL     1       0.716  13.853  21.568  0.00  0.00    +0.000 A 
ATOM     16  C   UNL     1      -0.039  12.857  20.934  0.00  0.00    +0.000 A 
ENDROOT
BRANCH   5  17
ATOM     17  C   UNL     1       2.563   7.202  19.184  0.00  0.00    +0.000 C 
ATOM     18  O   UNL     1       2.592   6.554  20.234  0.00  0.00    +0.000 OA
ATOM     19  N   UNL     1       3.361   6.890  18.101  0.00  0.00    +0.000 N 
ATOM     20  H   UNL     1       3.244   7.350  17.210  0.00  0.00    +0.000 HD
BRANCH  19  21
ATOM     21  C   UNL     1       4.241   5.734  18.146  0.00  0.00    +0.000 C 
BRANCH  21  22
ATOM     22  C   UNL     1       3.562   4.454  17.616  0.00  0.00    +0.000 C 
BRANCH  22  23
ATOM     23  N   UNL     1       4.029   3.189  18.221  0.00  0.00    +0.000 NA
ATOM     24  C   UNL     1       3.153   2.054  17.833  0.00  0.00    +0.000 C 
ATOM     25  C   UNL     1       1.772   2.063  18.522  0.00  0.00    +0.000 C 
ATOM     26  O   UNL     1       1.879   2.163  19.949  0.00  0.00    +0.000 OA
ATOM     27  C   UNL     1       2.669   3.298  20.327  0.00  0.00    +0.000 C 
ATOM     28  C   UNL     1       4.070   3.211  19.699  0.00  0.00    +0.000 C 
ENDBRANCH  22  23
ENDBRANCH  21  22
ENDBRANCH  19  21
ENDBRANCH   5  17
BRANCH   1  30
ATOM     29  C   UNL     1      -2.698  12.264  22.992  0.00  0.00    +0.000 C 
ATOM     30  C   UNL     1      -1.208  11.947  23.066  0.00  0.00    +0.000 C 
ENDBRANCH   1  30
TORSDOF 5
ENDMDL
MODEL 6
REMARK VINA RESULT:      -7.1      3.715      5.212
REMARK  Name = 
REMARK  6 active torsions:
REMARK  status: ('A' for Active; 'I' for Inactive)
REMARK    1  A    between atoms: C_1  and  C_2
REMARK    2  A    between atoms: C_2  and  C_3
REMARK    3  A    between atoms: C_7  and  C_8
REMARK    4  A    between atoms: N_10  and  C_11
REMARK    5  A    between atoms: C_11  and  C_12
REMARK    6  A    between atoms: C_12  and  N_13
REMARK                            x       y       z     vdW  Elec       q    Type
REMARK                         _______ _______ _______ _____ _____    ______ ____
ROOT
ATOM      1  C   UNL     1       0.029  12.028  21.474  0.00  0.00    +0.000 C 
ATOM      2  N   UNL     1      -0.167  10.772  21.215  0.00  0.00    +0.000 NA
ATOM      3  C   UNL     1       0.497  10.057  20.193  0.00  0.00    +0.000 A 
ATOM      4  C   UNL     1       1.018   8.798  20.509  0.00  0.00    +0.000 A 
ATOM      5  C   UNL     1       1.682   8.015  19.545  0.00  0.00    +0.000 A 
ATOM      6  C   UNL     1       1.828   8.513  18.245  0.00  0.00    +0.000 A 
ATOM      7  C   UNL     1       1.268   9.739  17.903  0.00  0.00    +0.000 A 
ATOM      8  C   UNL     1       0.580  10.492  18.857  0.00  0.00    +0.000 A 
ATOM      9  S   UNL     1      -0.117  12.043  18.323  0.00  0.00    +0.000 S 
ATOM     10  C   UNL     1       0.935  13.061  19.332  0.00  0.00    +0.000 A 
ATOM     11  C   UNL     1       1.792  13.957  18.677  0.00  0.00    +0.000 A 
ATOM     12  C   UNL     1       2.604  14.816  19.412  0.00  0.00    +0.000 A 
ATOM     13  C   UNL     1       2.589  14.748  20.803  0.00  0.00    +0.000 A 
ATOM     14 BR   UNL     1       3.591  16.001  21.803  0.00  0.00    +0.000 Br
ATOM     15  C   UNL     1       1.802  13.802  21.467  0.00  0.00    +0.000 A 
ATOM     16  C   UNL     1       0.949  12.966  20.734  0.00  0.00    +0.000 A 
ENDROOT
BRANCH   5  17
ATOM     17  C   UNL     1       2.198   6.672  19.937  0.00  0.00    +0.000 C 
ATOM     18  O   UNL     1       1.894   6.197  21.036  0.00  0.00    +0.000 OA
ATOM     19  N   UNL     1       3.012   6.005  19.044  0.00  0.00    +0.000 N 
ATOM     20  H   UNL     1       3.156   6.348  18.105  0.00  0.00    +0.000 HD
BRANCH  19  21
ATOM     21  C   UNL     1       3.507   4.675  19.353  0.00  0.00    +0.000 C 
BRANCH  21  22
ATOM     22  C   UNL     1       4.900   4.407  18.746  0.00  0.00    +0.000 C 
BRANCH  22  23
ATOM     23  N   UNL     1       5.502   5.539  18.011  0.00  0.00    +0.000 NA
ATOM     24  C   UNL     1       5.452   5.314  16.544  0.00  0.00    +0.000 C 
ATOM     25  C   UNL     1       6.446   4.246  16.039  0.00  0.00    +0.000 C 
ATOM     26  O   UNL     1       7.788   4.509  16.471  0.00  0.00    +0.000 OA
ATOM     27  C   UNL     1       7.850   4.661  17.895  0.00  0.00    +0.000 C 
ATOM     28  C   UNL     1       6.918   5.794  18.355  0.00  0.00    +0.000 C 
ENDBRANCH  22  23
ENDBRANCH  21  22
ENDBRANCH  19  21
ENDBRANCH   5  17
BRANCH   1  30
ATOM     29  C   UNL     1      -2.015  11.802  23.078  0.00  0.00    +0.000 C 
ATOM     30  C   UNL     1      -0.835  12.637  22.591  0.00  0.00    +0.000 C 
ENDBRANCH   1  30
TORSDOF 5
ENDMDL
MODEL 7
REMARK VINA RESULT:      -7.1      2.047      2.337
REMARK  Name = 
REMARK  6 active torsions:
REMARK  status: ('A' for Active; 'I' for Inactive)
REMARK    1  A    between atoms: C_1  and  C_2
REMARK    2  A    between atoms: C_2  and  C_3
REMARK    3  A    between atoms: C_7  and  C_8
REMARK    4  A    between atoms: N_10  and  C_11
REMARK    5  A    between atoms: C_11  and  C_12
REMARK    6  A    between atoms: C_12  and  N_13
REMARK                            x       y       z     vdW  Elec       q    Type
REMARK                         _______ _______ _______ _____ _____    ______ ____
ROOT
ATOM      1  C   UNL     1      -2.907  11.399  17.730  0.00  0.00    +0.000 C 
ATOM      2  N   UNL     1      -1.686  10.965  17.681  0.00  0.00    +0.000 NA
ATOM      3  C   UNL     1      -0.842  10.836  18.808  0.00  0.00    +0.000 A 
ATOM      4  C   UNL     1      -0.114   9.649  18.946  0.00  0.00    +0.000 A 
ATOM      5  C   UNL     1       0.760   9.446  20.032  0.00  0.00    +0.000 A 
ATOM      6  C   UNL     1       0.895  10.453  20.995  0.00  0.00    +0.000 A 
ATOM      7  C   UNL     1       0.220  11.658  20.840  0.00  0.00    +0.000 A 
ATOM      8  C   UNL     1      -0.616  11.864  19.741  0.00  0.00    +0.000 A 
ATOM      9  S   UNL     1      -1.427  13.446  19.620  0.00  0.00    +0.000 S 
ATOM     10  C   UNL     1      -3.073  12.813  19.839  0.00  0.00    +0.000 A 
ATOM     11  C   UNL     1      -3.793  13.252  20.960  0.00  0.00    +0.000 A 
ATOM     12  C   UNL     1      -5.105  12.831  21.161  0.00  0.00    +0.000 A 
ATOM     13  C   UNL     1      -5.681  11.937  20.263  0.00  0.00    +0.000 A 
ATOM     14 BR   UNL     1      -7.502  11.467  20.461  0.00  0.00    +0.000 Br
ATOM     15  C   UNL     1      -4.948  11.426  19.188  0.00  0.00    +0.000 A 
ATOM     16  C   UNL     1      -3.643  11.880  18.955  0.00  0.00    +0.000 A 
ENDROOT
BRANCH   5  17
ATOM     17  C   UNL     1       1.522   8.168  20.114  0.00  0.00    +0.000 C 
ATOM     18  O   UNL     1       1.464   7.485  21.141  0.00  0.00    +0.000 OA
ATOM     19  N   UNL     1       2.281   7.795  19.022  0.00  0.00    +0.000 N 
ATOM     20  H   UNL     1       2.226   8.298  18.148  0.00  0.00    +0.000 HD
BRANCH  19  21
ATOM     21  C   UNL     1       3.008   6.538  19.027  0.00  0.00    +0.000 C 
BRANCH  21  22
ATOM     22  C   UNL     1       3.888   6.360  17.772  0.00  0.00    +0.000 C 
BRANCH  22  23
ATOM     23  N   UNL     1       4.842   5.232  17.819  0.00  0.00    +0.000 NA
ATOM     24  C   UNL     1       6.148   5.657  18.383  0.00  0.00    +0.000 C 
ATOM     25  C   UNL     1       6.986   6.538  17.433  0.00  0.00    +0.000 C 
ATOM     26  O   UNL     1       7.158   5.933  16.144  0.00  0.00    +0.000 OA
ATOM     27  C   UNL     1       5.893   5.582  15.567  0.00  0.00    +0.000 C 
ATOM     28  C   UNL     1       5.124   4.630  16.497  0.00  0.00    +0.000 C 
ENDBRANCH  22  23
ENDBRANCH  21  22
ENDBRANCH  19  21
ENDBRANCH   5  17
BRANCH   1  30
ATOM     29  C   UNL     1      -3.094  10.691  15.227  0.00  0.00    +0.000 C 
ATOM     30  C   UNL     1      -3.642  11.520  16.384  0.00  0.00    +0.000 C 
ENDBRANCH   1  30
TORSDOF 5
ENDMDL
MODEL 8
REMARK VINA RESULT:      -7.0      3.205      4.305
REMARK  Name = 
REMARK  6 active torsions:
REMARK  status: ('A' for Active; 'I' for Inactive)
REMARK    1  A    between atoms: C_1  and  C_2
REMARK    2  A    between atoms: C_2  and  C_3
REMARK    3  A    between atoms: C_7  and  C_8
REMARK    4  A    between atoms: N_10  and  C_11
REMARK    5  A    between atoms: C_11  and  C_12
REMARK    6  A    between atoms: C_12  and  N_13
REMARK                            x       y       z     vdW  Elec       q    Type
REMARK                         _______ _______ _______ _____ _____    ______ ____
ROOT
ATOM      1  C   UNL     1      -0.349  10.930  21.824  0.00  0.00    +0.000 C 
ATOM      2  N   UNL     1      -0.107   9.748  21.346  0.00  0.00    +0.000 NA
ATOM      3  C   UNL     1       0.420   9.504  20.058  0.00  0.00    +0.000 A 
ATOM      4  C   UNL     1       1.465   8.581  19.944  0.00  0.00    +0.000 A 
ATOM      5  C   UNL     1       2.038   8.270  18.695  0.00  0.00    +0.000 A 
ATOM      6  C   UNL     1       1.553   8.904  17.547  0.00  0.00    +0.000 A 
ATOM      7  C   UNL     1       0.479   9.783  17.638  0.00  0.00    +0.000 A 
ATOM      8  C   UNL     1      -0.106  10.057  18.876  0.00  0.00    +0.000 A 
ATOM      9  S   UNL     1      -1.487  11.183  18.893  0.00  0.00    +0.000 S 
ATOM     10  C   UNL     1      -0.659  12.458  19.813  0.00  0.00    +0.000 A 
ATOM     11  C   UNL     1      -0.481  13.700  19.185  0.00  0.00    +0.000 A 
ATOM     12  C   UNL     1       0.116  14.754  19.871  0.00  0.00    +0.000 A 
ATOM     13  C   UNL     1       0.574  14.553  21.170  0.00  0.00    +0.000 A 
ATOM     14 BR   UNL     1       1.265  16.016  22.148  0.00  0.00    +0.000 Br
ATOM     15  C   UNL     1       0.480  13.297  21.778  0.00  0.00    +0.000 A 
ATOM     16  C   UNL     1      -0.161  12.245  21.110  0.00  0.00    +0.000 A 
ENDROOT
BRANCH   5  17
ATOM     17  C   UNL     1       3.136   7.263  18.637  0.00  0.00    +0.000 C 
ATOM     18  O   UNL     1       3.932   7.279  17.693  0.00  0.00    +0.000 OA
ATOM     19  N   UNL     1       3.217   6.333  19.655  0.00  0.00    +0.000 N 
ATOM     20  H   UNL     1       2.637   6.403  20.478  0.00  0.00    +0.000 HD
BRANCH  19  21
ATOM     21  C   UNL     1       4.293   5.357  19.674  0.00  0.00    +0.000 C 
BRANCH  21  22
ATOM     22  C   UNL     1       3.778   3.915  19.865  0.00  0.00    +0.000 C 
BRANCH  22  23
ATOM     23  N   UNL     1       3.686   3.105  18.632  0.00  0.00    +0.000 NA
ATOM     24  C   UNL     1       2.943   3.828  17.569  0.00  0.00    +0.000 C 
ATOM     25  C   UNL     1       1.423   3.919  17.816  0.00  0.00    +0.000 C 
ATOM     26  O   UNL     1       0.837   2.633  18.067  0.00  0.00    +0.000 OA
ATOM     27  C   UNL     1       1.510   1.961  19.139  0.00  0.00    +0.000 C 
ATOM     28  C   UNL     1       3.006   1.804  18.819  0.00  0.00    +0.000 C 
ENDBRANCH  22  23
ENDBRANCH  21  22
ENDBRANCH  19  21
ENDBRANCH   5  17
BRANCH   1  30
ATOM     29  C   UNL     1      -2.265  11.785  23.373  0.00  0.00    +0.000 C 
ATOM     30  C   UNL     1      -0.977  10.982  23.227  0.00  0.00    +0.000 C 
ENDBRANCH   1  30
TORSDOF 5
ENDMDL
MODEL 9
REMARK VINA RESULT:      -7.0      6.385      7.915
REMARK  Name = 
REMARK  6 active torsions:
REMARK  status: ('A' for Active; 'I' for Inactive)
REMARK    1  A    between atoms: C_1  and  C_2
REMARK    2  A    between atoms: C_2  and  C_3
REMARK    3  A    between atoms: C_7  and  C_8
REMARK    4  A    between atoms: N_10  and  C_11
REMARK    5  A    between atoms: C_11  and  C_12
REMARK    6  A    between atoms: C_12  and  N_13
REMARK                            x       y       z     vdW  Elec       q    Type
REMARK                         _______ _______ _______ _____ _____    ______ ____
ROOT
ATOM      1  C   UNL     1       1.418  11.032  18.580  0.00  0.00    +0.000 C 
ATOM      2  N   UNL     1       2.182  11.841  17.913  0.00  0.00    +0.000 NA
ATOM      3  C   UNL     1       2.431  13.183  18.279  0.00  0.00    +0.000 A 
ATOM      4  C   UNL     1       3.755  13.634  18.247  0.00  0.00    +0.000 A 
ATOM      5  C   UNL     1       4.088  14.960  18.583  0.00  0.00    +0.000 A 
ATOM      6  C   UNL     1       3.070  15.842  18.964  0.00  0.00    +0.000 A 
ATOM      7  C   UNL     1       1.744  15.423  18.948  0.00  0.00    +0.000 A 
ATOM      8  C   UNL     1       1.422  14.116  18.577  0.00  0.00    +0.000 A 
ATOM      9  S   UNL     1      -0.305  13.674  18.572  0.00  0.00    +0.000 S 
ATOM     10  C   UNL     1      -0.187  12.500  19.901  0.00  0.00    +0.000 A 
ATOM     11  C   UNL     1      -0.921  12.764  21.067  0.00  0.00    +0.000 A 
ATOM     12  C   UNL     1      -0.909  11.858  22.124  0.00  0.00    +0.000 A 
ATOM     13  C   UNL     1      -0.129  10.708  22.031  0.00  0.00    +0.000 A 
ATOM     14 BR   UNL     1      -0.214   9.416  23.407  0.00  0.00    +0.000 Br
ATOM     15  C   UNL     1       0.672  10.474  20.909  0.00  0.00    +0.000 A 
ATOM     16  C   UNL     1       0.630  11.358  19.824  0.00  0.00    +0.000 A 
ENDROOT
BRANCH   5  17
ATOM     17  C   UNL     1       5.514  15.386  18.511  0.00  0.00    +0.000 C 
ATOM     18  O   UNL     1       5.855  16.472  18.991  0.00  0.00    +0.000 OA
ATOM     19  N   UNL     1       6.413  14.538  17.894  0.00  0.00    +0.000 N 
ATOM     20  H   UNL     1       6.148  13.605  17.613  0.00  0.00    +0.000 HD
BRANCH  19  21
ATOM     21  C   UNL     1       7.824  14.879  17.835  0.00  0.00    +0.000 C 
BRANCH  21  22
ATOM     22  C   UNL     1       8.717  13.816  18.507  0.00  0.00    +0.000 C 
BRANCH  22  23
ATOM     23  N   UNL     1       9.301  12.808  17.597  0.00  0.00    +0.000 NA
ATOM     24  C   UNL     1       9.141  11.436  18.142  0.00  0.00    +0.000 C 
ATOM     25  C   UNL     1      10.063  11.125  19.340  0.00  0.00    +0.000 C 
ATOM     26  O   UNL     1      11.440  11.404  19.051  0.00  0.00    +0.000 OA
ATOM     27  C   UNL     1      11.606  12.751  18.587  0.00  0.00    +0.000 C 
ATOM     28  C   UNL     1      10.745  12.999  17.338  0.00  0.00    +0.000 C 
ENDBRANCH  22  23
ENDBRANCH  21  22
ENDBRANCH  19  21
ENDBRANCH   5  17
BRANCH   1  30
ATOM     29  C   UNL     1       2.468   8.739  17.915  0.00  0.00    +0.000 C 
ATOM     30  C   UNL     1       1.230   9.626  17.986  0.00  0.00    +0.000 C 
ENDBRANCH   1  30
TORSDOF 5
ENDMDL
