MODEL 1
REMARK VINA RESULT:      -8.1      0.000      0.000
REMARK  Name = 
REMARK  6 active torsions:
REMARK  status: ('A' for Active; 'I' for Inactive)
REMARK    1  A    between atoms: O_1  and  C_2
REMARK    2  A    between atoms: C_2  and  C_3
REMARK    3  A    between atoms: C_3  and  C_4
REMARK    4  A    between atoms: C_4  and  N_5
REMARK    5  A    between atoms: N_5  and  C_6
REMARK    6  A    between atoms: N_9  and  C_10
REMARK                            x       y       z     vdW  Elec       q    Type
REMARK                         _______ _______ _______ _____ _____    ______ ____
ROOT
ATOM      1  C   UNL     1       4.023   5.851  17.988  0.00  0.00    +0.000 A 
ATOM      2  N   UNL     1       3.660   7.132  17.743  0.00  0.00    +0.000 NA
ATOM      3  C   UNL     1       2.673   7.656  18.485  0.00  0.00    +0.000 A 
ATOM      4  N   UNL     1       2.303   8.982  18.244  0.00  0.00    +0.000 N 
ATOM      5  N   UNL     1       2.057   6.996  19.470  0.00  0.00    +0.000 NA
ATOM      6  C   UNL     1       2.421   5.744  19.725  0.00  0.00    +0.000 A 
ATOM      7  C   UNL     1       1.782   5.090  20.772  0.00  0.00    +0.000 A 
ATOM      8  C   UNL     1       2.106   3.783  21.128  0.00  0.00    +0.000 A 
ATOM      9  C   UNL     1       3.083   3.103  20.418  0.00  0.00    +0.000 A 
ATOM     10  C   UNL     1       3.723   3.738  19.351  0.00  0.00    +0.000 A 
ATOM     11  C   UNL     1       3.408   5.081  18.999  0.00  0.00    +0.000 A 
ATOM     12  H   UNL     1       2.879   9.382  17.516  0.00  0.00    +0.000 HD
ENDROOT
BRANCH   4  13
ATOM     13  C   UNL     1       1.052   9.591  18.457  0.00  0.00    +0.000 A 
ATOM     14  C   UNL     1       0.813  10.441  19.562  0.00  0.00    +0.000 A 
ATOM     15  C   UNL     1      -0.422  11.067  19.761  0.00  0.00    +0.000 A 
ATOM     16  C   UNL     1      -1.406  10.842  18.828  0.00  0.00    +0.000 A 
ATOM     17  C   UNL     1      -1.189  10.029  17.739  0.00  0.00    +0.000 A 
ATOM     18  C   UNL     1       0.019   9.390  17.529  0.00  0.00    +0.000 A 
ATOM     19  O   UNL     1      -2.283   9.955  16.930  0.00  0.00    +0.000 OA
ATOM     20  C   UNL     1      -3.198  10.779  17.668  0.00  0.00    +0.000 C 
ATOM     21  F   UNL     1      -3.642  11.771  16.857  0.00  0.00    +0.000 F 
ATOM     22  F   UNL     1      -4.271  10.026  18.013  0.00  0.00    +0.000 F 
ATOM     23  O   UNL     1      -2.657  11.369  18.856  0.00  0.00    +0.000 OA
ENDBRANCH   4  13
BRANCH   1  24
ATOM     24  N   UNL     1       4.983   5.236  17.142  0.00  0.00    +0.000 N 
ATOM     25  H   UNL     1       5.569   4.624  17.702  0.00  0.00    +0.000 HD
BRANCH  24  26
ATOM     26  C   UNL     1       5.837   6.170  16.405  0.00  0.00    +0.000 C 
BRANCH  26  27
ATOM     27  C   UNL     1       7.145   6.361  17.178  0.00  0.00    +0.000 C 
BRANCH  27  28
ATOM     28  C   UNL     1       7.475   5.154  18.045  0.00  0.00    +0.000 C 
BRANCH  28  29
ATOM     29  O   UNL     1       8.002   4.112  17.234  0.00  0.00    +0.000 OA
ATOM     30  H   UNL     1       7.978   3.295  17.763  0.00  0.00    +0.000 HD
ENDBRANCH  28  29
ENDBRANCH  27  28
ENDBRANCH  26  27
ENDBRANCH  24  26
ENDBRANCH   1  24
TORSDOF 6
ENDMDL
MODEL 2
REMARK VINA RESULT:      -8.0      4.780      8.202
REMARK  Name = 
REMARK  6 active torsions:
REMARK  status: ('A' for Active; 'I' for Inactive)
REMARK    1  A    between atoms: O_1  and  C_2
REMARK    2  A    between atoms: C_2  and  C_3
REMARK    3  A    between atoms: C_3  and  C_4
REMARK    4  A    between atoms: C_4  and  N_5
REMARK    5  A    between atoms: N_5  and  C_6
REMARK    6  A    between atoms: N_9  and  C_10
REMARK                            x       y       z     vdW  Elec       q    Type
REMARK                         _______ _______ _______ _____ _____    ______ ____
ROOT
ATOM      1  C   UNL     1       3.074   5.535  20.035  0.00  0.00    +0.000 A 
ATOM      2  N   UNL     1       4.075   4.832  19.452  0.00  0.00    +0.000 NA
ATOM      3  C   UNL     1       4.588   5.306  18.307  0.00  0.00    +0.000 A 
ATOM      4  N   UNL     1       5.629   4.592  17.708  0.00  0.00    +0.000 N 
ATOM      5  N   UNL     1       4.191   6.446  17.733  0.00  0.00    +0.000 NA
ATOM      6  C   UNL     1       3.221   7.147  18.311  0.00  0.00    +0.000 A 
ATOM      7  C   UNL     1       2.845   8.341  17.707  0.00  0.00    +0.000 A 
ATOM      8  C   UNL     1       1.851   9.155  18.246  0.00  0.00    +0.000 A 
ATOM      9  C   UNL     1       1.204   8.767  19.408  0.00  0.00    +0.000 A 
ATOM     10  C   UNL     1       1.556   7.561  20.019  0.00  0.00    +0.000 A 
ATOM     11  C   UNL     1       2.587   6.738  19.482  0.00  0.00    +0.000 A 
ATOM     12  H   UNL     1       5.870   3.785  18.266  0.00  0.00    +0.000 HD
ENDROOT
BRANCH   4  13
ATOM     13  C   UNL     1       5.977   4.535  16.346  0.00  0.00    +0.000 A 
ATOM     14  C   UNL     1       7.116   5.202  15.836  0.00  0.00    +0.000 A 
ATOM     15  C   UNL     1       7.477   5.125  14.487  0.00  0.00    +0.000 A 
ATOM     16  C   UNL     1       6.690   4.359  13.662  0.00  0.00    +0.000 A 
ATOM     17  C   UNL     1       5.586   3.692  14.139  0.00  0.00    +0.000 A 
ATOM     18  C   UNL     1       5.202   3.763  15.466  0.00  0.00    +0.000 A 
ATOM     19  O   UNL     1       4.958   2.977  13.164  0.00  0.00    +0.000 OA
ATOM     20  C   UNL     1       5.779   3.315  12.036  0.00  0.00    +0.000 C 
ATOM     21  F   UNL     1       6.246   2.170  11.479  0.00  0.00    +0.000 F 
ATOM     22  F   UNL     1       5.003   3.931  11.110  0.00  0.00    +0.000 F 
ATOM     23  O   UNL     1       6.892   4.166  12.333  0.00  0.00    +0.000 OA
ENDBRANCH   4  13
BRANCH   1  24
ATOM     24  N   UNL     1       2.436   4.995  21.183  0.00  0.00    +0.000 N 
ATOM     25  H   UNL     1       3.076   5.049  21.969  0.00  0.00    +0.000 HD
BRANCH  24  26
ATOM     26  C   UNL     1       1.978   3.612  21.034  0.00  0.00    +0.000 C 
BRANCH  26  27
ATOM     27  C   UNL     1       0.729   3.596  20.146  0.00  0.00    +0.000 C 
BRANCH  27  28
ATOM     28  C   UNL     1       0.873   2.625  18.982  0.00  0.00    +0.000 C 
BRANCH  28  29
ATOM     29  O   UNL     1       1.602   3.244  17.930  0.00  0.00    +0.000 OA
ATOM     30  H   UNL     1       2.071   2.538  17.451  0.00  0.00    +0.000 HD
ENDBRANCH  28  29
ENDBRANCH  27  28
ENDBRANCH  26  27
ENDBRANCH  24  26
ENDBRANCH   1  24
TORSDOF 6
ENDMDL
MODEL 3
REMARK VINA RESULT:      -8.0      1.306      1.404
REMARK  Name = 
REMARK  6 active torsions:
REMARK  status: ('A' for Active; 'I' for Inactive)
REMARK    1  A    between atoms: O_1  and  C_2
REMARK    2  A    between atoms: C_2  and  C_3
REMARK    3  A    between atoms: C_3  and  C_4
REMARK    4  A    between atoms: C_4  and  N_5
REMARK    5  A    between atoms: N_5  and  C_6
REMARK    6  A    between atoms: N_9  and  C_10
REMARK                            x       y       z     vdW  Elec       q    Type
REMARK                         _______ _______ _______ _____ _____    ______ ____
ROOT
ATOM      1  C   UNL     1       4.356   5.231  17.306  0.00  0.00    +0.000 A 
ATOM      2  N   UNL     1       4.122   6.553  17.479  0.00  0.00    +0.000 NA
ATOM      3  C   UNL     1       3.062   6.910  18.219  0.00  0.00    +0.000 A 
ATOM      4  N   UNL     1       2.823   8.273  18.411  0.00  0.00    +0.000 N 
ATOM      5  N   UNL     1       2.249   6.034  18.820  0.00  0.00    +0.000 NA
ATOM      6  C   UNL     1       2.485   4.735  18.666  0.00  0.00    +0.000 A 
ATOM      7  C   UNL     1       1.641   3.848  19.322  0.00  0.00    +0.000 A 
ATOM      8  C   UNL     1       1.817   2.469  19.238  0.00  0.00    +0.000 A 
ATOM      9  C   UNL     1       2.851   1.957  18.471  0.00  0.00    +0.000 A 
ATOM     10  C   UNL     1       3.699   2.834  17.790  0.00  0.00    +0.000 A 
ATOM     11  C   UNL     1       3.534   4.244  17.892  0.00  0.00    +0.000 A 
ATOM     12  H   UNL     1       3.535   8.824  17.953  0.00  0.00    +0.000 HD
ENDROOT
BRANCH   4  13
ATOM     13  C   UNL     1       1.596   8.918  18.655  0.00  0.00    +0.000 A 
ATOM     14  C   UNL     1       1.281   9.472  19.918  0.00  0.00    +0.000 A 
ATOM     15  C   UNL     1       0.072  10.136  20.155  0.00  0.00    +0.000 A 
ATOM     16  C   UNL     1      -0.807  10.249  19.105  0.00  0.00    +0.000 A 
ATOM     17  C   UNL     1      -0.514   9.728  17.865  0.00  0.00    +0.000 A 
ATOM     18  C   UNL     1       0.668   9.058  17.611  0.00  0.00    +0.000 A 
ATOM     19  O   UNL     1      -1.507   9.965  16.963  0.00  0.00    +0.000 OA
ATOM     20  C   UNL     1      -2.450  10.651  17.801  0.00  0.00    +0.000 C 
ATOM     21  F   UNL     1      -2.732  11.854  17.244  0.00  0.00    +0.000 F 
ATOM     22  F   UNL     1      -3.601   9.934  17.827  0.00  0.00    +0.000 F 
ATOM     23  O   UNL     1      -2.017  10.862  19.149  0.00  0.00    +0.000 OA
ENDBRANCH   4  13
BRANCH   1  24
ATOM     24  N   UNL     1       5.401   4.828  16.434  0.00  0.00    +0.000 N 
ATOM     25  H   UNL     1       5.466   3.814  16.446  0.00  0.00    +0.000 HD
BRANCH  24  26
ATOM     26  C   UNL     1       6.714   5.393  16.750  0.00  0.00    +0.000 C 
BRANCH  26  27
ATOM     27  C   UNL     1       7.176   4.847  18.105  0.00  0.00    +0.000 C 
BRANCH  27  28
ATOM     28  C   UNL     1       7.669   5.954  19.026  0.00  0.00    +0.000 C 
BRANCH  28  29
ATOM     29  O   UNL     1       7.888   5.432  20.329  0.00  0.00    +0.000 OA
ATOM     30  H   UNL     1       8.735   5.793  20.645  0.00  0.00    +0.000 HD
ENDBRANCH  28  29
ENDBRANCH  27  28
ENDBRANCH  26  27
ENDBRANCH  24  26
ENDBRANCH   1  24
TORSDOF 6
ENDMDL
MODEL 4
REMARK VINA RESULT:      -8.0      1.146      1.210
REMARK  Name = 
REMARK  6 active torsions:
REMARK  status: ('A' for Active; 'I' for Inactive)
REMARK    1  A    between atoms: O_1  and  C_2
REMARK    2  A    between atoms: C_2  and  C_3
REMARK    3  A    between atoms: C_3  and  C_4
REMARK    4  A    between atoms: C_4  and  N_5
REMARK    5  A    between atoms: N_5  and  C_6
REMARK    6  A    between atoms: N_9  and  C_10
REMARK                            x       y       z     vdW  Elec       q    Type
REMARK                         _______ _______ _______ _____ _____    ______ ____
ROOT
ATOM      1  C   UNL     1       4.376   6.042  17.248  0.00  0.00    +0.000 A 
ATOM      2  N   UNL     1       4.037   7.310  17.577  0.00  0.00    +0.000 NA
ATOM      3  C   UNL     1       2.856   7.505  18.182  0.00  0.00    +0.000 A 
ATOM      4  N   UNL     1       2.506   8.811  18.535  0.00  0.00    +0.000 N 
ATOM      5  N   UNL     1       2.017   6.516  18.506  0.00  0.00    +0.000 NA
ATOM      6  C   UNL     1       2.355   5.267  18.199  0.00  0.00    +0.000 A 
ATOM      7  C   UNL     1       1.477   4.257  18.571  0.00  0.00    +0.000 A 
ATOM      8  C   UNL     1       1.749   2.915  18.310  0.00  0.00    +0.000 A 
ATOM      9  C   UNL     1       2.918   2.570  17.651  0.00  0.00    +0.000 A 
ATOM     10  C   UNL     1       3.804   3.575  17.255  0.00  0.00    +0.000 A 
ATOM     11  C   UNL     1       3.538   4.945  17.539  0.00  0.00    +0.000 A 
ATOM     12  H   UNL     1       3.245   9.454  18.285  0.00  0.00    +0.000 HD
ENDROOT
BRANCH   4  13
ATOM     13  C   UNL     1       1.218   9.362  18.673  0.00  0.00    +0.000 A 
ATOM     14  C   UNL     1       0.798   9.992  19.868  0.00  0.00    +0.000 A 
ATOM     15  C   UNL     1      -0.472  10.563  19.998  0.00  0.00    +0.000 A 
ATOM     16  C   UNL     1      -1.307  10.507  18.908  0.00  0.00    +0.000 A 
ATOM     17  C   UNL     1      -0.914   9.912  17.732  0.00  0.00    +0.000 A 
ATOM     18  C   UNL     1       0.332   9.330  17.584  0.00  0.00    +0.000 A 
ATOM     19  O   UNL     1      -1.879   9.982  16.773  0.00  0.00    +0.000 OA
ATOM     20  C   UNL     1      -2.916  10.649  17.509  0.00  0.00    +0.000 C 
ATOM     21  F   UNL     1      -3.273  11.772  16.837  0.00  0.00    +0.000 F 
ATOM     22  F   UNL     1      -4.001   9.838  17.554  0.00  0.00    +0.000 F 
ATOM     23  O   UNL     1      -2.567  11.012  18.850  0.00  0.00    +0.000 OA
ENDBRANCH   4  13
BRANCH   1  24
ATOM     24  N   UNL     1       5.566   5.821  16.504  0.00  0.00    +0.000 N 
ATOM     25  H   UNL     1       5.877   4.867  16.659  0.00  0.00    +0.000 HD
BRANCH  24  26
ATOM     26  C   UNL     1       6.664   6.737  16.820  0.00  0.00    +0.000 C 
BRANCH  26  27
ATOM     27  C   UNL     1       7.487   6.146  17.969  0.00  0.00    +0.000 C 
BRANCH  27  28
ATOM     28  C   UNL     1       7.459   4.624  17.963  0.00  0.00    +0.000 C 
BRANCH  28  29
ATOM     29  O   UNL     1       7.936   4.141  16.715  0.00  0.00    +0.000 OA
ATOM     30  H   UNL     1       7.849   4.867  16.072  0.00  0.00    +0.000 HD
ENDBRANCH  28  29
ENDBRANCH  27  28
ENDBRANCH  26  27
ENDBRANCH  24  26
ENDBRANCH   1  24
TORSDOF 6
ENDMDL
MODEL 5
REMARK VINA RESULT:      -7.9      2.386      2.928
REMARK  Name = 
REMARK  6 active torsions:
REMARK  status: ('A' for Active; 'I' for Inactive)
REMARK    1  A    between atoms: O_1  and  C_2
REMARK    2  A    between atoms: C_2  and  C_3
REMARK    3  A    between atoms: C_3  and  C_4
REMARK    4  A    between atoms: C_4  and  N_5
REMARK    5  A    between atoms: N_5  and  C_6
REMARK    6  A    between atoms: N_9  and  C_10
REMARK                            x       y       z     vdW  Elec       q    Type
REMARK                         _______ _______ _______ _____ _____    ______ ____
ROOT
ATOM      1  C   UNL     1       3.273   5.113  17.839  0.00  0.00    +0.000 A 
ATOM      2  N   UNL     1       3.214   6.464  17.921  0.00  0.00    +0.000 NA
ATOM      3  C   UNL     1       2.491   7.000  18.914  0.00  0.00    +0.000 A 
ATOM      4  N   UNL     1       2.437   8.393  19.011  0.00  0.00    +0.000 N 
ATOM      5  N   UNL     1       1.857   6.276  19.843  0.00  0.00    +0.000 NA
ATOM      6  C   UNL     1       1.926   4.951  19.776  0.00  0.00    +0.000 A 
ATOM      7  C   UNL     1       1.280   4.224  20.769  0.00  0.00    +0.000 A 
ATOM      8  C   UNL     1       1.309   2.831  20.795  0.00  0.00    +0.000 A 
ATOM      9  C   UNL     1       1.988   2.142  19.803  0.00  0.00    +0.000 A 
ATOM     10  C   UNL     1       2.628   2.856  18.787  0.00  0.00    +0.000 A 
ATOM     11  C   UNL     1       2.617   4.280  18.770  0.00  0.00    +0.000 A 
ATOM     12  H   UNL     1       2.998   8.818  18.286  0.00  0.00    +0.000 HD
ENDROOT
BRANCH   4  13
ATOM     13  C   UNL     1       1.415   9.190  19.559  0.00  0.00    +0.000 A 
ATOM     14  C   UNL     1       0.376   9.726  18.761  0.00  0.00    +0.000 A 
ATOM     15  C   UNL     1      -0.654  10.497  19.308  0.00  0.00    +0.000 A 
ATOM     16  C   UNL     1      -0.637  10.710  20.665  0.00  0.00    +0.000 A 
ATOM     17  C   UNL     1       0.357  10.187  21.461  0.00  0.00    +0.000 A 
ATOM     18  C   UNL     1       1.392   9.433  20.941  0.00  0.00    +0.000 A 
ATOM     19  O   UNL     1       0.178  10.498  22.775  0.00  0.00    +0.000 OA
ATOM     20  C   UNL     1      -1.011  11.299  22.684  0.00  0.00    +0.000 C 
ATOM     21  F   UNL     1      -1.958  10.766  23.494  0.00  0.00    +0.000 F 
ATOM     22  F   UNL     1      -0.728  12.541  23.151  0.00  0.00    +0.000 F 
ATOM     23  O   UNL     1      -1.555  11.425  21.366  0.00  0.00    +0.000 OA
ENDBRANCH   4  13
BRANCH   1  24
ATOM     24  N   UNL     1       3.935   4.522  16.731  0.00  0.00    +0.000 N 
ATOM     25  H   UNL     1       4.231   3.585  16.988  0.00  0.00    +0.000 HD
BRANCH  24  26
ATOM     26  C   UNL     1       5.094   5.270  16.240  0.00  0.00    +0.000 C 
BRANCH  26  27
ATOM     27  C   UNL     1       6.345   4.397  16.382  0.00  0.00    +0.000 C 
BRANCH  27  28
ATOM     28  C   UNL     1       7.202   4.822  17.566  0.00  0.00    +0.000 C 
BRANCH  28  29
ATOM     29  O   UNL     1       8.347   3.984  17.654  0.00  0.00    +0.000 OA
ATOM     30  H   UNL     1       8.119   3.139  17.227  0.00  0.00    +0.000 HD
ENDBRANCH  28  29
ENDBRANCH  27  28
ENDBRANCH  26  27
ENDBRANCH  24  26
ENDBRANCH   1  24
TORSDOF 6
ENDMDL
MODEL 6
REMARK VINA RESULT:      -7.8      4.083      8.542
REMARK  Name = 
REMARK  6 active torsions:
REMARK  status: ('A' for Active; 'I' for Inactive)
REMARK    1  A    between atoms: O_1  and  C_2
REMARK    2  A    between atoms: C_2  and  C_3
REMARK    3  A    between atoms: C_3  and  C_4
REMARK    4  A    between atoms: C_4  and  N_5
REMARK    5  A    between atoms: N_5  and  C_6
REMARK    6  A    between atoms: N_9  and  C_10
REMARK                            x       y       z     vdW  Elec       q    Type
REMARK                         _______ _______ _______ _____ _____    ______ ____
ROOT
ATOM      1  C   UNL     1       0.126  10.498  18.941  0.00  0.00    +0.000 A 
ATOM      2  N   UNL     1       0.782   9.631  18.133  0.00  0.00    +0.000 NA
ATOM      3  C   UNL     1       1.386   8.578  18.704  0.00  0.00    +0.000 A 
ATOM      4  N   UNL     1       2.054   7.674  17.874  0.00  0.00    +0.000 N 
ATOM      5  N   UNL     1       1.344   8.322  20.016  0.00  0.00    +0.000 NA
ATOM      6  C   UNL     1       0.687   9.161  20.809  0.00  0.00    +0.000 A 
ATOM      7  C   UNL     1       0.638   8.857  22.164  0.00  0.00    +0.000 A 
ATOM      8  C   UNL     1      -0.042   9.665  23.074  0.00  0.00    +0.000 A 
ATOM      9  C   UNL     1      -0.678  10.812  22.627  0.00  0.00    +0.000 A 
ATOM     10  C   UNL     1      -0.624  11.143  21.271  0.00  0.00    +0.000 A 
ATOM     11  C   UNL     1       0.051  10.307  20.337  0.00  0.00    +0.000 A 
ATOM     12  H   UNL     1       1.965   7.952  16.907  0.00  0.00    +0.000 HD
ENDROOT
BRANCH   4  13
ATOM     13  C   UNL     1       3.147   6.846  18.189  0.00  0.00    +0.000 A 
ATOM     14  C   UNL     1       3.021   5.741  19.064  0.00  0.00    +0.000 A 
ATOM     15  C   UNL     1       4.101   4.902  19.357  0.00  0.00    +0.000 A 
ATOM     16  C   UNL     1       5.302   5.176  18.749  0.00  0.00    +0.000 A 
ATOM     17  C   UNL     1       5.443   6.238  17.885  0.00  0.00    +0.000 A 
ATOM     18  C   UNL     1       4.393   7.088  17.589  0.00  0.00    +0.000 A 
ATOM     19  O   UNL     1       6.704   6.322  17.377  0.00  0.00    +0.000 OA
ATOM     20  C   UNL     1       7.323   5.220  18.059  0.00  0.00    +0.000 C 
ATOM     21  F   UNL     1       7.855   4.380  17.136  0.00  0.00    +0.000 F 
ATOM     22  F   UNL     1       8.346   5.699  18.810  0.00  0.00    +0.000 F 
ATOM     23  O   UNL     1       6.450   4.469  18.910  0.00  0.00    +0.000 OA
ENDBRANCH   4  13
BRANCH   1  24
ATOM     24  N   UNL     1      -0.421  11.681  18.377  0.00  0.00    +0.000 N 
ATOM     25  H   UNL     1      -0.726  12.292  19.128  0.00  0.00    +0.000 HD
BRANCH  24  26
ATOM     26  C   UNL     1      -1.541  11.459  17.459  0.00  0.00    +0.000 C 
BRANCH  26  27
ATOM     27  C   UNL     1      -2.850  11.506  18.254  0.00  0.00    +0.000 C 
BRANCH  27  28
ATOM     28  C   UNL     1      -4.069  11.423  17.347  0.00  0.00    +0.000 C 
BRANCH  28  29
ATOM     29  O   UNL     1      -3.662  11.506  15.988  0.00  0.00    +0.000 OA
ATOM     30  H   UNL     1      -4.435  11.281  15.441  0.00  0.00    +0.000 HD
ENDBRANCH  28  29
ENDBRANCH  27  28
ENDBRANCH  26  27
ENDBRANCH  24  26
ENDBRANCH   1  24
TORSDOF 6
ENDMDL
MODEL 7
REMARK VINA RESULT:      -7.8      4.352      8.430
REMARK  Name = 
REMARK  6 active torsions:
REMARK  status: ('A' for Active; 'I' for Inactive)
REMARK    1  A    between atoms: O_1  and  C_2
REMARK    2  A    between atoms: C_2  and  C_3
REMARK    3  A    between atoms: C_3  and  C_4
REMARK    4  A    between atoms: C_4  and  N_5
REMARK    5  A    between atoms: N_5  and  C_6
REMARK    6  A    between atoms: N_9  and  C_10
REMARK                            x       y       z     vdW  Elec       q    Type
REMARK                         _______ _______ _______ _____ _____    ______ ____
ROOT
ATOM      1  C   UNL     1       0.625  10.840  18.954  0.00  0.00    +0.000 A 
ATOM      2  N   UNL     1       1.276  10.011  18.105  0.00  0.00    +0.000 NA
ATOM      3  C   UNL     1       1.714   8.839  18.586  0.00  0.00    +0.000 A 
ATOM      4  N   UNL     1       2.376   7.974  17.711  0.00  0.00    +0.000 N 
ATOM      5  N   UNL     1       1.512   8.433  19.844  0.00  0.00    +0.000 NA
ATOM      6  C   UNL     1       0.858   9.237  20.677  0.00  0.00    +0.000 A 
ATOM      7  C   UNL     1       0.640   8.779  21.970  0.00  0.00    +0.000 A 
ATOM      8  C   UNL     1      -0.051   9.540  22.911  0.00  0.00    +0.000 A 
ATOM      9  C   UNL     1      -0.525  10.794  22.562  0.00  0.00    +0.000 A 
ATOM     10  C   UNL     1      -0.299  11.277  21.271  0.00  0.00    +0.000 A 
ATOM     11  C   UNL     1       0.388  10.492  20.301  0.00  0.00    +0.000 A 
ATOM     12  H   UNL     1       2.415   8.374  16.783  0.00  0.00    +0.000 HD
ENDROOT
BRANCH   4  13
ATOM     13  C   UNL     1       3.347   7.001  18.013  0.00  0.00    +0.000 A 
ATOM     14  C   UNL     1       3.028   5.823  18.728  0.00  0.00    +0.000 A 
ATOM     15  C   UNL     1       3.986   4.843  19.007  0.00  0.00    +0.000 A 
ATOM     16  C   UNL     1       5.263   5.055  18.546  0.00  0.00    +0.000 A 
ATOM     17  C   UNL     1       5.592   6.188  17.838  0.00  0.00    +0.000 A 
ATOM     18  C   UNL     1       4.665   7.175  17.561  0.00  0.00    +0.000 A 
ATOM     19  O   UNL     1       6.900   6.193  17.458  0.00  0.00    +0.000 OA
ATOM     20  C   UNL     1       7.338   4.959  18.048  0.00  0.00    +0.000 C 
ATOM     21  F   UNL     1       7.876   4.180  17.077  0.00  0.00    +0.000 F 
ATOM     22  F   UNL     1       8.321   5.235  18.940  0.00  0.00    +0.000 F 
ATOM     23  O   UNL     1       6.315   4.213  18.717  0.00  0.00    +0.000 OA
ENDBRANCH   4  13
BRANCH   1  24
ATOM     24  N   UNL     1       0.254  12.134  18.501  0.00  0.00    +0.000 N 
ATOM     25  H   UNL     1      -0.241  12.043  17.620  0.00  0.00    +0.000 HD
BRANCH  24  26
ATOM     26  C   UNL     1       1.372  13.064  18.325  0.00  0.00    +0.000 C 
BRANCH  26  27
ATOM     27  C   UNL     1       1.383  14.052  19.496  0.00  0.00    +0.000 C 
BRANCH  27  28
ATOM     28  C   UNL     1       0.006  14.650  19.748  0.00  0.00    +0.000 C 
BRANCH  28  29
ATOM     29  O   UNL     1      -0.603  14.988  18.509  0.00  0.00    +0.000 OA
ATOM     30  H   UNL     1      -1.297  14.327  18.340  0.00  0.00    +0.000 HD
ENDBRANCH  28  29
ENDBRANCH  27  28
ENDBRANCH  26  27
ENDBRANCH  24  26
ENDBRANCH   1  24
TORSDOF 6
ENDMDL
MODEL 8
REMARK VINA RESULT:      -7.8      1.789      1.976
REMARK  Name = 
REMARK  6 active torsions:
REMARK  status: ('A' for Active; 'I' for Inactive)
REMARK    1  A    between atoms: O_1  and  C_2
REMARK    2  A    between atoms: C_2  and  C_3
REMARK    3  A    between atoms: C_3  and  C_4
REMARK    4  A    between atoms: C_4  and  N_5
REMARK    5  A    between atoms: N_5  and  C_6
REMARK    6  A    between atoms: N_9  and  C_10
REMARK                            x       y       z     vdW  Elec       q    Type
REMARK                         _______ _______ _______ _____ _____    ______ ____
ROOT
ATOM      1  C   UNL     1       3.953   4.835  17.248  0.00  0.00    +0.000 A 
ATOM      2  N   UNL     1       3.849   6.171  17.444  0.00  0.00    +0.000 NA
ATOM      3  C   UNL     1       2.936   6.605  18.325  0.00  0.00    +0.000 A 
ATOM      4  N   UNL     1       2.833   7.982  18.539  0.00  0.00    +0.000 N 
ATOM      5  N   UNL     1       2.153   5.792  19.042  0.00  0.00    +0.000 NA
ATOM      6  C   UNL     1       2.264   4.480  18.865  0.00  0.00    +0.000 A 
ATOM      7  C   UNL     1       1.457   3.658  19.641  0.00  0.00    +0.000 A 
ATOM      8  C   UNL     1       1.512   2.269  19.542  0.00  0.00    +0.000 A 
ATOM      9  C   UNL     1       2.384   1.682  18.639  0.00  0.00    +0.000 A 
ATOM     10  C   UNL     1       3.190   2.494  17.838  0.00  0.00    +0.000 A 
ATOM     11  C   UNL     1       3.151   3.912  17.953  0.00  0.00    +0.000 A 
ATOM     12  H   UNL     1       3.512   8.478  17.980  0.00  0.00    +0.000 HD
ENDROOT
BRANCH   4  13
ATOM     13  C   UNL     1       1.706   8.718  18.952  0.00  0.00    +0.000 A 
ATOM     14  C   UNL     1       1.339   8.822  20.314  0.00  0.00    +0.000 A 
ATOM     15  C   UNL     1       0.235   9.574  20.728  0.00  0.00    +0.000 A 
ATOM     16  C   UNL     1      -0.484  10.233  19.759  0.00  0.00    +0.000 A 
ATOM     17  C   UNL     1      -0.136  10.156  18.431  0.00  0.00    +0.000 A 
ATOM     18  C   UNL     1       0.943   9.408  17.996  0.00  0.00    +0.000 A 
ATOM     19  O   UNL     1      -0.964  10.895  17.640  0.00  0.00    +0.000 OA
ATOM     20  C   UNL     1      -1.875  11.396  18.630  0.00  0.00    +0.000 C 
ATOM     21  F   UNL     1      -1.891  12.750  18.562  0.00  0.00    +0.000 F 
ATOM     22  F   UNL     1      -3.122  10.958  18.326  0.00  0.00    +0.000 F 
ATOM     23  O   UNL     1      -1.576  11.011  19.977  0.00  0.00    +0.000 OA
ENDBRANCH   4  13
BRANCH   1  24
ATOM     24  N   UNL     1       4.829   4.356  16.238  0.00  0.00    +0.000 N 
ATOM     25  H   UNL     1       4.521   3.432  15.949  0.00  0.00    +0.000 HD
BRANCH  24  26
ATOM     26  C   UNL     1       6.237   4.287  16.632  0.00  0.00    +0.000 C 
BRANCH  26  27
ATOM     27  C   UNL     1       7.106   4.711  15.443  0.00  0.00    +0.000 C 
BRANCH  27  28
ATOM     28  C   UNL     1       6.352   4.611  14.125  0.00  0.00    +0.000 C 
BRANCH  28  29
ATOM     29  O   UNL     1       6.314   3.256  13.697  0.00  0.00    +0.000 OA
ATOM     30  H   UNL     1       5.893   2.741  14.408  0.00  0.00    +0.000 HD
ENDBRANCH  28  29
ENDBRANCH  27  28
ENDBRANCH  26  27
ENDBRANCH  24  26
ENDBRANCH   1  24
TORSDOF 6
ENDMDL
MODEL 9
REMARK VINA RESULT:      -7.7      4.630      8.152
REMARK  Name = 
REMARK  6 active torsions:
REMARK  status: ('A' for Active; 'I' for Inactive)
REMARK    1  A    between atoms: O_1  and  C_2
REMARK    2  A    between atoms: C_2  and  C_3
REMARK    3  A    between atoms: C_3  and  C_4
REMARK    4  A    between atoms: C_4  and  N_5
REMARK    5  A    between atoms: N_5  and  C_6
REMARK    6  A    between atoms: N_9  and  C_10
REMARK                            x       y       z     vdW  Elec       q    Type
REMARK                         _______ _______ _______ _____ _____    ______ ____
ROOT
ATOM      1  C   UNL     1       0.567  10.728  18.871  0.00  0.00    +0.000 A 
ATOM      2  N   UNL     1       1.226   9.872  18.054  0.00  0.00    +0.000 NA
ATOM      3  C   UNL     1       1.705   8.740  18.591  0.00  0.00    +0.000 A 
ATOM      4  N   UNL     1       2.375   7.847  17.750  0.00  0.00    +0.000 N 
ATOM      5  N   UNL     1       1.539   8.399  19.872  0.00  0.00    +0.000 NA
ATOM      6  C   UNL     1       0.878   9.229  20.673  0.00  0.00    +0.000 A 
ATOM      7  C   UNL     1       0.697   8.837  21.994  0.00  0.00    +0.000 A 
ATOM      8  C   UNL     1       0.004   9.630  22.906  0.00  0.00    +0.000 A 
ATOM      9  C   UNL     1      -0.513  10.849  22.498  0.00  0.00    +0.000 A 
ATOM     10  C   UNL     1      -0.324  11.267  21.179  0.00  0.00    +0.000 A 
ATOM     11  C   UNL     1       0.365  10.449  20.239  0.00  0.00    +0.000 A 
ATOM     12  H   UNL     1       2.385   8.195  16.802  0.00  0.00    +0.000 HD
ENDROOT
BRANCH   4  13
ATOM     13  C   UNL     1       3.379   6.919  18.085  0.00  0.00    +0.000 A 
ATOM     14  C   UNL     1       3.106   5.774  18.870  0.00  0.00    +0.000 A 
ATOM     15  C   UNL     1       4.097   4.837  19.183  0.00  0.00    +0.000 A 
ATOM     16  C   UNL     1       5.358   5.057  18.684  0.00  0.00    +0.000 A 
ATOM     17  C   UNL     1       5.642   6.158  17.908  0.00  0.00    +0.000 A 
ATOM     18  C   UNL     1       4.682   7.103  17.597  0.00  0.00    +0.000 A 
ATOM     19  O   UNL     1       6.942   6.178  17.502  0.00  0.00    +0.000 OA
ATOM     20  C   UNL     1       7.425   4.990  18.149  0.00  0.00    +0.000 C 
ATOM     21  F   UNL     1       7.966   4.173  17.211  0.00  0.00    +0.000 F 
ATOM     22  F   UNL     1       8.418   5.341  19.004  0.00  0.00    +0.000 F 
ATOM     23  O   UNL     1       6.437   4.255  18.879  0.00  0.00    +0.000 OA
ENDBRANCH   4  13
BRANCH   1  24
ATOM     24  N   UNL     1       0.152  11.984  18.356  0.00  0.00    +0.000 N 
ATOM     25  H   UNL     1       0.138  11.935  17.341  0.00  0.00    +0.000 HD
BRANCH  24  26
ATOM     26  C   UNL     1       0.983  13.119  18.766  0.00  0.00    +0.000 C 
BRANCH  26  27
ATOM     27  C   UNL     1       2.340  13.020  18.061  0.00  0.00    +0.000 C 
BRANCH  27  28
ATOM     28  C   UNL     1       3.272  14.154  18.463  0.00  0.00    +0.000 C 
BRANCH  28  29
ATOM     29  O   UNL     1       3.755  14.811  17.300  0.00  0.00    +0.000 OA
ATOM     30  H   UNL     1       4.531  15.336  17.566  0.00  0.00    +0.000 HD
ENDBRANCH  28  29
ENDBRANCH  27  28
ENDBRANCH  26  27
ENDBRANCH  24  26
ENDBRANCH   1  24
TORSDOF 6
ENDMDL
