MODEL 1
REMARK VINA RESULT:      -7.2      0.000      0.000
REMARK  Name = 
REMARK  8 active torsions:
REMARK  status: ('A' for Active; 'I' for Inactive)
REMARK    1  A    between atoms: C_1  and  C_2
REMARK    2  A    between atoms: C_2  and  C_3
REMARK    3  A    between atoms: C_2  and  C_4
REMARK    4  A    between atoms: C_2  and  N_5
REMARK    5  A    between atoms: C_6  and  C_8
REMARK    6  A    between atoms: C_8  and  C_10
REMARK    7  A    between atoms: C_11  and  C_12
REMARK    8  A    between atoms: C_15  and  O_16
REMARK                            x       y       z     vdW  Elec       q    Type
REMARK                         _______ _______ _______ _____ _____    ______ ____
ROOT
ATOM      1  C   UNL     1       6.792   4.255  15.932  0.00  0.00    +0.000 C 
ATOM      2  O   UNL     1       7.880   4.405  16.470  0.00  0.00    +0.000 OA
ENDROOT
BRANCH   1   4
ATOM      3  N   UNL     1       6.313   3.303  13.709  0.00  0.00    +0.000 N 
ATOM      4  C   UNL     1       6.637   4.447  14.415  0.00  0.00    +0.000 C 
ATOM      5  O   UNL     1       6.795   5.557  13.932  0.00  0.00    +0.000 OA
ATOM      6  H   UNL     1       6.219   2.449  14.252  0.00  0.00    +0.000 HD
BRANCH   3   8
ATOM      7  C   UNL     1       6.325   1.854  11.703  0.00  0.00    +0.000 C 
ATOM      8  C   UNL     1       6.134   3.279  12.249  0.00  0.00    +0.000 C 
ATOM      9  C   UNL     1       7.140   4.222  11.566  0.00  0.00    +0.000 C 
ATOM     10  C   UNL     1       4.704   3.730  11.899  0.00  0.00    +0.000 C 
ENDBRANCH   3   8
ENDBRANCH   1   4
BRANCH   1  11
ATOM     11  C   UNL     1       5.541   3.878  16.649  0.00  0.00    +0.000 C 
ATOM     12  C   UNL     1       4.901   4.703  17.490  0.00  0.00    +0.000 C 
BRANCH  12  13
ATOM     13  C   UNL     1       3.667   4.309  18.196  0.00  0.00    +0.000 A 
ATOM     14  C   UNL     1       2.514   3.891  17.512  0.00  0.00    +0.000 A 
ATOM     15  C   UNL     1       1.354   3.530  18.204  0.00  0.00    +0.000 A 
ATOM     16  C   UNL     1       1.350   3.569  19.592  0.00  0.00    +0.000 A 
ATOM     17  C   UNL     1       2.487   3.953  20.293  0.00  0.00    +0.000 A 
ATOM     18  C   UNL     1       3.645   4.318  19.598  0.00  0.00    +0.000 A 
BRANCH  16  19
ATOM     19  O   UNL     1       0.240   3.232  20.306  0.00  0.00    +0.000 OA
ATOM     20  H   UNL     1       0.461   2.490  20.892  0.00  0.00    +0.000 HD
ENDBRANCH  16  19
ENDBRANCH  12  13
ENDBRANCH   1  11
TORSDOF 5
ENDMDL
MODEL 2
REMARK VINA RESULT:      -7.2      0.736      1.310
REMARK  Name = 
REMARK  8 active torsions:
REMARK  status: ('A' for Active; 'I' for Inactive)
REMARK    1  A    between atoms: C_1  and  C_2
REMARK    2  A    between atoms: C_2  and  C_3
REMARK    3  A    between atoms: C_2  and  C_4
REMARK    4  A    between atoms: C_2  and  N_5
REMARK    5  A    between atoms: C_6  and  C_8
REMARK    6  A    between atoms: C_8  and  C_10
REMARK    7  A    between atoms: C_11  and  C_12
REMARK    8  A    between atoms: C_15  and  O_16
REMARK                            x       y       z     vdW  Elec       q    Type
REMARK                         _______ _______ _______ _____ _____    ______ ____
ROOT
ATOM      1  C   UNL     1       6.798   4.293  15.804  0.00  0.00    +0.000 C 
ATOM      2  O   UNL     1       7.805   4.607  16.424  0.00  0.00    +0.000 OA
ENDROOT
BRANCH   1   4
ATOM      3  N   UNL     1       6.191   3.322  13.620  0.00  0.00    +0.000 N 
ATOM      4  C   UNL     1       6.756   4.404  14.272  0.00  0.00    +0.000 C 
ATOM      5  O   UNL     1       7.201   5.404  13.731  0.00  0.00    +0.000 OA
ATOM      6  H   UNL     1       5.869   2.559  14.209  0.00  0.00    +0.000 HD
BRANCH   3   8
ATOM      7  C   UNL     1       4.673   3.683  11.701  0.00  0.00    +0.000 C 
ATOM      8  C   UNL     1       6.072   3.234  12.158  0.00  0.00    +0.000 C 
ATOM      9  C   UNL     1       6.320   1.792  11.681  0.00  0.00    +0.000 C 
ATOM     10  C   UNL     1       7.105   4.165  11.499  0.00  0.00    +0.000 C 
ENDBRANCH   3   8
ENDBRANCH   1   4
BRANCH   1  11
ATOM     11  C   UNL     1       5.546   3.782  16.432  0.00  0.00    +0.000 C 
ATOM     12  C   UNL     1       4.746   4.539  17.196  0.00  0.00    +0.000 C 
BRANCH  12  13
ATOM     13  C   UNL     1       3.515   4.012  17.814  0.00  0.00    +0.000 A 
ATOM     14  C   UNL     1       3.192   2.645  17.792  0.00  0.00    +0.000 A 
ATOM     15  C   UNL     1       2.015   2.172  18.379  0.00  0.00    +0.000 A 
ATOM     16  C   UNL     1       1.161   3.067  19.009  0.00  0.00    +0.000 A 
ATOM     17  C   UNL     1       1.471   4.420  19.068  0.00  0.00    +0.000 A 
ATOM     18  C   UNL     1       2.648   4.893  18.476  0.00  0.00    +0.000 A 
BRANCH  16  19
ATOM     19  O   UNL     1      -0.000   2.650  19.588  0.00  0.00    +0.000 OA
ATOM     20  H   UNL     1      -0.536   3.430  19.805  0.00  0.00    +0.000 HD
ENDBRANCH  16  19
ENDBRANCH  12  13
ENDBRANCH   1  11
TORSDOF 5
ENDMDL
MODEL 3
REMARK VINA RESULT:      -7.2      0.285      1.131
REMARK  Name = 
REMARK  8 active torsions:
REMARK  status: ('A' for Active; 'I' for Inactive)
REMARK    1  A    between atoms: C_1  and  C_2
REMARK    2  A    between atoms: C_2  and  C_3
REMARK    3  A    between atoms: C_2  and  C_4
REMARK    4  A    between atoms: C_2  and  N_5
REMARK    5  A    between atoms: C_6  and  C_8
REMARK    6  A    between atoms: C_8  and  C_10
REMARK    7  A    between atoms: C_11  and  C_12
REMARK    8  A    between atoms: C_15  and  O_16
REMARK                            x       y       z     vdW  Elec       q    Type
REMARK                         _______ _______ _______ _____ _____    ______ ____
ROOT
ATOM      1  C   UNL     1       6.778   4.324  15.890  0.00  0.00    +0.000 C 
ATOM      2  O   UNL     1       7.841   4.455  16.482  0.00  0.00    +0.000 OA
ENDROOT
BRANCH   1   4
ATOM      3  N   UNL     1       6.227   3.339  13.698  0.00  0.00    +0.000 N 
ATOM      4  C   UNL     1       6.715   4.451  14.360  0.00  0.00    +0.000 C 
ATOM      5  O   UNL     1       7.077   5.489  13.829  0.00  0.00    +0.000 OA
ATOM      6  H   UNL     1       5.969   2.546  14.279  0.00  0.00    +0.000 HD
BRANCH   3   8
ATOM      7  C   UNL     1       6.295   1.814  11.751  0.00  0.00    +0.000 C 
ATOM      8  C   UNL     1       6.102   3.261  12.235  0.00  0.00    +0.000 C 
ATOM      9  C   UNL     1       7.144   4.166  11.554  0.00  0.00    +0.000 C 
ATOM     10  C   UNL     1       4.692   3.715  11.814  0.00  0.00    +0.000 C 
ENDBRANCH   3   8
ENDBRANCH   1   4
BRANCH   1  11
ATOM     11  C   UNL     1       5.474   4.032  16.551  0.00  0.00    +0.000 C 
ATOM     12  C   UNL     1       5.152   4.487  17.770  0.00  0.00    +0.000 C 
BRANCH  12  13
ATOM     13  C   UNL     1       3.859   4.181  18.411  0.00  0.00    +0.000 A 
ATOM     14  C   UNL     1       3.536   4.637  19.700  0.00  0.00    +0.000 A 
ATOM     15  C   UNL     1       2.307   4.328  20.289  0.00  0.00    +0.000 A 
ATOM     16  C   UNL     1       1.384   3.571  19.579  0.00  0.00    +0.000 A 
ATOM     17  C   UNL     1       1.669   3.131  18.292  0.00  0.00    +0.000 A 
ATOM     18  C   UNL     1       2.902   3.439  17.706  0.00  0.00    +0.000 A 
BRANCH  16  19
ATOM     19  O   UNL     1       0.176   3.241  20.117  0.00  0.00    +0.000 OA
ATOM     20  H   UNL     1      -0.027   3.867  20.831  0.00  0.00    +0.000 HD
ENDBRANCH  16  19
ENDBRANCH  12  13
ENDBRANCH   1  11
TORSDOF 5
ENDMDL
MODEL 4
REMARK VINA RESULT:      -7.2      0.698      1.275
REMARK  Name = 
REMARK  8 active torsions:
REMARK  status: ('A' for Active; 'I' for Inactive)
REMARK    1  A    between atoms: C_1  and  C_2
REMARK    2  A    between atoms: C_2  and  C_3
REMARK    3  A    between atoms: C_2  and  C_4
REMARK    4  A    between atoms: C_2  and  N_5
REMARK    5  A    between atoms: C_6  and  C_8
REMARK    6  A    between atoms: C_8  and  C_10
REMARK    7  A    between atoms: C_11  and  C_12
REMARK    8  A    between atoms: C_15  and  O_16
REMARK                            x       y       z     vdW  Elec       q    Type
REMARK                         _______ _______ _______ _____ _____    ______ ____
ROOT
ATOM      1  C   UNL     1       6.761   4.234  15.814  0.00  0.00    +0.000 C 
ATOM      2  O   UNL     1       7.775   4.496  16.447  0.00  0.00    +0.000 OA
ENDROOT
BRANCH   1   4
ATOM      3  N   UNL     1       6.185   3.303  13.604  0.00  0.00    +0.000 N 
ATOM      4  C   UNL     1       6.738   4.374  14.284  0.00  0.00    +0.000 C 
ATOM      5  O   UNL     1       7.184   5.387  13.767  0.00  0.00    +0.000 OA
ATOM      6  H   UNL     1       5.860   2.528  14.174  0.00  0.00    +0.000 HD
BRANCH   3   8
ATOM      7  C   UNL     1       7.152   4.136  11.484  0.00  0.00    +0.000 C 
ATOM      8  C   UNL     1       6.083   3.243  12.138  0.00  0.00    +0.000 C 
ATOM      9  C   UNL     1       4.689   3.701  11.674  0.00  0.00    +0.000 C 
ATOM     10  C   UNL     1       6.321   1.798  11.664  0.00  0.00    +0.000 C 
ENDBRANCH   3   8
ENDBRANCH   1   4
BRANCH   1  11
ATOM     11  C   UNL     1       5.485   3.762  16.421  0.00  0.00    +0.000 C 
ATOM     12  C   UNL     1       4.832   4.440  17.376  0.00  0.00    +0.000 C 
BRANCH  12  13
ATOM     13  C   UNL     1       3.574   3.952  17.971  0.00  0.00    +0.000 A 
ATOM     14  C   UNL     1       3.184   2.604  17.897  0.00  0.00    +0.000 A 
ATOM     15  C   UNL     1       1.982   2.168  18.462  0.00  0.00    +0.000 A 
ATOM     16  C   UNL     1       1.170   3.081  19.122  0.00  0.00    +0.000 A 
ATOM     17  C   UNL     1       1.546   4.414  19.232  0.00  0.00    +0.000 A 
ATOM     18  C   UNL     1       2.748   4.849  18.662  0.00  0.00    +0.000 A 
BRANCH  16  19
ATOM     19  O   UNL     1      -0.013   2.700  19.682  0.00  0.00    +0.000 OA
ATOM     20  H   UNL     1      -0.101   1.737  19.595  0.00  0.00    +0.000 HD
ENDBRANCH  16  19
ENDBRANCH  12  13
ENDBRANCH   1  11
TORSDOF 5
ENDMDL
MODEL 5
REMARK VINA RESULT:      -6.9      0.581      1.652
REMARK  Name = 
REMARK  8 active torsions:
REMARK  status: ('A' for Active; 'I' for Inactive)
REMARK    1  A    between atoms: C_1  and  C_2
REMARK    2  A    between atoms: C_2  and  C_3
REMARK    3  A    between atoms: C_2  and  C_4
REMARK    4  A    between atoms: C_2  and  N_5
REMARK    5  A    between atoms: C_6  and  C_8
REMARK    6  A    between atoms: C_8  and  C_10
REMARK    7  A    between atoms: C_11  and  C_12
REMARK    8  A    between atoms: C_15  and  O_16
REMARK                            x       y       z     vdW  Elec       q    Type
REMARK                         _______ _______ _______ _____ _____    ______ ____
ROOT
ATOM      1  C   UNL     1       6.837   4.432  16.189  0.00  0.00    +0.000 C 
ATOM      2  O   UNL     1       8.025   4.389  16.480  0.00  0.00    +0.000 OA
ENDROOT
BRANCH   1   4
ATOM      3  N   UNL     1       6.596   3.513  13.914  0.00  0.00    +0.000 N 
ATOM      4  C   UNL     1       6.397   4.613  14.728  0.00  0.00    +0.000 C 
ATOM      5  O   UNL     1       5.906   5.675  14.377  0.00  0.00    +0.000 OA
ATOM      6  H   UNL     1       7.021   2.700  14.351  0.00  0.00    +0.000 HD
BRANCH   3   8
ATOM      7  C   UNL     1       7.093   4.523  11.710  0.00  0.00    +0.000 C 
ATOM      8  C   UNL     1       6.251   3.494  12.484  0.00  0.00    +0.000 C 
ATOM      9  C   UNL     1       4.758   3.809  12.284  0.00  0.00    +0.000 C 
ATOM     10  C   UNL     1       6.554   2.102  11.900  0.00  0.00    +0.000 C 
ENDBRANCH   3   8
ENDBRANCH   1   4
BRANCH   1  11
ATOM     11  C   UNL     1       5.723   4.312  17.172  0.00  0.00    +0.000 C 
ATOM     12  C   UNL     1       4.620   3.584  16.945  0.00  0.00    +0.000 C 
BRANCH  12  13
ATOM     13  C   UNL     1       3.525   3.484  17.927  0.00  0.00    +0.000 A 
ATOM     14  C   UNL     1       3.706   3.795  19.285  0.00  0.00    +0.000 A 
ATOM     15  C   UNL     1       2.653   3.685  20.198  0.00  0.00    +0.000 A 
ATOM     16  C   UNL     1       1.404   3.277  19.750  0.00  0.00    +0.000 A 
ATOM     17  C   UNL     1       1.192   2.989  18.407  0.00  0.00    +0.000 A 
ATOM     18  C   UNL     1       2.249   3.096  17.496  0.00  0.00    +0.000 A 
BRANCH  16  19
ATOM     19  O   UNL     1       0.351   3.149  20.607  0.00  0.00    +0.000 OA
ATOM     20  H   UNL     1       0.626   2.592  21.353  0.00  0.00    +0.000 HD
ENDBRANCH  16  19
ENDBRANCH  12  13
ENDBRANCH   1  11
TORSDOF 5
ENDMDL
MODEL 6
REMARK VINA RESULT:      -6.8      0.699      1.404
REMARK  Name = 
REMARK  8 active torsions:
REMARK  status: ('A' for Active; 'I' for Inactive)
REMARK    1  A    between atoms: C_1  and  C_2
REMARK    2  A    between atoms: C_2  and  C_3
REMARK    3  A    between atoms: C_2  and  C_4
REMARK    4  A    between atoms: C_2  and  N_5
REMARK    5  A    between atoms: C_6  and  C_8
REMARK    6  A    between atoms: C_8  and  C_10
REMARK    7  A    between atoms: C_11  and  C_12
REMARK    8  A    between atoms: C_15  and  O_16
REMARK                            x       y       z     vdW  Elec       q    Type
REMARK                         _______ _______ _______ _____ _____    ______ ____
ROOT
ATOM      1  C   UNL     1       6.810   4.278  16.057  0.00  0.00    +0.000 C 
ATOM      2  O   UNL     1       7.919   4.353  16.567  0.00  0.00    +0.000 OA
ENDROOT
BRANCH   1   4
ATOM      3  N   UNL     1       6.440   3.369  13.794  0.00  0.00    +0.000 N 
ATOM      4  C   UNL     1       6.625   4.513  14.549  0.00  0.00    +0.000 C 
ATOM      5  O   UNL     1       6.643   5.654  14.114  0.00  0.00    +0.000 OA
ATOM      6  H   UNL     1       6.454   2.488  14.301  0.00  0.00    +0.000 HD
BRANCH   3   8
ATOM      7  C   UNL     1       4.816   3.780  11.974  0.00  0.00    +0.000 C 
ATOM      8  C   UNL     1       6.258   3.385  12.335  0.00  0.00    +0.000 C 
ATOM      9  C   UNL     1       6.568   2.002  11.736  0.00  0.00    +0.000 C 
ATOM     10  C   UNL     1       7.204   4.426  11.710  0.00  0.00    +0.000 C 
ENDBRANCH   3   8
ENDBRANCH   1   4
BRANCH   1  11
ATOM     11  C   UNL     1       5.559   3.956  16.801  0.00  0.00    +0.000 C 
ATOM     12  C   UNL     1       5.131   4.662  17.857  0.00  0.00    +0.000 C 
BRANCH  12  13
ATOM     13  C   UNL     1       3.894   4.324  18.585  0.00  0.00    +0.000 A 
ATOM     14  C   UNL     1       3.134   5.294  19.260  0.00  0.00    +0.000 A 
ATOM     15  C   UNL     1       1.969   4.946  19.949  0.00  0.00    +0.000 A 
ATOM     16  C   UNL     1       1.548   3.623  19.951  0.00  0.00    +0.000 A 
ATOM     17  C   UNL     1       2.268   2.650  19.269  0.00  0.00    +0.000 A 
ATOM     18  C   UNL     1       3.437   2.999  18.583  0.00  0.00    +0.000 A 
BRANCH  16  19
ATOM     19  O   UNL     1       0.422   3.239  20.616  0.00  0.00    +0.000 OA
ATOM     20  H   UNL     1      -0.143   2.739  20.006  0.00  0.00    +0.000 HD
ENDBRANCH  16  19
ENDBRANCH  12  13
ENDBRANCH   1  11
TORSDOF 5
ENDMDL
MODEL 7
REMARK VINA RESULT:      -6.8      5.741      8.196
REMARK  Name = 
REMARK  8 active torsions:
REMARK  status: ('A' for Active; 'I' for Inactive)
REMARK    1  A    between atoms: C_1  and  C_2
REMARK    2  A    between atoms: C_2  and  C_3
REMARK    3  A    between atoms: C_2  and  C_4
REMARK    4  A    between atoms: C_2  and  N_5
REMARK    5  A    between atoms: C_6  and  C_8
REMARK    6  A    between atoms: C_8  and  C_10
REMARK    7  A    between atoms: C_11  and  C_12
REMARK    8  A    between atoms: C_15  and  O_16
REMARK                            x       y       z     vdW  Elec       q    Type
REMARK                         _______ _______ _______ _____ _____    ______ ____
ROOT
ATOM      1  C   UNL     1       7.360   6.532  17.592  0.00  0.00    +0.000 C 
ATOM      2  O   UNL     1       7.564   6.173  16.440  0.00  0.00    +0.000 OA
ENDROOT
BRANCH   1   4
ATOM      3  N   UNL     1       5.173   5.441  17.921  0.00  0.00    +0.000 N 
ATOM      4  C   UNL     1       6.393   5.750  18.495  0.00  0.00    +0.000 C 
ATOM      5  O   UNL     1       6.741   5.448  19.626  0.00  0.00    +0.000 OA
ATOM      6  H   UNL     1       5.028   5.766  16.969  0.00  0.00    +0.000 HD
BRANCH   3   8
ATOM      7  C   UNL     1       3.008   4.275  17.647  0.00  0.00    +0.000 C 
ATOM      8  C   UNL     1       4.111   4.709  18.627  0.00  0.00    +0.000 C 
ATOM      9  C   UNL     1       3.490   5.587  19.729  0.00  0.00    +0.000 C 
ATOM     10  C   UNL     1       4.699   3.440  19.269  0.00  0.00    +0.000 C 
ENDBRANCH   3   8
ENDBRANCH   1   4
BRANCH   1  11
ATOM     11  C   UNL     1       8.002   7.714  18.233  0.00  0.00    +0.000 C 
ATOM     12  C   UNL     1       8.001   8.937  17.685  0.00  0.00    +0.000 C 
BRANCH  12  13
ATOM     13  C   UNL     1       8.648  10.094  18.332  0.00  0.00    +0.000 A 
ATOM     14  C   UNL     1       9.331   9.982  19.554  0.00  0.00    +0.000 A 
ATOM     15  C   UNL     1       9.930  11.095  20.151  0.00  0.00    +0.000 A 
ATOM     16  C   UNL     1       9.863  12.328  19.515  0.00  0.00    +0.000 A 
ATOM     17  C   UNL     1       9.216  12.458  18.292  0.00  0.00    +0.000 A 
ATOM     18  C   UNL     1       8.613  11.344  17.698  0.00  0.00    +0.000 A 
BRANCH  16  19
ATOM     19  O   UNL     1      10.426  13.440  20.064  0.00  0.00    +0.000 OA
ATOM     20  H   UNL     1       9.749  13.910  20.576  0.00  0.00    +0.000 HD
ENDBRANCH  16  19
ENDBRANCH  12  13
ENDBRANCH   1  11
TORSDOF 5
ENDMDL
MODEL 8
REMARK VINA RESULT:      -6.8      5.760      8.131
REMARK  Name = 
REMARK  8 active torsions:
REMARK  status: ('A' for Active; 'I' for Inactive)
REMARK    1  A    between atoms: C_1  and  C_2
REMARK    2  A    between atoms: C_2  and  C_3
REMARK    3  A    between atoms: C_2  and  C_4
REMARK    4  A    between atoms: C_2  and  N_5
REMARK    5  A    between atoms: C_6  and  C_8
REMARK    6  A    between atoms: C_8  and  C_10
REMARK    7  A    between atoms: C_11  and  C_12
REMARK    8  A    between atoms: C_15  and  O_16
REMARK                            x       y       z     vdW  Elec       q    Type
REMARK                         _______ _______ _______ _____ _____    ______ ____
ROOT
ATOM      1  C   UNL     1       7.374   6.599  17.537  0.00  0.00    +0.000 C 
ATOM      2  O   UNL     1       7.553   6.245  16.380  0.00  0.00    +0.000 OA
ENDROOT
BRANCH   1   4
ATOM      3  N   UNL     1       5.218   5.444  17.847  0.00  0.00    +0.000 N 
ATOM      4  C   UNL     1       6.402   5.833  18.447  0.00  0.00    +0.000 C 
ATOM      5  O   UNL     1       6.714   5.612  19.607  0.00  0.00    +0.000 OA
ATOM      6  H   UNL     1       5.099   5.706  16.872  0.00  0.00    +0.000 HD
BRANCH   3   8
ATOM      7  C   UNL     1       4.730   3.470  19.257  0.00  0.00    +0.000 C 
ATOM      8  C   UNL     1       4.156   4.713  18.554  0.00  0.00    +0.000 C 
ATOM      9  C   UNL     1       3.055   4.275  17.573  0.00  0.00    +0.000 C 
ATOM     10  C   UNL     1       3.536   5.621  19.632  0.00  0.00    +0.000 C 
ENDBRANCH   3   8
ENDBRANCH   1   4
BRANCH   1  11
ATOM     11  C   UNL     1       8.054   7.760  18.178  0.00  0.00    +0.000 C 
ATOM     12  C   UNL     1       7.989   9.008  17.694  0.00  0.00    +0.000 C 
BRANCH  12  13
ATOM     13  C   UNL     1       8.675  10.143  18.339  0.00  0.00    +0.000 A 
ATOM     14  C   UNL     1       8.745  11.413  17.742  0.00  0.00    +0.000 A 
ATOM     15  C   UNL     1       9.408  12.471  18.370  0.00  0.00    +0.000 A 
ATOM     16  C   UNL     1       9.990  12.266  19.614  0.00  0.00    +0.000 A 
ATOM     17  C   UNL     1       9.911  11.027  20.238  0.00  0.00    +0.000 A 
ATOM     18  C   UNL     1       9.251   9.968  19.605  0.00  0.00    +0.000 A 
BRANCH  16  19
ATOM     19  O   UNL     1      10.652  13.268  20.260  0.00  0.00    +0.000 OA
ATOM     20  H   UNL     1      11.429  12.891  20.702  0.00  0.00    +0.000 HD
ENDBRANCH  16  19
ENDBRANCH  12  13
ENDBRANCH   1  11
TORSDOF 5
ENDMDL
MODEL 9
REMARK VINA RESULT:      -6.7      4.474      6.057
REMARK  Name = 
REMARK  8 active torsions:
REMARK  status: ('A' for Active; 'I' for Inactive)
REMARK    1  A    between atoms: C_1  and  C_2
REMARK    2  A    between atoms: C_2  and  C_3
REMARK    3  A    between atoms: C_2  and  C_4
REMARK    4  A    between atoms: C_2  and  N_5
REMARK    5  A    between atoms: C_6  and  C_8
REMARK    6  A    between atoms: C_8  and  C_10
REMARK    7  A    between atoms: C_11  and  C_12
REMARK    8  A    between atoms: C_15  and  O_16
REMARK                            x       y       z     vdW  Elec       q    Type
REMARK                         _______ _______ _______ _____ _____    ______ ____
ROOT
ATOM      1  C   UNL     1       3.439   4.562  19.027  0.00  0.00    +0.000 C 
ATOM      2  O   UNL     1       2.792   3.559  19.295  0.00  0.00    +0.000 OA
ENDROOT
BRANCH   1   4
ATOM      3  N   UNL     1       5.573   5.585  18.332  0.00  0.00    +0.000 N 
ATOM      4  C   UNL     1       4.974   4.508  18.960  0.00  0.00    +0.000 C 
ATOM      5  O   UNL     1       5.562   3.558  19.452  0.00  0.00    +0.000 OA
ATOM      6  H   UNL     1       4.948   6.299  17.967  0.00  0.00    +0.000 HD
BRANCH   3   8
ATOM      7  C   UNL     1       7.572   4.557  17.299  0.00  0.00    +0.000 C 
ATOM      8  C   UNL     1       7.028   5.711  18.158  0.00  0.00    +0.000 C 
ATOM      9  C   UNL     1       7.738   5.704  19.523  0.00  0.00    +0.000 C 
ATOM     10  C   UNL     1       7.347   7.030  17.432  0.00  0.00    +0.000 C 
ENDBRANCH   3   8
ENDBRANCH   1   4
BRANCH   1  11
ATOM     11  C   UNL     1       2.844   5.898  18.737  0.00  0.00    +0.000 C 
ATOM     12  C   UNL     1       2.486   6.764  19.695  0.00  0.00    +0.000 C 
BRANCH  12  13
ATOM     13  C   UNL     1       1.891   8.079  19.388  0.00  0.00    +0.000 A 
ATOM     14  C   UNL     1       1.138   8.798  20.331  0.00  0.00    +0.000 A 
ATOM     15  C   UNL     1       0.579  10.039  20.014  0.00  0.00    +0.000 A 
ATOM     16  C   UNL     1       0.787  10.577  18.751  0.00  0.00    +0.000 A 
ATOM     17  C   UNL     1       1.551   9.897  17.810  0.00  0.00    +0.000 A 
ATOM     18  C   UNL     1       2.106   8.653  18.128  0.00  0.00    +0.000 A 
BRANCH  16  19
ATOM     19  O   UNL     1       0.255  11.780  18.397  0.00  0.00    +0.000 OA
ATOM     20  H   UNL     1       0.980  12.406  18.241  0.00  0.00    +0.000 HD
ENDBRANCH  16  19
ENDBRANCH  12  13
ENDBRANCH   1  11
TORSDOF 5
ENDMDL
