MODEL 1
REMARK VINA RESULT:      -7.8      0.000      0.000
REMARK  Name = 
REMARK  4 active torsions:
REMARK  status: ('A' for Active; 'I' for Inactive)
REMARK    1  A    between atoms: C_2  and  C_3
REMARK    2  A    between atoms: C_3  and  N_4
REMARK    3  A    between atoms: C_7  and  C_8
REMARK    4  A    between atoms: C_14  and  C_15
REMARK                            x       y       z     vdW  Elec       q    Type
REMARK                         _______ _______ _______ _____ _____    ______ ____
ROOT
ATOM      1  N   UNL     1       4.371   5.776  17.163  0.00  0.00    +0.000 N 
ATOM      2  C   UNL     1       4.614   7.032  16.668  0.00  0.00    +0.000 A 
ATOM      3  N   UNL     1       3.863   7.937  17.240  0.00  0.00    +0.000 NA
ATOM      4  C   UNL     1       3.091   7.247  18.156  0.00  0.00    +0.000 A 
ATOM      5  C   UNL     1       3.369   5.876  18.123  0.00  0.00    +0.000 A 
ENDROOT
BRANCH   4   6
ATOM      6  C   UNL     1       2.078   7.936  18.954  0.00  0.00    +0.000 A 
ATOM      7  C   UNL     1       1.871   7.561  20.290  0.00  0.00    +0.000 A 
ATOM      8  C   UNL     1       1.015   8.302  21.114  0.00  0.00    +0.000 A 
ATOM      9  C   UNL     1       0.364   9.427  20.615  0.00  0.00    +0.000 A 
ATOM     10  C   UNL     1       0.515   9.775  19.276  0.00  0.00    +0.000 A 
ATOM     11  C   UNL     1       1.337   9.009  18.444  0.00  0.00    +0.000 A 
ENDBRANCH   4   6
BRANCH   5  12
ATOM     12  C   UNL     1       2.752   4.747  18.848  0.00  0.00    +0.000 A 
ATOM     13  C   UNL     1       1.602   4.126  18.331  0.00  0.00    +0.000 A 
ATOM     14  C   UNL     1       0.893   3.178  19.073  0.00  0.00    +0.000 A 
ATOM     15  C   UNL     1       1.373   2.766  20.311  0.00  0.00    +0.000 A 
ATOM     16  C   UNL     1       2.549   3.318  20.811  0.00  0.00    +0.000 A 
ATOM     17  C   UNL     1       3.214   4.323  20.099  0.00  0.00    +0.000 A 
ENDBRANCH   5  12
BRANCH   1  18
ATOM     18  C   UNL     1       5.159   4.610  16.769  0.00  0.00    +0.000 C 
BRANCH  18  20
ATOM     19  O   UNL     1       7.392   5.462  16.551  0.00  0.00    +0.000 OA
ATOM     20  C   UNL     1       6.427   4.935  15.993  0.00  0.00    +0.000 C 
ATOM     21  N   UNL     1       6.472   4.574  14.646  0.00  0.00    +0.000 N 
ATOM     22  C   UNL     1       7.742   4.786  13.941  0.00  0.00    +0.000 C 
ATOM     23  C   UNL     1       7.549   4.914  12.427  0.00  0.00    +0.000 C 
ATOM     24  O   UNL     1       6.809   3.801  11.904  0.00  0.00    +0.000 OA
ATOM     25  C   UNL     1       5.511   3.740  12.508  0.00  0.00    +0.000 C 
ATOM     26  C   UNL     1       5.616   3.551  14.028  0.00  0.00    +0.000 C 
ENDBRANCH  18  20
ENDBRANCH   1  18
TORSDOF 4
ENDMDL
MODEL 2
REMARK VINA RESULT:      -7.6      0.812      1.564
REMARK  Name = 
REMARK  4 active torsions:
REMARK  status: ('A' for Active; 'I' for Inactive)
REMARK    1  A    between atoms: C_2  and  C_3
REMARK    2  A    between atoms: C_3  and  N_4
REMARK    3  A    between atoms: C_7  and  C_8
REMARK    4  A    between atoms: C_14  and  C_15
REMARK                            x       y       z     vdW  Elec       q    Type
REMARK                         _______ _______ _______ _____ _____    ______ ____
ROOT
ATOM      1  N   UNL     1       3.812   5.903  17.745  0.00  0.00    +0.000 N 
ATOM      2  C   UNL     1       4.087   7.127  17.191  0.00  0.00    +0.000 A 
ATOM      3  N   UNL     1       3.398   8.086  17.755  0.00  0.00    +0.000 NA
ATOM      4  C   UNL     1       2.636   7.465  18.726  0.00  0.00    +0.000 A 
ATOM      5  C   UNL     1       2.855   6.083  18.738  0.00  0.00    +0.000 A 
ENDROOT
BRANCH   4   6
ATOM      6  C   UNL     1       1.684   8.227  19.535  0.00  0.00    +0.000 A 
ATOM      7  C   UNL     1       0.982   9.297  18.960  0.00  0.00    +0.000 A 
ATOM      8  C   UNL     1      -0.038   9.943  19.668  0.00  0.00    +0.000 A 
ATOM      9  C   UNL     1      -0.372   9.523  20.953  0.00  0.00    +0.000 A 
ATOM     10  C   UNL     1       0.356   8.501  21.557  0.00  0.00    +0.000 A 
ATOM     11  C   UNL     1       1.403   7.886  20.864  0.00  0.00    +0.000 A 
ENDBRANCH   4   6
BRANCH   5  12
ATOM     12  C   UNL     1       2.221   5.011  19.530  0.00  0.00    +0.000 A 
ATOM     13  C   UNL     1       2.603   4.807  20.867  0.00  0.00    +0.000 A 
ATOM     14  C   UNL     1       2.156   3.697  21.589  0.00  0.00    +0.000 A 
ATOM     15  C   UNL     1       1.244   2.818  21.016  0.00  0.00    +0.000 A 
ATOM     16  C   UNL     1       0.799   3.040  19.715  0.00  0.00    +0.000 A 
ATOM     17  C   UNL     1       1.309   4.110  18.970  0.00  0.00    +0.000 A 
ENDBRANCH   5  12
BRANCH   1  18
ATOM     18  C   UNL     1       4.534   4.691  17.367  0.00  0.00    +0.000 C 
BRANCH  18  20
ATOM     19  O   UNL     1       6.841   5.343  17.479  0.00  0.00    +0.000 OA
ATOM     20  C   UNL     1       5.915   4.933  16.776  0.00  0.00    +0.000 C 
ATOM     21  N   UNL     1       6.103   4.633  15.426  0.00  0.00    +0.000 N 
ATOM     22  C   UNL     1       7.468   4.759  14.899  0.00  0.00    +0.000 C 
ATOM     23  C   UNL     1       7.484   4.974  13.382  0.00  0.00    +0.000 C 
ATOM     24  O   UNL     1       6.726   3.959  12.708  0.00  0.00    +0.000 OA
ATOM     25  C   UNL     1       5.360   3.989  13.140  0.00  0.00    +0.000 C 
ATOM     26  C   UNL     1       5.251   3.721  14.648  0.00  0.00    +0.000 C 
ENDBRANCH  18  20
ENDBRANCH   1  18
TORSDOF 4
ENDMDL
MODEL 3
REMARK VINA RESULT:      -7.6      0.332      1.000
REMARK  Name = 
REMARK  4 active torsions:
REMARK  status: ('A' for Active; 'I' for Inactive)
REMARK    1  A    between atoms: C_2  and  C_3
REMARK    2  A    between atoms: C_3  and  N_4
REMARK    3  A    between atoms: C_7  and  C_8
REMARK    4  A    between atoms: C_14  and  C_15
REMARK                            x       y       z     vdW  Elec       q    Type
REMARK                         _______ _______ _______ _____ _____    ______ ____
ROOT
ATOM      1  N   UNL     1       4.197   5.809  17.365  0.00  0.00    +0.000 N 
ATOM      2  C   UNL     1       4.460   7.039  16.818  0.00  0.00    +0.000 A 
ATOM      3  N   UNL     1       3.756   7.986  17.381  0.00  0.00    +0.000 NA
ATOM      4  C   UNL     1       2.996   7.352  18.346  0.00  0.00    +0.000 A 
ATOM      5  C   UNL     1       3.232   5.973  18.352  0.00  0.00    +0.000 A 
ENDROOT
BRANCH   4   6
ATOM      6  C   UNL     1       2.031   8.099  19.152  0.00  0.00    +0.000 A 
ATOM      7  C   UNL     1       1.314   9.159  18.575  0.00  0.00    +0.000 A 
ATOM      8  C   UNL     1       0.282   9.789  19.281  0.00  0.00    +0.000 A 
ATOM      9  C   UNL     1      -0.049   9.363  20.564  0.00  0.00    +0.000 A 
ATOM     10  C   UNL     1       0.692   8.351  21.169  0.00  0.00    +0.000 A 
ATOM     11  C   UNL     1       1.750   7.753  20.479  0.00  0.00    +0.000 A 
ENDBRANCH   4   6
BRANCH   5  12
ATOM     12  C   UNL     1       2.606   4.890  19.136  0.00  0.00    +0.000 A 
ATOM     13  C   UNL     1       1.546   4.148  18.588  0.00  0.00    +0.000 A 
ATOM     14  C   UNL     1       0.818   3.240  19.361  0.00  0.00    +0.000 A 
ATOM     15  C   UNL     1       1.196   2.989  20.675  0.00  0.00    +0.000 A 
ATOM     16  C   UNL     1       2.287   3.662  21.217  0.00  0.00    +0.000 A 
ATOM     17  C   UNL     1       2.965   4.627  20.463  0.00  0.00    +0.000 A 
ENDBRANCH   5  12
BRANCH   1  18
ATOM     18  C   UNL     1       4.936   4.607  16.986  0.00  0.00    +0.000 C 
BRANCH  18  20
ATOM     19  O   UNL     1       7.227   5.313  16.866  0.00  0.00    +0.000 OA
ATOM     20  C   UNL     1       6.247   4.871  16.261  0.00  0.00    +0.000 C 
ATOM     21  N   UNL     1       6.312   4.554  14.904  0.00  0.00    +0.000 N 
ATOM     22  C   UNL     1       7.616   4.702  14.245  0.00  0.00    +0.000 C 
ATOM     23  C   UNL     1       7.481   4.894  12.732  0.00  0.00    +0.000 C 
ATOM     24  O   UNL     1       6.686   3.851  12.148  0.00  0.00    +0.000 OA
ATOM     25  C   UNL     1       5.368   3.858  12.709  0.00  0.00    +0.000 C 
ATOM     26  C   UNL     1       5.410   3.611  14.224  0.00  0.00    +0.000 C 
ENDBRANCH  18  20
ENDBRANCH   1  18
TORSDOF 4
ENDMDL
MODEL 4
REMARK VINA RESULT:      -7.5      3.647      7.485
REMARK  Name = 
REMARK  4 active torsions:
REMARK  status: ('A' for Active; 'I' for Inactive)
REMARK    1  A    between atoms: C_2  and  C_3
REMARK    2  A    between atoms: C_3  and  N_4
REMARK    3  A    between atoms: C_7  and  C_8
REMARK    4  A    between atoms: C_14  and  C_15
REMARK                            x       y       z     vdW  Elec       q    Type
REMARK                         _______ _______ _______ _____ _____    ______ ____
ROOT
ATOM      1  N   UNL     1       1.782   7.668  19.615  0.00  0.00    +0.000 N 
ATOM      2  C   UNL     1       2.308   8.651  18.816  0.00  0.00    +0.000 A 
ATOM      3  N   UNL     1       3.115   8.165  17.909  0.00  0.00    +0.000 NA
ATOM      4  C   UNL     1       3.119   6.799  18.117  0.00  0.00    +0.000 A 
ATOM      5  C   UNL     1       2.304   6.448  19.200  0.00  0.00    +0.000 A 
ENDROOT
BRANCH   4   6
ATOM      6  C   UNL     1       3.966   5.919  17.312  0.00  0.00    +0.000 A 
ATOM      7  C   UNL     1       5.035   6.460  16.581  0.00  0.00    +0.000 A 
ATOM      8  C   UNL     1       5.946   5.623  15.926  0.00  0.00    +0.000 A 
ATOM      9  C   UNL     1       5.804   4.240  16.000  0.00  0.00    +0.000 A 
ATOM     10  C   UNL     1       4.715   3.693  16.674  0.00  0.00    +0.000 A 
ATOM     11  C   UNL     1       3.783   4.532  17.291  0.00  0.00    +0.000 A 
ENDBRANCH   4   6
BRANCH   5  12
ATOM     12  C   UNL     1       2.059   5.141  19.840  0.00  0.00    +0.000 A 
ATOM     13  C   UNL     1       1.212   4.205  19.223  0.00  0.00    +0.000 A 
ATOM     14  C   UNL     1       0.819   3.036  19.881  0.00  0.00    +0.000 A 
ATOM     15  C   UNL     1       1.341   2.737  21.135  0.00  0.00    +0.000 A 
ATOM     16  C   UNL     1       2.236   3.618  21.734  0.00  0.00    +0.000 A 
ATOM     17  C   UNL     1       2.566   4.824  21.105  0.00  0.00    +0.000 A 
ENDBRANCH   5  12
BRANCH   1  18
ATOM     18  C   UNL     1       0.767   7.941  20.630  0.00  0.00    +0.000 C 
BRANCH  18  20
ATOM     19  O   UNL     1       1.665   9.529  22.188  0.00  0.00    +0.000 OA
ATOM     20  C   UNL     1       0.867   9.316  21.274  0.00  0.00    +0.000 C 
ATOM     21  N   UNL     1       0.058  10.331  20.761  0.00  0.00    +0.000 N 
ATOM     22  C   UNL     1       0.250  11.678  21.312  0.00  0.00    +0.000 C 
ATOM     23  C   UNL     1      -0.994  12.556  21.140  0.00  0.00    +0.000 C 
ATOM     24  O   UNL     1      -1.425  12.578  19.771  0.00  0.00    +0.000 OA
ATOM     25  C   UNL     1      -1.759  11.255  19.334  0.00  0.00    +0.000 C 
ATOM     26  C   UNL     1      -0.544  10.321  19.419  0.00  0.00    +0.000 C 
ENDBRANCH  18  20
ENDBRANCH   1  18
TORSDOF 4
ENDMDL
MODEL 5
REMARK VINA RESULT:      -7.4      6.813     10.672
REMARK  Name = 
REMARK  4 active torsions:
REMARK  status: ('A' for Active; 'I' for Inactive)
REMARK    1  A    between atoms: C_2  and  C_3
REMARK    2  A    between atoms: C_3  and  N_4
REMARK    3  A    between atoms: C_7  and  C_8
REMARK    4  A    between atoms: C_14  and  C_15
REMARK                            x       y       z     vdW  Elec       q    Type
REMARK                         _______ _______ _______ _____ _____    ______ ____
ROOT
ATOM      1  N   UNL     1      -1.728  12.310  20.785  0.00  0.00    +0.000 N 
ATOM      2  C   UNL     1      -0.821  12.314  21.814  0.00  0.00    +0.000 A 
ATOM      3  N   UNL     1       0.186  11.512  21.582  0.00  0.00    +0.000 NA
ATOM      4  C   UNL     1      -0.067  10.956  20.343  0.00  0.00    +0.000 A 
ATOM      5  C   UNL     1      -1.278  11.420  19.816  0.00  0.00    +0.000 A 
ENDROOT
BRANCH   4   6
ATOM      6  C   UNL     1       0.831   9.952  19.772  0.00  0.00    +0.000 A 
ATOM      7  C   UNL     1       1.152   8.805  20.513  0.00  0.00    +0.000 A 
ATOM      8  C   UNL     1       1.887   7.764  19.932  0.00  0.00    +0.000 A 
ATOM      9  C   UNL     1       2.300   7.856  18.606  0.00  0.00    +0.000 A 
ATOM     10  C   UNL     1       2.038   9.013  17.879  0.00  0.00    +0.000 A 
ATOM     11  C   UNL     1       1.341  10.069  18.474  0.00  0.00    +0.000 A 
ENDBRANCH   4   6
BRANCH   5  12
ATOM     12  C   UNL     1      -1.996  11.057  18.578  0.00  0.00    +0.000 A 
ATOM     13  C   UNL     1      -2.736   9.863  18.521  0.00  0.00    +0.000 A 
ATOM     14  C   UNL     1      -3.279   9.402  17.319  0.00  0.00    +0.000 A 
ATOM     15  C   UNL     1      -3.169  10.173  16.167  0.00  0.00    +0.000 A 
ATOM     16  C   UNL     1      -2.499  11.391  16.217  0.00  0.00    +0.000 A 
ATOM     17  C   UNL     1      -1.890  11.813  17.406  0.00  0.00    +0.000 A 
ENDBRANCH   5  12
BRANCH   1  18
ATOM     18  C   UNL     1      -2.882  13.206  20.752  0.00  0.00    +0.000 C 
BRANCH  18  20
ATOM     19  O   UNL     1      -4.388  12.435  22.453  0.00  0.00    +0.000 OA
ATOM     20  C   UNL     1      -4.180  12.586  21.248  0.00  0.00    +0.000 C 
ATOM     21  N   UNL     1      -5.139  12.240  20.294  0.00  0.00    +0.000 N 
ATOM     22  C   UNL     1      -6.431  11.755  20.794  0.00  0.00    +0.000 C 
ATOM     23  C   UNL     1      -7.163  10.893  19.761  0.00  0.00    +0.000 C 
ATOM     24  O   UNL     1      -7.282  11.579  18.506  0.00  0.00    +0.000 OA
ATOM     25  C   UNL     1      -5.983  11.884  17.982  0.00  0.00    +0.000 C 
ATOM     26  C   UNL     1      -5.202  12.798  18.935  0.00  0.00    +0.000 C 
ENDBRANCH  18  20
ENDBRANCH   1  18
TORSDOF 4
ENDMDL
MODEL 6
REMARK VINA RESULT:      -7.4      2.759      3.483
REMARK  Name = 
REMARK  4 active torsions:
REMARK  status: ('A' for Active; 'I' for Inactive)
REMARK    1  A    between atoms: C_2  and  C_3
REMARK    2  A    between atoms: C_3  and  N_4
REMARK    3  A    between atoms: C_7  and  C_8
REMARK    4  A    between atoms: C_14  and  C_15
REMARK                            x       y       z     vdW  Elec       q    Type
REMARK                         _______ _______ _______ _____ _____    ______ ____
ROOT
ATOM      1  N   UNL     1       2.736   6.476  18.219  0.00  0.00    +0.000 N 
ATOM      2  C   UNL     1       2.770   7.803  17.872  0.00  0.00    +0.000 A 
ATOM      3  N   UNL     1       2.241   8.563  18.795  0.00  0.00    +0.000 NA
ATOM      4  C   UNL     1       1.843   7.699  19.798  0.00  0.00    +0.000 A 
ATOM      5  C   UNL     1       2.121   6.369  19.461  0.00  0.00    +0.000 A 
ENDROOT
BRANCH   4   6
ATOM      6  C   UNL     1       1.149   8.195  20.986  0.00  0.00    +0.000 A 
ATOM      7  C   UNL     1       1.879   8.820  22.008  0.00  0.00    +0.000 A 
ATOM      8  C   UNL     1       1.222   9.433  23.082  0.00  0.00    +0.000 A 
ATOM      9  C   UNL     1      -0.169   9.435  23.141  0.00  0.00    +0.000 A 
ATOM     10  C   UNL     1      -0.903   8.769  22.163  0.00  0.00    +0.000 A 
ATOM     11  C   UNL     1      -0.243   8.120  21.115  0.00  0.00    +0.000 A 
ENDBRANCH   4   6
BRANCH   5  12
ATOM     12  C   UNL     1       1.812   5.109  20.166  0.00  0.00    +0.000 A 
ATOM     13  C   UNL     1       2.520   4.765  21.330  0.00  0.00    +0.000 A 
ATOM     14  C   UNL     1       2.379   3.506  21.920  0.00  0.00    +0.000 A 
ATOM     15  C   UNL     1       1.456   2.600  21.409  0.00  0.00    +0.000 A 
ATOM     16  C   UNL     1       0.694   2.948  20.297  0.00  0.00    +0.000 A 
ATOM     17  C   UNL     1       0.895   4.180  19.663  0.00  0.00    +0.000 A 
ENDBRANCH   5  12
BRANCH   1  18
ATOM     18  C   UNL     1       3.366   5.437  17.407  0.00  0.00    +0.000 C 
BRANCH  18  20
ATOM     19  O   UNL     1       4.641   3.703  18.467  0.00  0.00    +0.000 OA
ATOM     20  C   UNL     1       4.633   4.846  18.007  0.00  0.00    +0.000 C 
ATOM     21  N   UNL     1       5.790   5.626  17.973  0.00  0.00    +0.000 N 
ATOM     22  C   UNL     1       7.031   4.999  18.446  0.00  0.00    +0.000 C 
ATOM     23  C   UNL     1       8.063   6.033  18.906  0.00  0.00    +0.000 C 
ATOM     24  O   UNL     1       8.298   7.017  17.888  0.00  0.00    +0.000 OA
ATOM     25  C   UNL     1       7.084   7.715  17.582  0.00  0.00    +0.000 C 
ATOM     26  C   UNL     1       6.010   6.753  17.054  0.00  0.00    +0.000 C 
ENDBRANCH  18  20
ENDBRANCH   1  18
TORSDOF 4
ENDMDL
MODEL 7
REMARK VINA RESULT:      -7.3      3.658      7.546
REMARK  Name = 
REMARK  4 active torsions:
REMARK  status: ('A' for Active; 'I' for Inactive)
REMARK    1  A    between atoms: C_2  and  C_3
REMARK    2  A    between atoms: C_3  and  N_4
REMARK    3  A    between atoms: C_7  and  C_8
REMARK    4  A    between atoms: C_14  and  C_15
REMARK                            x       y       z     vdW  Elec       q    Type
REMARK                         _______ _______ _______ _____ _____    ______ ____
ROOT
ATOM      1  N   UNL     1       1.710   7.709  19.642  0.00  0.00    +0.000 N 
ATOM      2  C   UNL     1       2.301   8.668  18.861  0.00  0.00    +0.000 A 
ATOM      3  N   UNL     1       3.139   8.150  18.000  0.00  0.00    +0.000 NA
ATOM      4  C   UNL     1       3.095   6.787  18.221  0.00  0.00    +0.000 A 
ATOM      5  C   UNL     1       2.219   6.470  19.266  0.00  0.00    +0.000 A 
ENDROOT
BRANCH   4   6
ATOM      6  C   UNL     1       3.957   5.876  17.469  0.00  0.00    +0.000 A 
ATOM      7  C   UNL     1       3.866   4.493  17.687  0.00  0.00    +0.000 A 
ATOM      8  C   UNL     1       4.571   3.595  16.876  0.00  0.00    +0.000 A 
ATOM      9  C   UNL     1       5.366   4.069  15.835  0.00  0.00    +0.000 A 
ATOM     10  C   UNL     1       5.509   5.440  15.645  0.00  0.00    +0.000 A 
ATOM     11  C   UNL     1       4.838   6.335  16.483  0.00  0.00    +0.000 A 
ENDBRANCH   4   6
BRANCH   5  12
ATOM     12  C   UNL     1       1.907   5.178  19.906  0.00  0.00    +0.000 A 
ATOM     13  C   UNL     1       2.482   4.852  21.147  0.00  0.00    +0.000 A 
ATOM     14  C   UNL     1       2.351   3.574  21.696  0.00  0.00    +0.000 A 
ATOM     15  C   UNL     1       1.563   2.623  21.057  0.00  0.00    +0.000 A 
ATOM     16  C   UNL     1       0.928   2.947  19.861  0.00  0.00    +0.000 A 
ATOM     17  C   UNL     1       1.125   4.203  19.277  0.00  0.00    +0.000 A 
ENDBRANCH   5  12
BRANCH   1  18
ATOM     18  C   UNL     1       0.654   8.020  20.603  0.00  0.00    +0.000 C 
BRANCH  18  20
ATOM     19  O   UNL     1       1.582   9.585  22.168  0.00  0.00    +0.000 OA
ATOM     20  C   UNL     1       0.775   9.388  21.257  0.00  0.00    +0.000 C 
ATOM     21  N   UNL     1      -0.026  10.417  20.759  0.00  0.00    +0.000 N 
ATOM     22  C   UNL     1       0.186  11.757  21.319  0.00  0.00    +0.000 C 
ATOM     23  C   UNL     1      -1.049  12.651  21.163  0.00  0.00    +0.000 C 
ATOM     24  O   UNL     1      -1.490  12.689  19.797  0.00  0.00    +0.000 OA
ATOM     25  C   UNL     1      -1.842  11.373  19.352  0.00  0.00    +0.000 C 
ATOM     26  C   UNL     1      -0.637  10.425  19.421  0.00  0.00    +0.000 C 
ENDBRANCH  18  20
ENDBRANCH   1  18
TORSDOF 4
ENDMDL
MODEL 8
REMARK VINA RESULT:      -7.3      2.939      6.044
REMARK  Name = 
REMARK  4 active torsions:
REMARK  status: ('A' for Active; 'I' for Inactive)
REMARK    1  A    between atoms: C_2  and  C_3
REMARK    2  A    between atoms: C_3  and  N_4
REMARK    3  A    between atoms: C_7  and  C_8
REMARK    4  A    between atoms: C_14  and  C_15
REMARK                            x       y       z     vdW  Elec       q    Type
REMARK                         _______ _______ _______ _____ _____    ______ ____
ROOT
ATOM      1  N   UNL     1       4.213   4.156  16.761  0.00  0.00    +0.000 N 
ATOM      2  C   UNL     1       5.392   3.625  16.304  0.00  0.00    +0.000 A 
ATOM      3  N   UNL     1       6.419   4.370  16.621  0.00  0.00    +0.000 NA
ATOM      4  C   UNL     1       5.894   5.439  17.322  0.00  0.00    +0.000 A 
ATOM      5  C   UNL     1       4.500   5.349  17.414  0.00  0.00    +0.000 A 
ENDROOT
BRANCH   4   6
ATOM      6  C   UNL     1       6.754   6.523  17.795  0.00  0.00    +0.000 A 
ATOM      7  C   UNL     1       7.679   6.280  18.822  0.00  0.00    +0.000 A 
ATOM      8  C   UNL     1       8.612   7.258  19.187  0.00  0.00    +0.000 A 
ATOM      9  C   UNL     1       8.636   8.483  18.526  0.00  0.00    +0.000 A 
ATOM     10  C   UNL     1       7.687   8.758  17.545  0.00  0.00    +0.000 A 
ATOM     11  C   UNL     1       6.729   7.796  17.212  0.00  0.00    +0.000 A 
ENDBRANCH   4   6
BRANCH   5  12
ATOM     12  C   UNL     1       3.508   6.280  17.989  0.00  0.00    +0.000 A 
ATOM     13  C   UNL     1       2.990   7.324  17.204  0.00  0.00    +0.000 A 
ATOM     14  C   UNL     1       2.189   8.324  17.763  0.00  0.00    +0.000 A 
ATOM     15  C   UNL     1       1.815   8.247  19.100  0.00  0.00    +0.000 A 
ATOM     16  C   UNL     1       2.262   7.182  19.878  0.00  0.00    +0.000 A 
ATOM     17  C   UNL     1       3.127   6.226  19.334  0.00  0.00    +0.000 A 
ENDBRANCH   5  12
BRANCH   1  18
ATOM     18  C   UNL     1       2.936   3.457  16.635  0.00  0.00    +0.000 C 
BRANCH  18  20
ATOM     19  O   UNL     1       0.897   3.951  17.799  0.00  0.00    +0.000 OA
ATOM     20  C   UNL     1       2.051   3.524  17.871  0.00  0.00    +0.000 C 
ATOM     21  N   UNL     1       2.577   3.043  19.071  0.00  0.00    +0.000 N 
ATOM     22  C   UNL     1       1.673   3.004  20.227  0.00  0.00    +0.000 C 
ATOM     23  C   UNL     1       2.433   3.025  21.557  0.00  0.00    +0.000 C 
ATOM     24  O   UNL     1       3.426   1.990  21.601  0.00  0.00    +0.000 OA
ATOM     25  C   UNL     1       4.380   2.172  20.547  0.00  0.00    +0.000 C 
ATOM     26  C   UNL     1       3.705   2.104  19.171  0.00  0.00    +0.000 C 
ENDBRANCH  18  20
ENDBRANCH   1  18
TORSDOF 4
ENDMDL
MODEL 9
REMARK VINA RESULT:      -7.3      1.239      1.877
REMARK  Name = 
REMARK  4 active torsions:
REMARK  status: ('A' for Active; 'I' for Inactive)
REMARK    1  A    between atoms: C_2  and  C_3
REMARK    2  A    between atoms: C_3  and  N_4
REMARK    3  A    between atoms: C_7  and  C_8
REMARK    4  A    between atoms: C_14  and  C_15
REMARK                            x       y       z     vdW  Elec       q    Type
REMARK                         _______ _______ _______ _____ _____    ______ ____
ROOT
ATOM      1  N   UNL     1       3.960   5.966  17.987  0.00  0.00    +0.000 N 
ATOM      2  C   UNL     1       4.226   7.194  17.438  0.00  0.00    +0.000 A 
ATOM      3  N   UNL     1       3.444   8.125  17.920  0.00  0.00    +0.000 NA
ATOM      4  C   UNL     1       2.628   7.482  18.831  0.00  0.00    +0.000 A 
ATOM      5  C   UNL     1       2.910   6.112  18.887  0.00  0.00    +0.000 A 
ENDROOT
BRANCH   4   6
ATOM      6  C   UNL     1       1.572   8.208  19.538  0.00  0.00    +0.000 A 
ATOM      7  C   UNL     1       1.353   7.964  20.902  0.00  0.00    +0.000 A 
ATOM      8  C   UNL     1       0.453   8.750  21.631  0.00  0.00    +0.000 A 
ATOM      9  C   UNL     1      -0.230   9.791  21.007  0.00  0.00    +0.000 A 
ATOM     10  C   UNL     1      -0.065  10.006  19.642  0.00  0.00    +0.000 A 
ATOM     11  C   UNL     1       0.801   9.192  18.907  0.00  0.00    +0.000 A 
ENDBRANCH   4   6
BRANCH   5  12
ATOM     12  C   UNL     1       2.259   5.022  19.639  0.00  0.00    +0.000 A 
ATOM     13  C   UNL     1       2.627   4.771  20.972  0.00  0.00    +0.000 A 
ATOM     14  C   UNL     1       2.163   3.643  21.654  0.00  0.00    +0.000 A 
ATOM     15  C   UNL     1       1.247   2.792  21.045  0.00  0.00    +0.000 A 
ATOM     16  C   UNL     1       0.817   3.061  19.749  0.00  0.00    +0.000 A 
ATOM     17  C   UNL     1       1.343   4.148  19.042  0.00  0.00    +0.000 A 
ENDBRANCH   5  12
BRANCH   1  18
ATOM     18  C   UNL     1       4.770   4.785  17.698  0.00  0.00    +0.000 C 
BRANCH  18  20
ATOM     19  O   UNL     1       3.445   3.480  16.181  0.00  0.00    +0.000 OA
ATOM     20  C   UNL     1       4.479   4.129  16.357  0.00  0.00    +0.000 C 
ATOM     21  N   UNL     1       5.399   4.326  15.326  0.00  0.00    +0.000 N 
ATOM     22  C   UNL     1       5.046   3.787  14.006  0.00  0.00    +0.000 C 
ATOM     23  C   UNL     1       6.282   3.539  13.134  0.00  0.00    +0.000 C 
ATOM     24  O   UNL     1       7.098   4.716  13.048  0.00  0.00    +0.000 OA
ATOM     25  C   UNL     1       7.551   5.103  14.351  0.00  0.00    +0.000 C 
ATOM     26  C   UNL     1       6.369   5.430  15.274  0.00  0.00    +0.000 C 
ENDBRANCH  18  20
ENDBRANCH   1  18
TORSDOF 4
ENDMDL
