MODEL 1
REMARK VINA RESULT:      -9.8      0.000      0.000
REMARK  Name = 
REMARK  7 active torsions:
REMARK  status: ('A' for Active; 'I' for Inactive)
REMARK    1  A    between atoms: C_1  and  C_2
REMARK    2  A    between atoms: C_2  and  C_3
REMARK    3  A    between atoms: N_5  and  C_6
REMARK    4  A    between atoms: C_6  and  C_7
REMARK    5  A    between atoms: N_19  and  C_20
REMARK    6  A    between atoms: C_20  and  C_21
REMARK    7  A    between atoms: C_24  and  C_25
REMARK                            x       y       z     vdW  Elec       q    Type
REMARK                         _______ _______ _______ _____ _____    ______ ____
ROOT
ATOM      1  C   UNL     1       1.312   4.636  17.738  0.00  0.00    +0.000 C 
ATOM      2  C   UNL     1       2.061   3.818  18.800  0.00  0.00    +0.000 C 
ATOM      3  C   UNL     1       1.570   2.333  18.678  0.00  0.00    +0.000 C 
ATOM      4  C   UNL     1       3.043   1.950  18.794  0.00  0.00    +0.000 C 
ATOM      5  N   UNL     1       3.402   3.309  18.317  0.00  0.00    +0.000 NA
ENDROOT
BRANCH   2   6
ATOM      6  C   UNL     1       1.955   4.421  20.277  0.00  0.00    +0.000 C 
ATOM      7  O   UNL     1       1.553   3.788  21.260  0.00  0.00    +0.000 OA
ATOM      8  N   UNL     1       2.316   5.727  20.516  0.00  0.00    +0.000 N 
ATOM      9  H   UNL     1       2.205   6.007  21.483  0.00  0.00    +0.000 HD
BRANCH   8  10
ATOM     10  C   UNL     1       2.904   6.684  19.610  0.00  0.00    +0.000 C 
BRANCH  10  11
ATOM     11  C   UNL     1       2.019   7.836  19.229  0.00  0.00    +0.000 A 
ATOM     12  C   UNL     1       1.898   8.231  17.885  0.00  0.00    +0.000 A 
ATOM     13  C   UNL     1       1.123   9.327  17.533  0.00  0.00    +0.000 A 
ATOM     14  C   UNL     1       0.457  10.045  18.522  0.00  0.00    +0.000 A 
ATOM     15  C   UNL     1       0.578   9.697  19.877  0.00  0.00    +0.000 A 
ATOM     16  C   UNL     1      -0.085  10.445  20.864  0.00  0.00    +0.000 A 
ATOM     17  C   UNL     1       0.045  10.134  22.217  0.00  0.00    +0.000 A 
ATOM     18  C   UNL     1       0.855   9.078  22.606  0.00  0.00    +0.000 A 
ATOM     19  C   UNL     1       1.517   8.324  21.638  0.00  0.00    +0.000 A 
ATOM     20  C   UNL     1       1.382   8.597  20.252  0.00  0.00    +0.000 A 
ENDBRANCH  10  11
ENDBRANCH   8  10
ENDBRANCH   2   6
BRANCH   5  21
ATOM     21  C   UNL     1       4.577   3.769  19.070  0.00  0.00    +0.000 C 
BRANCH  21  22
ATOM     22  C   UNL     1       5.552   4.472  18.192  0.00  0.00    +0.000 A 
ATOM     23  C   UNL     1       6.557   5.379  18.441  0.00  0.00    +0.000 A 
ATOM     24  C   UNL     1       7.138   5.672  17.187  0.00  0.00    +0.000 A 
ATOM     25  C   UNL     1       6.485   4.894  16.249  0.00  0.00    +0.000 A 
ATOM     26  O   UNL     1       5.508   4.166  16.867  0.00  0.00    +0.000 OA
BRANCH  25  27
ATOM     27  C   UNL     1       6.649   4.682  14.814  0.00  0.00    +0.000 A 
ATOM     28  C   UNL     1       7.636   5.382  14.106  0.00  0.00    +0.000 A 
ATOM     29  C   UNL     1       7.843   5.150  12.742  0.00  0.00    +0.000 A 
ATOM     30  C   UNL     1       7.067   4.214  12.071  0.00  0.00    +0.000 A 
ATOM     31  C   UNL     1       6.071   3.519  12.752  0.00  0.00    +0.000 A 
ATOM     32  C   UNL     1       5.860   3.754  14.114  0.00  0.00    +0.000 A 
ENDBRANCH  25  27
ENDBRANCH  21  22
ENDBRANCH   5  21
TORSDOF 6
ENDMDL
MODEL 2
REMARK VINA RESULT:      -9.4      0.758      1.927
REMARK  Name = 
REMARK  7 active torsions:
REMARK  status: ('A' for Active; 'I' for Inactive)
REMARK    1  A    between atoms: C_1  and  C_2
REMARK    2  A    between atoms: C_2  and  C_3
REMARK    3  A    between atoms: N_5  and  C_6
REMARK    4  A    between atoms: C_6  and  C_7
REMARK    5  A    between atoms: N_19  and  C_20
REMARK    6  A    between atoms: C_20  and  C_21
REMARK    7  A    between atoms: C_24  and  C_25
REMARK                            x       y       z     vdW  Elec       q    Type
REMARK                         _______ _______ _______ _____ _____    ______ ____
ROOT
ATOM      1  C   UNL     1       1.343   4.318  18.239  0.00  0.00    +0.000 C 
ATOM      2  C   UNL     1       2.384   3.651  19.149  0.00  0.00    +0.000 C 
ATOM      3  C   UNL     1       2.251   2.100  18.954  0.00  0.00    +0.000 C 
ATOM      4  C   UNL     1       3.775   2.085  18.889  0.00  0.00    +0.000 C 
ATOM      5  N   UNL     1       3.742   3.516  18.494  0.00  0.00    +0.000 NA
ENDROOT
BRANCH   2   6
ATOM      6  C   UNL     1       2.312   4.124  20.675  0.00  0.00    +0.000 C 
ATOM      7  O   UNL     1       2.359   3.358  21.645  0.00  0.00    +0.000 OA
ATOM      8  N   UNL     1       2.179   5.460  20.976  0.00  0.00    +0.000 N 
ATOM      9  H   UNL     1       2.137   5.648  21.970  0.00  0.00    +0.000 HD
BRANCH   8  10
ATOM     10  C   UNL     1       2.188   6.595  20.085  0.00  0.00    +0.000 C 
BRANCH  10  11
ATOM     11  C   UNL     1       1.413   7.790  20.559  0.00  0.00    +0.000 A 
ATOM     12  C   UNL     1       0.629   7.719  21.724  0.00  0.00    +0.000 A 
ATOM     13  C   UNL     1      -0.131   8.804  22.138  0.00  0.00    +0.000 A 
ATOM     14  C   UNL     1      -0.117   9.979  21.391  0.00  0.00    +0.000 A 
ATOM     15  C   UNL     1       0.631  10.077  20.207  0.00  0.00    +0.000 A 
ATOM     16  C   UNL     1       0.617  11.262  19.454  0.00  0.00    +0.000 A 
ATOM     17  C   UNL     1       1.330  11.371  18.261  0.00  0.00    +0.000 A 
ATOM     18  C   UNL     1       2.057  10.287  17.792  0.00  0.00    +0.000 A 
ATOM     19  C   UNL     1       2.082   9.103  18.529  0.00  0.00    +0.000 A 
ATOM     20  C   UNL     1       1.392   8.972  19.762  0.00  0.00    +0.000 A 
ENDBRANCH  10  11
ENDBRANCH   8  10
ENDBRANCH   2   6
BRANCH   5  21
ATOM     21  C   UNL     1       4.853   4.207  19.162  0.00  0.00    +0.000 C 
BRANCH  21  22
ATOM     22  C   UNL     1       5.780   4.833  18.179  0.00  0.00    +0.000 A 
ATOM     23  C   UNL     1       6.800   5.750  18.301  0.00  0.00    +0.000 A 
ATOM     24  C   UNL     1       7.310   5.942  16.999  0.00  0.00    +0.000 A 
ATOM     25  C   UNL     1       6.604   5.099  16.161  0.00  0.00    +0.000 A 
ATOM     26  O   UNL     1       5.660   4.428  16.886  0.00  0.00    +0.000 OA
BRANCH  25  27
ATOM     27  C   UNL     1       6.687   4.776  14.739  0.00  0.00    +0.000 A 
ATOM     28  C   UNL     1       7.630   5.418  13.924  0.00  0.00    +0.000 A 
ATOM     29  C   UNL     1       7.760   5.081  12.573  0.00  0.00    +0.000 A 
ATOM     30  C   UNL     1       6.950   4.097  12.021  0.00  0.00    +0.000 A 
ATOM     31  C   UNL     1       5.996   3.459  12.810  0.00  0.00    +0.000 A 
ATOM     32  C   UNL     1       5.862   3.799  14.159  0.00  0.00    +0.000 A 
ENDBRANCH  25  27
ENDBRANCH  21  22
ENDBRANCH   5  21
TORSDOF 6
ENDMDL
MODEL 3
REMARK VINA RESULT:      -8.8      0.971      2.274
REMARK  Name = 
REMARK  7 active torsions:
REMARK  status: ('A' for Active; 'I' for Inactive)
REMARK    1  A    between atoms: C_1  and  C_2
REMARK    2  A    between atoms: C_2  and  C_3
REMARK    3  A    between atoms: N_5  and  C_6
REMARK    4  A    between atoms: C_6  and  C_7
REMARK    5  A    between atoms: N_19  and  C_20
REMARK    6  A    between atoms: C_20  and  C_21
REMARK    7  A    between atoms: C_24  and  C_25
REMARK                            x       y       z     vdW  Elec       q    Type
REMARK                         _______ _______ _______ _____ _____    ______ ____
ROOT
ATOM      1  C   UNL     1       1.223   3.389  18.704  0.00  0.00    +0.000 C 
ATOM      2  C   UNL     1       2.491   3.212  19.550  0.00  0.00    +0.000 C 
ATOM      3  C   UNL     1       2.826   1.680  19.579  0.00  0.00    +0.000 C 
ATOM      4  C   UNL     1       4.270   2.099  19.319  0.00  0.00    +0.000 C 
ATOM      5  N   UNL     1       3.765   3.373  18.748  0.00  0.00    +0.000 NA
ENDROOT
BRANCH   2   6
ATOM      6  C   UNL     1       2.407   3.888  20.997  0.00  0.00    +0.000 C 
ATOM      7  O   UNL     1       2.512   3.268  22.063  0.00  0.00    +0.000 OA
ATOM      8  N   UNL     1       2.194   5.242  21.114  0.00  0.00    +0.000 N 
ATOM      9  H   UNL     1       2.152   5.564  22.073  0.00  0.00    +0.000 HD
BRANCH   8  10
ATOM     10  C   UNL     1       2.124   6.241  20.074  0.00  0.00    +0.000 C 
BRANCH  10  11
ATOM     11  C   UNL     1       1.554   7.565  20.493  0.00  0.00    +0.000 A 
ATOM     12  C   UNL     1       0.866   7.694  21.713  0.00  0.00    +0.000 A 
ATOM     13  C   UNL     1       0.292   8.903  22.081  0.00  0.00    +0.000 A 
ATOM     14  C   UNL     1       0.397  10.002  21.233  0.00  0.00    +0.000 A 
ATOM     15  C   UNL     1       1.052   9.902  19.995  0.00  0.00    +0.000 A 
ATOM     16  C   UNL     1       1.132  11.015  19.143  0.00  0.00    +0.000 A 
ATOM     17  C   UNL     1       1.752  10.930  17.897  0.00  0.00    +0.000 A 
ATOM     18  C   UNL     1       2.288   9.723  17.476  0.00  0.00    +0.000 A 
ATOM     19  C   UNL     1       2.220   8.609  18.312  0.00  0.00    +0.000 A 
ATOM     20  C   UNL     1       1.622   8.672  19.597  0.00  0.00    +0.000 A 
ENDBRANCH  10  11
ENDBRANCH   8  10
ENDBRANCH   2   6
BRANCH   5  21
ATOM     21  C   UNL     1       4.662   4.458  19.169  0.00  0.00    +0.000 C 
BRANCH  21  22
ATOM     22  C   UNL     1       5.151   5.248  18.006  0.00  0.00    +0.000 A 
ATOM     23  C   UNL     1       5.444   6.582  17.833  0.00  0.00    +0.000 A 
ATOM     24  C   UNL     1       5.874   6.717  16.495  0.00  0.00    +0.000 A 
ATOM     25  C   UNL     1       5.863   5.452  15.939  0.00  0.00    +0.000 A 
ATOM     26  O   UNL     1       5.410   4.555  16.864  0.00  0.00    +0.000 OA
BRANCH  25  27
ATOM     27  C   UNL     1       6.250   4.909  14.639  0.00  0.00    +0.000 A 
ATOM     28  C   UNL     1       5.412   4.002  13.976  0.00  0.00    +0.000 A 
ATOM     29  C   UNL     1       5.740   3.515  12.706  0.00  0.00    +0.000 A 
ATOM     30  C   UNL     1       6.910   3.933  12.084  0.00  0.00    +0.000 A 
ATOM     31  C   UNL     1       7.764   4.821  12.732  0.00  0.00    +0.000 A 
ATOM     32  C   UNL     1       7.439   5.304  14.003  0.00  0.00    +0.000 A 
ENDBRANCH  25  27
ENDBRANCH  21  22
ENDBRANCH   5  21
TORSDOF 6
ENDMDL
MODEL 4
REMARK VINA RESULT:      -8.8      1.587      7.353
REMARK  Name = 
REMARK  7 active torsions:
REMARK  status: ('A' for Active; 'I' for Inactive)
REMARK    1  A    between atoms: C_1  and  C_2
REMARK    2  A    between atoms: C_2  and  C_3
REMARK    3  A    between atoms: N_5  and  C_6
REMARK    4  A    between atoms: C_6  and  C_7
REMARK    5  A    between atoms: N_19  and  C_20
REMARK    6  A    between atoms: C_20  and  C_21
REMARK    7  A    between atoms: C_24  and  C_25
REMARK                            x       y       z     vdW  Elec       q    Type
REMARK                         _______ _______ _______ _____ _____    ______ ____
ROOT
ATOM      1  C   UNL     1       2.626   3.202  21.330  0.00  0.00    +0.000 C 
ATOM      2  C   UNL     1       2.409   2.891  19.842  0.00  0.00    +0.000 C 
ATOM      3  C   UNL     1       1.086   2.056  19.727  0.00  0.00    +0.000 C 
ATOM      4  C   UNL     1       0.740   2.967  18.553  0.00  0.00    +0.000 C 
ATOM      5  N   UNL     1       1.662   3.987  19.112  0.00  0.00    +0.000 NA
ENDROOT
BRANCH   2   6
ATOM      6  C   UNL     1       3.670   2.216  19.129  0.00  0.00    +0.000 C 
ATOM      7  O   UNL     1       3.645   1.117  18.563  0.00  0.00    +0.000 OA
ATOM      8  N   UNL     1       4.887   2.858  19.128  0.00  0.00    +0.000 N 
ATOM      9  H   UNL     1       5.618   2.341  18.655  0.00  0.00    +0.000 HD
BRANCH   8  10
ATOM     10  C   UNL     1       5.216   4.176  19.616  0.00  0.00    +0.000 C 
BRANCH  10  11
ATOM     11  C   UNL     1       6.143   4.972  18.743  0.00  0.00    +0.000 A 
ATOM     12  C   UNL     1       7.014   5.922  19.304  0.00  0.00    +0.000 A 
ATOM     13  C   UNL     1       7.836   6.697  18.497  0.00  0.00    +0.000 A 
ATOM     14  C   UNL     1       7.797   6.532  17.115  0.00  0.00    +0.000 A 
ATOM     15  C   UNL     1       6.919   5.614  16.518  0.00  0.00    +0.000 A 
ATOM     16  C   UNL     1       6.878   5.475  15.122  0.00  0.00    +0.000 A 
ATOM     17  C   UNL     1       5.993   4.589  14.507  0.00  0.00    +0.000 A 
ATOM     18  C   UNL     1       5.121   3.839  15.282  0.00  0.00    +0.000 A 
ATOM     19  C   UNL     1       5.152   3.964  16.671  0.00  0.00    +0.000 A 
ATOM     20  C   UNL     1       6.061   4.834  17.326  0.00  0.00    +0.000 A 
ENDBRANCH  10  11
ENDBRANCH   8  10
ENDBRANCH   2   6
BRANCH   5  21
ATOM     21  C   UNL     1       2.378   4.625  17.998  0.00  0.00    +0.000 C 
BRANCH  21  22
ATOM     22  C   UNL     1       2.472   6.099  18.178  0.00  0.00    +0.000 A 
ATOM     23  C   UNL     1       3.122   7.092  17.481  0.00  0.00    +0.000 A 
ATOM     24  C   UNL     1       2.819   8.300  18.147  0.00  0.00    +0.000 A 
ATOM     25  C   UNL     1       1.965   7.984  19.186  0.00  0.00    +0.000 A 
ATOM     26  O   UNL     1       1.762   6.633  19.210  0.00  0.00    +0.000 OA
BRANCH  25  27
ATOM     27  C   UNL     1       1.250   8.769  20.189  0.00  0.00    +0.000 A 
ATOM     28  C   UNL     1       0.450   9.852  19.797  0.00  0.00    +0.000 A 
ATOM     29  C   UNL     1      -0.286  10.579  20.738  0.00  0.00    +0.000 A 
ATOM     30  C   UNL     1      -0.233  10.231  22.082  0.00  0.00    +0.000 A 
ATOM     31  C   UNL     1       0.568   9.169  22.493  0.00  0.00    +0.000 A 
ATOM     32  C   UNL     1       1.308   8.444  21.554  0.00  0.00    +0.000 A 
ENDBRANCH  25  27
ENDBRANCH  21  22
ENDBRANCH   5  21
TORSDOF 6
ENDMDL
MODEL 5
REMARK VINA RESULT:      -8.5      1.881      7.500
REMARK  Name = 
REMARK  7 active torsions:
REMARK  status: ('A' for Active; 'I' for Inactive)
REMARK    1  A    between atoms: C_1  and  C_2
REMARK    2  A    between atoms: C_2  and  C_3
REMARK    3  A    between atoms: N_5  and  C_6
REMARK    4  A    between atoms: C_6  and  C_7
REMARK    5  A    between atoms: N_19  and  C_20
REMARK    6  A    between atoms: C_20  and  C_21
REMARK    7  A    between atoms: C_24  and  C_25
REMARK                            x       y       z     vdW  Elec       q    Type
REMARK                         _______ _______ _______ _____ _____    ______ ____
ROOT
ATOM      1  C   UNL     1       3.683   2.918  20.802  0.00  0.00    +0.000 C 
ATOM      2  C   UNL     1       2.508   3.384  19.932  0.00  0.00    +0.000 C 
ATOM      3  C   UNL     1       1.218   3.338  20.823  0.00  0.00    +0.000 C 
ATOM      4  C   UNL     1       0.890   4.705  20.231  0.00  0.00    +0.000 C 
ATOM      5  N   UNL     1       2.332   4.887  19.930  0.00  0.00    +0.000 NA
ENDROOT
BRANCH   2   6
ATOM      6  C   UNL     1       2.371   2.594  18.547  0.00  0.00    +0.000 C 
ATOM      7  O   UNL     1       1.308   2.145  18.104  0.00  0.00    +0.000 OA
ATOM      8  N   UNL     1       3.485   2.368  17.771  0.00  0.00    +0.000 N 
ATOM      9  H   UNL     1       3.287   1.855  16.920  0.00  0.00    +0.000 HD
BRANCH   8  10
ATOM     10  C   UNL     1       4.835   2.839  17.964  0.00  0.00    +0.000 C 
BRANCH  10  11
ATOM     11  C   UNL     1       5.230   4.020  17.125  0.00  0.00    +0.000 A 
ATOM     12  C   UNL     1       4.764   4.147  15.804  0.00  0.00    +0.000 A 
ATOM     13  C   UNL     1       5.167   5.209  15.007  0.00  0.00    +0.000 A 
ATOM     14  C   UNL     1       6.043   6.161  15.520  0.00  0.00    +0.000 A 
ATOM     15  C   UNL     1       6.551   6.052  16.825  0.00  0.00    +0.000 A 
ATOM     16  C   UNL     1       7.450   7.010  17.320  0.00  0.00    +0.000 A 
ATOM     17  C   UNL     1       7.988   6.904  18.602  0.00  0.00    +0.000 A 
ATOM     18  C   UNL     1       7.647   5.826  19.405  0.00  0.00    +0.000 A 
ATOM     19  C   UNL     1       6.754   4.867  18.928  0.00  0.00    +0.000 A 
ATOM     20  C   UNL     1       6.166   4.963  17.640  0.00  0.00    +0.000 A 
ENDBRANCH  10  11
ENDBRANCH   8  10
ENDBRANCH   2   6
BRANCH   5  21
ATOM     21  C   UNL     1       2.453   5.551  18.624  0.00  0.00    +0.000 C 
BRANCH  21  22
ATOM     22  C   UNL     1       2.246   7.021  18.734  0.00  0.00    +0.000 A 
ATOM     23  C   UNL     1       2.548   8.077  17.905  0.00  0.00    +0.000 A 
ATOM     24  C   UNL     1       2.092   9.238  18.568  0.00  0.00    +0.000 A 
ATOM     25  C   UNL     1       1.497   8.822  19.744  0.00  0.00    +0.000 A 
ATOM     26  O   UNL     1       1.601   7.463  19.848  0.00  0.00    +0.000 OA
BRANCH  25  27
ATOM     27  C   UNL     1       0.787   9.506  20.821  0.00  0.00    +0.000 A 
ATOM     28  C   UNL     1       0.395  10.843  20.669  0.00  0.00    +0.000 A 
ATOM     29  C   UNL     1      -0.335  11.497  21.667  0.00  0.00    +0.000 A 
ATOM     30  C   UNL     1      -0.683  10.820  22.829  0.00  0.00    +0.000 A 
ATOM     31  C   UNL     1      -0.290   9.496  23.007  0.00  0.00    +0.000 A 
ATOM     32  C   UNL     1       0.444   8.844  22.011  0.00  0.00    +0.000 A 
ENDBRANCH  25  27
ENDBRANCH  21  22
ENDBRANCH   5  21
TORSDOF 6
ENDMDL
MODEL 6
REMARK VINA RESULT:      -8.3      1.186      2.538
REMARK  Name = 
REMARK  7 active torsions:
REMARK  status: ('A' for Active; 'I' for Inactive)
REMARK    1  A    between atoms: C_1  and  C_2
REMARK    2  A    between atoms: C_2  and  C_3
REMARK    3  A    between atoms: N_5  and  C_6
REMARK    4  A    between atoms: C_6  and  C_7
REMARK    5  A    between atoms: N_19  and  C_20
REMARK    6  A    between atoms: C_20  and  C_21
REMARK    7  A    between atoms: C_24  and  C_25
REMARK                            x       y       z     vdW  Elec       q    Type
REMARK                         _______ _______ _______ _____ _____    ______ ____
ROOT
ATOM      1  C   UNL     1       1.827   7.148  17.927  0.00  0.00    +0.000 C 
ATOM      2  C   UNL     1       2.187   5.819  18.606  0.00  0.00    +0.000 C 
ATOM      3  C   UNL     1       1.261   4.712  17.990  0.00  0.00    +0.000 C 
ATOM      4  C   UNL     1       2.521   3.855  17.909  0.00  0.00    +0.000 C 
ATOM      5  N   UNL     1       3.332   5.099  17.925  0.00  0.00    +0.000 NA
ENDROOT
BRANCH   2   6
ATOM      6  C   UNL     1       2.160   5.877  20.204  0.00  0.00    +0.000 C 
ATOM      7  O   UNL     1       2.423   4.919  20.940  0.00  0.00    +0.000 OA
ATOM      8  N   UNL     1       1.816   7.045  20.845  0.00  0.00    +0.000 N 
ATOM      9  H   UNL     1       1.825   6.970  21.855  0.00  0.00    +0.000 HD
BRANCH   8  10
ATOM     10  C   UNL     1       1.549   8.345  20.278  0.00  0.00    +0.000 C 
BRANCH  10  11
ATOM     11  C   UNL     1       0.695   9.250  21.118  0.00  0.00    +0.000 A 
ATOM     12  C   UNL     1       0.573   9.035  22.503  0.00  0.00    +0.000 A 
ATOM     13  C   UNL     1      -0.256   9.835  23.276  0.00  0.00    +0.000 A 
ATOM     14  C   UNL     1      -0.977  10.864  22.675  0.00  0.00    +0.000 A 
ATOM     15  C   UNL     1      -0.902  11.089  21.291  0.00  0.00    +0.000 A 
ATOM     16  C   UNL     1      -1.651  12.117  20.697  0.00  0.00    +0.000 A 
ATOM     17  C   UNL     1      -1.613  12.340  19.321  0.00  0.00    +0.000 A 
ATOM     18  C   UNL     1      -0.836  11.523  18.513  0.00  0.00    +0.000 A 
ATOM     19  C   UNL     1      -0.084  10.499  19.088  0.00  0.00    +0.000 A 
ATOM     20  C   UNL     1      -0.078  10.267  20.488  0.00  0.00    +0.000 A 
ENDBRANCH  10  11
ENDBRANCH   8  10
ENDBRANCH   2   6
BRANCH   5  21
ATOM     21  C   UNL     1       4.527   4.862  18.747  0.00  0.00    +0.000 C 
BRANCH  21  22
ATOM     22  C   UNL     1       5.756   4.766  17.914  0.00  0.00    +0.000 A 
ATOM     23  C   UNL     1       7.094   4.664  18.221  0.00  0.00    +0.000 A 
ATOM     24  C   UNL     1       7.775   4.603  16.985  0.00  0.00    +0.000 A 
ATOM     25  C   UNL     1       6.812   4.626  15.993  0.00  0.00    +0.000 A 
ATOM     26  O   UNL     1       5.576   4.736  16.565  0.00  0.00    +0.000 OA
BRANCH  25  27
ATOM     27  C   UNL     1       6.851   4.526  14.536  0.00  0.00    +0.000 A 
ATOM     28  C   UNL     1       7.717   5.345  13.798  0.00  0.00    +0.000 A 
ATOM     29  C   UNL     1       7.808   5.224  12.407  0.00  0.00    +0.000 A 
ATOM     30  C   UNL     1       7.035   4.282  11.740  0.00  0.00    +0.000 A 
ATOM     31  C   UNL     1       6.157   3.471  12.454  0.00  0.00    +0.000 A 
ATOM     32  C   UNL     1       6.062   3.595  13.843  0.00  0.00    +0.000 A 
ENDBRANCH  25  27
ENDBRANCH  21  22
ENDBRANCH   5  21
TORSDOF 6
ENDMDL
MODEL 7
REMARK VINA RESULT:      -8.3      6.060     10.602
REMARK  Name = 
REMARK  7 active torsions:
REMARK  status: ('A' for Active; 'I' for Inactive)
REMARK    1  A    between atoms: C_1  and  C_2
REMARK    2  A    between atoms: C_2  and  C_3
REMARK    3  A    between atoms: N_5  and  C_6
REMARK    4  A    between atoms: C_6  and  C_7
REMARK    5  A    between atoms: N_19  and  C_20
REMARK    6  A    between atoms: C_20  and  C_21
REMARK    7  A    between atoms: C_24  and  C_25
REMARK                            x       y       z     vdW  Elec       q    Type
REMARK                         _______ _______ _______ _____ _____    ______ ____
ROOT
ATOM      1  C   UNL     1      -0.470  15.229  19.558  0.00  0.00    +0.000 C 
ATOM      2  C   UNL     1      -1.099  15.430  20.944  0.00  0.00    +0.000 C 
ATOM      3  C   UNL     1      -1.207  16.975  21.189  0.00  0.00    +0.000 C 
ATOM      4  C   UNL     1      -2.615  16.687  21.702  0.00  0.00    +0.000 C 
ATOM      5  N   UNL     1      -2.612  15.430  20.912  0.00  0.00    +0.000 NA
ENDROOT
BRANCH   2   6
ATOM      6  C   UNL     1      -0.357  14.634  22.116  0.00  0.00    +0.000 C 
ATOM      7  O   UNL     1      -0.069  15.121  23.215  0.00  0.00    +0.000 OA
ATOM      8  N   UNL     1       0.013  13.322  21.930  0.00  0.00    +0.000 N 
ATOM      9  H   UNL     1       0.481  12.916  22.731  0.00  0.00    +0.000 HD
BRANCH   8  10
ATOM     10  C   UNL     1      -0.259  12.453  20.810  0.00  0.00    +0.000 C 
BRANCH  10  11
ATOM     11  C   UNL     1       0.046  11.000  21.035  0.00  0.00    +0.000 A 
ATOM     12  C   UNL     1      -0.280  10.382  22.255  0.00  0.00    +0.000 A 
ATOM     13  C   UNL     1       0.046   9.053  22.488  0.00  0.00    +0.000 A 
ATOM     14  C   UNL     1       0.704   8.322  21.503  0.00  0.00    +0.000 A 
ATOM     15  C   UNL     1       1.070   8.915  20.283  0.00  0.00    +0.000 A 
ATOM     16  C   UNL     1       1.752   8.170  19.308  0.00  0.00    +0.000 A 
ATOM     17  C   UNL     1       2.150   8.746  18.102  0.00  0.00    +0.000 A 
ATOM     18  C   UNL     1       1.887  10.086  17.860  0.00  0.00    +0.000 A 
ATOM     19  C   UNL     1       1.208  10.839  18.818  0.00  0.00    +0.000 A 
ATOM     20  C   UNL     1       0.764  10.273  20.041  0.00  0.00    +0.000 A 
ENDBRANCH  10  11
ENDBRANCH   8  10
ENDBRANCH   2   6
BRANCH   5  21
ATOM     21  C   UNL     1      -3.276  14.384  21.703  0.00  0.00    +0.000 C 
BRANCH  21  22
ATOM     22  C   UNL     1      -4.031  13.438  20.838  0.00  0.00    +0.000 A 
ATOM     23  C   UNL     1      -5.354  13.059  20.789  0.00  0.00    +0.000 A 
ATOM     24  C   UNL     1      -5.454  12.124  19.736  0.00  0.00    +0.000 A 
ATOM     25  C   UNL     1      -4.198  12.017  19.171  0.00  0.00    +0.000 A 
ATOM     26  O   UNL     1      -3.325  12.816  19.854  0.00  0.00    +0.000 OA
BRANCH  25  27
ATOM     27  C   UNL     1      -3.655  11.286  18.029  0.00  0.00    +0.000 A 
ATOM     28  C   UNL     1      -4.286  11.362  16.779  0.00  0.00    +0.000 A 
ATOM     29  C   UNL     1      -3.749  10.714  15.662  0.00  0.00    +0.000 A 
ATOM     30  C   UNL     1      -2.574   9.983  15.782  0.00  0.00    +0.000 A 
ATOM     31  C   UNL     1      -1.941   9.881  17.018  0.00  0.00    +0.000 A 
ATOM     32  C   UNL     1      -2.480  10.525  18.136  0.00  0.00    +0.000 A 
ENDBRANCH  25  27
ENDBRANCH  21  22
ENDBRANCH   5  21
TORSDOF 6
ENDMDL
MODEL 8
REMARK VINA RESULT:      -8.3      1.538      8.128
REMARK  Name = 
REMARK  7 active torsions:
REMARK  status: ('A' for Active; 'I' for Inactive)
REMARK    1  A    between atoms: C_1  and  C_2
REMARK    2  A    between atoms: C_2  and  C_3
REMARK    3  A    between atoms: N_5  and  C_6
REMARK    4  A    between atoms: C_6  and  C_7
REMARK    5  A    between atoms: N_19  and  C_20
REMARK    6  A    between atoms: C_20  and  C_21
REMARK    7  A    between atoms: C_24  and  C_25
REMARK                            x       y       z     vdW  Elec       q    Type
REMARK                         _______ _______ _______ _____ _____    ______ ____
ROOT
ATOM      1  C   UNL     1       0.387   3.218  19.790  0.00  0.00    +0.000 C 
ATOM      2  C   UNL     1       1.779   3.702  19.360  0.00  0.00    +0.000 C 
ATOM      3  C   UNL     1       1.993   3.249  17.873  0.00  0.00    +0.000 C 
ATOM      4  C   UNL     1       2.536   4.655  17.636  0.00  0.00    +0.000 C 
ATOM      5  N   UNL     1       1.773   5.117  18.823  0.00  0.00    +0.000 NA
ENDROOT
BRANCH   2   6
ATOM      6  C   UNL     1       2.955   3.262  20.351  0.00  0.00    +0.000 C 
ATOM      7  O   UNL     1       2.816   3.103  21.569  0.00  0.00    +0.000 OA
ATOM      8  N   UNL     1       4.223   3.047  19.862  0.00  0.00    +0.000 N 
ATOM      9  H   UNL     1       4.891   2.779  20.574  0.00  0.00    +0.000 HD
BRANCH   8  10
ATOM     10  C   UNL     1       4.681   3.060  18.493  0.00  0.00    +0.000 C 
BRANCH  10  11
ATOM     11  C   UNL     1       5.689   4.123  18.163  0.00  0.00    +0.000 A 
ATOM     12  C   UNL     1       6.199   4.962  19.169  0.00  0.00    +0.000 A 
ATOM     13  C   UNL     1       7.091   5.980  18.862  0.00  0.00    +0.000 A 
ATOM     14  C   UNL     1       7.486   6.174  17.541  0.00  0.00    +0.000 A 
ATOM     15  C   UNL     1       6.975   5.373  16.506  0.00  0.00    +0.000 A 
ATOM     16  C   UNL     1       7.368   5.595  15.177  0.00  0.00    +0.000 A 
ATOM     17  C   UNL     1       6.851   4.831  14.131  0.00  0.00    +0.000 A 
ATOM     18  C   UNL     1       5.917   3.841  14.398  0.00  0.00    +0.000 A 
ATOM     19  C   UNL     1       5.519   3.607  15.714  0.00  0.00    +0.000 A 
ATOM     20  C   UNL     1       6.049   4.348  16.802  0.00  0.00    +0.000 A 
ENDBRANCH  10  11
ENDBRANCH   8  10
ENDBRANCH   2   6
BRANCH   5  21
ATOM     21  C   UNL     1       2.598   6.090  19.554  0.00  0.00    +0.000 C 
BRANCH  21  22
ATOM     22  C   UNL     1       2.087   7.478  19.387  0.00  0.00    +0.000 A 
ATOM     23  C   UNL     1       2.079   8.355  18.326  0.00  0.00    +0.000 A 
ATOM     24  C   UNL     1       1.441   9.526  18.792  0.00  0.00    +0.000 A 
ATOM     25  C   UNL     1       1.055   9.282  20.097  0.00  0.00    +0.000 A 
ATOM     26  O   UNL     1       1.461   8.030  20.462  0.00  0.00    +0.000 OA
BRANCH  25  27
ATOM     27  C   UNL     1       0.311  10.044  21.096  0.00  0.00    +0.000 A 
ATOM     28  C   UNL     1      -0.034  11.380  20.849  0.00  0.00    +0.000 A 
ATOM     29  C   UNL     1      -0.795  12.108  21.771  0.00  0.00    +0.000 A 
ATOM     30  C   UNL     1      -1.222  11.506  22.948  0.00  0.00    +0.000 A 
ATOM     31  C   UNL     1      -0.877  10.185  23.218  0.00  0.00    +0.000 A 
ATOM     32  C   UNL     1      -0.112   9.459  22.300  0.00  0.00    +0.000 A 
ENDBRANCH  25  27
ENDBRANCH  21  22
ENDBRANCH   5  21
TORSDOF 6
ENDMDL
MODEL 9
REMARK VINA RESULT:      -8.1      1.485      8.079
REMARK  Name = 
REMARK  7 active torsions:
REMARK  status: ('A' for Active; 'I' for Inactive)
REMARK    1  A    between atoms: C_1  and  C_2
REMARK    2  A    between atoms: C_2  and  C_3
REMARK    3  A    between atoms: N_5  and  C_6
REMARK    4  A    between atoms: C_6  and  C_7
REMARK    5  A    between atoms: N_19  and  C_20
REMARK    6  A    between atoms: C_20  and  C_21
REMARK    7  A    between atoms: C_24  and  C_25
REMARK                            x       y       z     vdW  Elec       q    Type
REMARK                         _______ _______ _______ _____ _____    ______ ____
ROOT
ATOM      1  C   UNL     1       1.111   2.581  20.751  0.00  0.00    +0.000 C 
ATOM      2  C   UNL     1       2.180   3.144  19.804  0.00  0.00    +0.000 C 
ATOM      3  C   UNL     1       1.793   2.706  18.348  0.00  0.00    +0.000 C 
ATOM      4  C   UNL     1       2.119   4.141  17.945  0.00  0.00    +0.000 C 
ATOM      5  N   UNL     1       1.883   4.557  19.350  0.00  0.00    +0.000 NA
ENDROOT
BRANCH   2   6
ATOM      6  C   UNL     1       3.678   2.771  20.221  0.00  0.00    +0.000 C 
ATOM      7  O   UNL     1       4.005   2.335  21.331  0.00  0.00    +0.000 OA
ATOM      8  N   UNL     1       4.705   2.940  19.321  0.00  0.00    +0.000 N 
ATOM      9  H   UNL     1       5.612   2.680  19.688  0.00  0.00    +0.000 HD
BRANCH   8  10
ATOM     10  C   UNL     1       4.639   3.336  17.934  0.00  0.00    +0.000 C 
BRANCH  10  11
ATOM     11  C   UNL     1       5.653   4.360  17.510  0.00  0.00    +0.000 A 
ATOM     12  C   UNL     1       6.141   5.307  18.428  0.00  0.00    +0.000 A 
ATOM     13  C   UNL     1       7.038   6.288  18.029  0.00  0.00    +0.000 A 
ATOM     14  C   UNL     1       7.460   6.336  16.703  0.00  0.00    +0.000 A 
ATOM     15  C   UNL     1       6.971   5.425  15.753  0.00  0.00    +0.000 A 
ATOM     16  C   UNL     1       7.392   5.501  14.415  0.00  0.00    +0.000 A 
ATOM     17  C   UNL     1       6.897   4.625  13.449  0.00  0.00    +0.000 A 
ATOM     18  C   UNL     1       5.959   3.667  13.805  0.00  0.00    +0.000 A 
ATOM     19  C   UNL     1       5.534   3.578  15.130  0.00  0.00    +0.000 A 
ATOM     20  C   UNL     1       6.041   4.435  16.140  0.00  0.00    +0.000 A 
ENDBRANCH  10  11
ENDBRANCH   8  10
ENDBRANCH   2   6
BRANCH   5  21
ATOM     21  C   UNL     1       2.882   5.574  19.706  0.00  0.00    +0.000 C 
BRANCH  21  22
ATOM     22  C   UNL     1       2.375   6.952  19.461  0.00  0.00    +0.000 A 
ATOM     23  C   UNL     1       2.425   7.791  18.371  0.00  0.00    +0.000 A 
ATOM     24  C   UNL     1       1.755   8.973  18.756  0.00  0.00    +0.000 A 
ATOM     25  C   UNL     1       1.294   8.773  20.044  0.00  0.00    +0.000 A 
ATOM     26  O   UNL     1       1.684   7.537  20.477  0.00  0.00    +0.000 OA
BRANCH  25  27
ATOM     27  C   UNL     1       0.488   9.564  20.970  0.00  0.00    +0.000 A 
ATOM     28  C   UNL     1       0.212   9.078  22.256  0.00  0.00    +0.000 A 
ATOM     29  C   UNL     1      -0.511   9.846  23.175  0.00  0.00    +0.000 A 
ATOM     30  C   UNL     1      -0.963  11.111  22.819  0.00  0.00    +0.000 A 
ATOM     31  C   UNL     1      -0.712  11.605  21.542  0.00  0.00    +0.000 A 
ATOM     32  C   UNL     1       0.005  10.835  20.621  0.00  0.00    +0.000 A 
ENDBRANCH  25  27
ENDBRANCH  21  22
ENDBRANCH   5  21
TORSDOF 6
ENDMDL
