MODEL 1
REMARK VINA RESULT:      -7.5      0.000      0.000
REMARK  Name = 
REMARK  5 active torsions:
REMARK  status: ('A' for Active; 'I' for Inactive)
REMARK    1  A    between atoms: C_2  and  O_3
REMARK    2  A    between atoms: C_2  and  C_4
REMARK    3  A    between atoms: C_4  and  C_5
REMARK    4  A    between atoms: N_7  and  C_8
REMARK    5  A    between atoms: C_13  and  C_14
REMARK                            x       y       z     vdW  Elec       q    Type
REMARK                         _______ _______ _______ _____ _____    ______ ____
ROOT
ATOM      1  C   UNL     1       3.851   4.510  19.451  0.00  0.00    +0.000 A 
ATOM      2  C   UNL     1       4.133   3.185  19.777  0.00  0.00    +0.000 A 
ATOM      3  C   UNL     1       3.317   2.504  20.680  0.00  0.00    +0.000 A 
ATOM      4  C   UNL     1       2.238   3.174  21.234  0.00  0.00    +0.000 A 
ATOM      5  N   UNL     1       1.933   4.465  20.972  0.00  0.00    +0.000 NA
ATOM      6  C   UNL     1       2.755   5.110  20.087  0.00  0.00    +0.000 A 
ENDROOT
BRANCH   6   7
ATOM      7  C   UNL     1       2.353   6.521  19.755  0.00  0.00    +0.000 C 
ATOM      8  O   UNL     1       2.563   6.968  18.631  0.00  0.00    +0.000 OA
ATOM      9  N   UNL     1       1.794   7.192  20.818  0.00  0.00    +0.000 N 
ATOM     10  C   UNL     1       1.341   8.472  20.712  0.00  0.00    +0.000 A 
ATOM     11  N   UNL     1       1.169   9.200  19.639  0.00  0.00    +0.000 NA
ATOM     12  C   UNL     1       0.741  10.459  20.002  0.00  0.00    +0.000 A 
ATOM     13  C   UNL     1       0.612  10.673  21.358  0.00  0.00    +0.000 A 
ATOM     14  S   UNL     1       0.962   9.218  22.202  0.00  0.00    +0.000 S 
ATOM     15  H   UNL     1       1.775   6.732  21.721  0.00  0.00    +0.000 HD
ENDBRANCH   6   7
BRANCH   1  18
ATOM     16  C   UNL     1       5.967   5.555  18.770  0.00  0.00    +0.000 C 
ATOM     17  O   UNL     1       6.593   5.248  19.783  0.00  0.00    +0.000 OA
ATOM     18  N   UNL     1       4.650   5.223  18.527  0.00  0.00    +0.000 N 
ATOM     19  H   UNL     1       4.377   5.118  17.545  0.00  0.00    +0.000 HD
BRANCH  16  20
ATOM     20  C   UNL     1       6.648   6.269  17.636  0.00  0.00    +0.000 C 
BRANCH  20  22
ATOM     21  O   UNL     1       7.488   5.681  15.449  0.00  0.00    +0.000 OA
ATOM     22  C   UNL     1       7.094   5.338  16.556  0.00  0.00    +0.000 C 
BRANCH  22  23
ATOM     23  O   UNL     1       6.957   4.031  16.875  0.00  0.00    +0.000 OA
ATOM     24  H   UNL     1       7.798   3.549  16.991  0.00  0.00    +0.000 HD
ENDBRANCH  22  23
ENDBRANCH  20  22
ENDBRANCH  16  20
ENDBRANCH   1  18
TORSDOF 5
ENDMDL
MODEL 2
REMARK VINA RESULT:      -7.4      2.957      6.053
REMARK  Name = 
REMARK  5 active torsions:
REMARK  status: ('A' for Active; 'I' for Inactive)
REMARK    1  A    between atoms: C_2  and  O_3
REMARK    2  A    between atoms: C_2  and  C_4
REMARK    3  A    between atoms: C_4  and  C_5
REMARK    4  A    between atoms: N_7  and  C_8
REMARK    5  A    between atoms: C_13  and  C_14
REMARK                            x       y       z     vdW  Elec       q    Type
REMARK                         _______ _______ _______ _____ _____    ______ ____
ROOT
ATOM      1  C   UNL     1       2.169   6.736  20.175  0.00  0.00    +0.000 A 
ATOM      2  C   UNL     1       1.500   7.729  20.889  0.00  0.00    +0.000 A 
ATOM      3  C   UNL     1       1.132   8.913  20.251  0.00  0.00    +0.000 A 
ATOM      4  C   UNL     1       1.447   9.069  18.911  0.00  0.00    +0.000 A 
ATOM      5  N   UNL     1       2.115   8.151  18.178  0.00  0.00    +0.000 NA
ATOM      6  C   UNL     1       2.469   7.001  18.831  0.00  0.00    +0.000 A 
ENDROOT
BRANCH   6   7
ATOM      7  C   UNL     1       3.146   5.963  17.978  0.00  0.00    +0.000 C 
ATOM      8  O   UNL     1       2.540   4.944  17.660  0.00  0.00    +0.000 OA
ATOM      9  N   UNL     1       4.446   6.283  17.660  0.00  0.00    +0.000 N 
ATOM     10  C   UNL     1       5.219   5.485  16.873  0.00  0.00    +0.000 A 
ATOM     11  N   UNL     1       4.870   4.450  16.154  0.00  0.00    +0.000 NA
ATOM     12  C   UNL     1       5.988   3.909  15.556  0.00  0.00    +0.000 A 
ATOM     13  C   UNL     1       7.180   4.537  15.849  0.00  0.00    +0.000 A 
ATOM     14  S   UNL     1       6.875   5.904  16.845  0.00  0.00    +0.000 S 
ATOM     15  H   UNL     1       4.853   7.113  18.078  0.00  0.00    +0.000 HD
ENDBRANCH   6   7
BRANCH   1  18
ATOM     16  C   UNL     1       1.707   4.420  20.851  0.00  0.00    +0.000 C 
ATOM     17  O   UNL     1       0.582   4.365  20.361  0.00  0.00    +0.000 OA
ATOM     18  N   UNL     1       2.541   5.518  20.790  0.00  0.00    +0.000 N 
ATOM     19  H   UNL     1       3.548   5.331  20.810  0.00  0.00    +0.000 HD
BRANCH  16  20
ATOM     20  C   UNL     1       2.318   3.212  21.505  0.00  0.00    +0.000 C 
BRANCH  20  22
ATOM     21  O   UNL     1       4.390   2.038  21.102  0.00  0.00    +0.000 OA
ATOM     22  C   UNL     1       3.382   2.581  20.668  0.00  0.00    +0.000 C 
BRANCH  22  23
ATOM     23  O   UNL     1       3.181   2.723  19.339  0.00  0.00    +0.000 OA
ATOM     24  H   UNL     1       2.920   1.903  18.876  0.00  0.00    +0.000 HD
ENDBRANCH  22  23
ENDBRANCH  20  22
ENDBRANCH  16  20
ENDBRANCH   1  18
TORSDOF 5
ENDMDL
MODEL 3
REMARK VINA RESULT:      -7.4      2.689      4.732
REMARK  Name = 
REMARK  5 active torsions:
REMARK  status: ('A' for Active; 'I' for Inactive)
REMARK    1  A    between atoms: C_2  and  O_3
REMARK    2  A    between atoms: C_2  and  C_4
REMARK    3  A    between atoms: C_4  and  C_5
REMARK    4  A    between atoms: N_7  and  C_8
REMARK    5  A    between atoms: C_13  and  C_14
REMARK                            x       y       z     vdW  Elec       q    Type
REMARK                         _______ _______ _______ _____ _____    ______ ____
ROOT
ATOM      1  C   UNL     1       4.051   4.417  17.679  0.00  0.00    +0.000 A 
ATOM      2  C   UNL     1       4.847   3.873  16.671  0.00  0.00    +0.000 A 
ATOM      3  C   UNL     1       5.469   4.713  15.749  0.00  0.00    +0.000 A 
ATOM      4  C   UNL     1       5.275   6.080  15.862  0.00  0.00    +0.000 A 
ATOM      5  N   UNL     1       4.496   6.659  16.802  0.00  0.00    +0.000 NA
ATOM      6  C   UNL     1       3.892   5.810  17.691  0.00  0.00    +0.000 A 
ENDROOT
BRANCH   6   7
ATOM      7  C   UNL     1       3.090   6.481  18.771  0.00  0.00    +0.000 C 
ATOM      8  O   UNL     1       2.980   5.947  19.871  0.00  0.00    +0.000 OA
ATOM      9  N   UNL     1       2.517   7.665  18.368  0.00  0.00    +0.000 N 
ATOM     10  C   UNL     1       1.774   8.437  19.209  0.00  0.00    +0.000 A 
ATOM     11  N   UNL     1       1.626   8.336  20.505  0.00  0.00    +0.000 NA
ATOM     12  C   UNL     1       0.740   9.297  20.942  0.00  0.00    +0.000 A 
ATOM     13  C   UNL     1       0.211  10.106  19.958  0.00  0.00    +0.000 A 
ATOM     14  S   UNL     1       0.913   9.699  18.444  0.00  0.00    +0.000 S 
ATOM     15  H   UNL     1       2.607   7.937  17.395  0.00  0.00    +0.000 HD
ENDBRANCH   6   7
BRANCH   1  18
ATOM     16  C   UNL     1       2.147   3.084  18.472  0.00  0.00    +0.000 C 
ATOM     17  O   UNL     1       1.445   3.260  17.479  0.00  0.00    +0.000 OA
ATOM     18  N   UNL     1       3.419   3.592  18.638  0.00  0.00    +0.000 N 
ATOM     19  H   UNL     1       4.054   3.054  19.234  0.00  0.00    +0.000 HD
BRANCH  16  20
ATOM     20  C   UNL     1       1.684   2.191  19.589  0.00  0.00    +0.000 C 
BRANCH  20  22
ATOM     21  O   UNL     1       1.373   2.555  21.957  0.00  0.00    +0.000 OA
ATOM     22  C   UNL     1       1.272   2.956  20.804  0.00  0.00    +0.000 C 
BRANCH  22  23
ATOM     23  O   UNL     1       0.688   4.143  20.525  0.00  0.00    +0.000 OA
ATOM     24  H   UNL     1      -0.102   4.346  21.063  0.00  0.00    +0.000 HD
ENDBRANCH  22  23
ENDBRANCH  20  22
ENDBRANCH  16  20
ENDBRANCH   1  18
TORSDOF 5
ENDMDL
MODEL 4
REMARK VINA RESULT:      -7.3      3.693      5.676
REMARK  Name = 
REMARK  5 active torsions:
REMARK  status: ('A' for Active; 'I' for Inactive)
REMARK    1  A    between atoms: C_2  and  O_3
REMARK    2  A    between atoms: C_2  and  C_4
REMARK    3  A    between atoms: C_4  and  C_5
REMARK    4  A    between atoms: N_7  and  C_8
REMARK    5  A    between atoms: C_13  and  C_14
REMARK                            x       y       z     vdW  Elec       q    Type
REMARK                         _______ _______ _______ _____ _____    ______ ____
ROOT
ATOM      1  C   UNL     1       6.765   4.844  15.667  0.00  0.00    +0.000 A 
ATOM      2  C   UNL     1       7.558   4.747  14.524  0.00  0.00    +0.000 A 
ATOM      3  C   UNL     1       6.977   4.410  13.303  0.00  0.00    +0.000 A 
ATOM      4  C   UNL     1       5.612   4.177  13.261  0.00  0.00    +0.000 A 
ATOM      5  N   UNL     1       4.800   4.233  14.340  0.00  0.00    +0.000 NA
ATOM      6  C   UNL     1       5.399   4.560  15.527  0.00  0.00    +0.000 A 
ENDROOT
BRANCH   6   7
ATOM      7  C   UNL     1       4.466   4.688  16.700  0.00  0.00    +0.000 C 
ATOM      8  O   UNL     1       4.199   5.799  17.151  0.00  0.00    +0.000 OA
ATOM      9  N   UNL     1       4.018   3.477  17.174  0.00  0.00    +0.000 N 
ATOM     10  C   UNL     1       3.143   3.381  18.214  0.00  0.00    +0.000 A 
ATOM     11  N   UNL     1       2.451   4.326  18.797  0.00  0.00    +0.000 NA
ATOM     12  C   UNL     1       1.732   3.787  19.843  0.00  0.00    +0.000 A 
ATOM     13  C   UNL     1       1.907   2.435  20.048  0.00  0.00    +0.000 A 
ATOM     14  S   UNL     1       2.948   1.803  18.836  0.00  0.00    +0.000 S 
ATOM     15  H   UNL     1       4.402   2.630  16.769  0.00  0.00    +0.000 HD
ENDBRANCH   6   7
BRANCH   1  18
ATOM     16  C   UNL     1       7.431   6.505  17.348  0.00  0.00    +0.000 C 
ATOM     17  O   UNL     1       7.034   7.487  16.724  0.00  0.00    +0.000 OA
ATOM     18  N   UNL     1       7.323   5.200  16.917  0.00  0.00    +0.000 N 
ATOM     19  H   UNL     1       7.256   4.480  17.643  0.00  0.00    +0.000 HD
BRANCH  16  20
ATOM     20  C   UNL     1       8.008   6.658  18.728  0.00  0.00    +0.000 C 
BRANCH  20  22
ATOM     21  O   UNL     1       6.348   5.161  19.644  0.00  0.00    +0.000 OA
ATOM     22  C   UNL     1       7.469   5.652  19.692  0.00  0.00    +0.000 C 
BRANCH  22  23
ATOM     23  O   UNL     1       8.317   5.362  20.704  0.00  0.00    +0.000 OA
ATOM     24  H   UNL     1       8.103   5.797  21.552  0.00  0.00    +0.000 HD
ENDBRANCH  22  23
ENDBRANCH  20  22
ENDBRANCH  16  20
ENDBRANCH   1  18
TORSDOF 5
ENDMDL
MODEL 5
REMARK VINA RESULT:      -7.3      2.461      4.484
REMARK  Name = 
REMARK  5 active torsions:
REMARK  status: ('A' for Active; 'I' for Inactive)
REMARK    1  A    between atoms: C_2  and  O_3
REMARK    2  A    between atoms: C_2  and  C_4
REMARK    3  A    between atoms: C_4  and  C_5
REMARK    4  A    between atoms: N_7  and  C_8
REMARK    5  A    between atoms: C_13  and  C_14
REMARK                            x       y       z     vdW  Elec       q    Type
REMARK                         _______ _______ _______ _____ _____    ______ ____
ROOT
ATOM      1  C   UNL     1       3.830   4.592  17.386  0.00  0.00    +0.000 A 
ATOM      2  C   UNL     1       4.688   4.088  16.409  0.00  0.00    +0.000 A 
ATOM      3  C   UNL     1       5.559   4.946  15.741  0.00  0.00    +0.000 A 
ATOM      4  C   UNL     1       5.546   6.291  16.070  0.00  0.00    +0.000 A 
ATOM      5  N   UNL     1       4.720   6.838  16.990  0.00  0.00    +0.000 NA
ATOM      6  C   UNL     1       3.871   5.973  17.626  0.00  0.00    +0.000 A 
ENDROOT
BRANCH   6   7
ATOM      7  C   UNL     1       3.013   6.591  18.696  0.00  0.00    +0.000 C 
ATOM      8  O   UNL     1       2.831   5.994  19.754  0.00  0.00    +0.000 OA
ATOM      9  N   UNL     1       2.479   7.806  18.332  0.00  0.00    +0.000 N 
ATOM     10  C   UNL     1       1.697   8.537  19.173  0.00  0.00    +0.000 A 
ATOM     11  N   UNL     1       1.471   8.362  20.450  0.00  0.00    +0.000 NA
ATOM     12  C   UNL     1       0.571   9.309  20.890  0.00  0.00    +0.000 A 
ATOM     13  C   UNL     1       0.111  10.183  19.927  0.00  0.00    +0.000 A 
ATOM     14  S   UNL     1       0.898   9.855  18.435  0.00  0.00    +0.000 S 
ATOM     15  H   UNL     1       2.630   8.133  17.384  0.00  0.00    +0.000 HD
ENDBRANCH   6   7
BRANCH   1  18
ATOM     16  C   UNL     1       3.358   2.901  19.102  0.00  0.00    +0.000 C 
ATOM     17  O   UNL     1       4.511   2.813  19.518  0.00  0.00    +0.000 OA
ATOM     18  N   UNL     1       2.945   3.744  18.092  0.00  0.00    +0.000 N 
ATOM     19  H   UNL     1       1.973   4.066  18.130  0.00  0.00    +0.000 HD
BRANCH  16  20
ATOM     20  C   UNL     1       2.248   2.123  19.754  0.00  0.00    +0.000 C 
BRANCH  20  22
ATOM     21  O   UNL     1       0.162   2.282  18.546  0.00  0.00    +0.000 OA
ATOM     22  C   UNL     1       0.897   2.678  19.443  0.00  0.00    +0.000 C 
BRANCH  22  23
ATOM     23  O   UNL     1       0.558   3.741  20.206  0.00  0.00    +0.000 OA
ATOM     24  H   UNL     1       0.414   3.536  21.150  0.00  0.00    +0.000 HD
ENDBRANCH  22  23
ENDBRANCH  20  22
ENDBRANCH  16  20
ENDBRANCH   1  18
TORSDOF 5
ENDMDL
MODEL 6
REMARK VINA RESULT:      -7.2      1.906      2.174
REMARK  Name = 
REMARK  5 active torsions:
REMARK  status: ('A' for Active; 'I' for Inactive)
REMARK    1  A    between atoms: C_2  and  O_3
REMARK    2  A    between atoms: C_2  and  C_4
REMARK    3  A    between atoms: C_4  and  C_5
REMARK    4  A    between atoms: N_7  and  C_8
REMARK    5  A    between atoms: C_13  and  C_14
REMARK                            x       y       z     vdW  Elec       q    Type
REMARK                         _______ _______ _______ _____ _____    ______ ____
ROOT
ATOM      1  C   UNL     1       4.453   4.541  19.077  0.00  0.00    +0.000 A 
ATOM      2  C   UNL     1       4.473   3.182  19.389  0.00  0.00    +0.000 A 
ATOM      3  C   UNL     1       3.323   2.414  19.215  0.00  0.00    +0.000 A 
ATOM      4  C   UNL     1       2.180   3.031  18.733  0.00  0.00    +0.000 A 
ATOM      5  N   UNL     1       2.097   4.348  18.438  0.00  0.00    +0.000 NA
ATOM      6  C   UNL     1       3.240   5.079  18.624  0.00  0.00    +0.000 A 
ENDROOT
BRANCH   6   7
ATOM      7  C   UNL     1       3.146   6.525  18.221  0.00  0.00    +0.000 C 
ATOM      8  O   UNL     1       3.889   6.966  17.349  0.00  0.00    +0.000 OA
ATOM      9  N   UNL     1       2.206   7.230  18.937  0.00  0.00    +0.000 N 
ATOM     10  C   UNL     1       1.950   8.547  18.702  0.00  0.00    +0.000 A 
ATOM     11  N   UNL     1       2.354   9.301  17.712  0.00  0.00    +0.000 NA
ATOM     12  C   UNL     1       1.900  10.589  17.902  0.00  0.00    +0.000 A 
ATOM     13  C   UNL     1       1.169  10.796  19.053  0.00  0.00    +0.000 A 
ATOM     14  S   UNL     1       0.976   9.304  19.883  0.00  0.00    +0.000 S 
ATOM     15  H   UNL     1       1.733   6.761  19.702  0.00  0.00    +0.000 HD
ENDBRANCH   6   7
BRANCH   1  18
ATOM     16  C   UNL     1       6.705   5.246  18.398  0.00  0.00    +0.000 C 
ATOM     17  O   UNL     1       6.792   4.490  17.433  0.00  0.00    +0.000 OA
ATOM     18  N   UNL     1       5.608   5.344  19.228  0.00  0.00    +0.000 N 
ATOM     19  H   UNL     1       5.451   6.251  19.677  0.00  0.00    +0.000 HD
BRANCH  16  20
ATOM     20  C   UNL     1       7.805   6.226  18.703  0.00  0.00    +0.000 C 
BRANCH  20  22
ATOM     21  O   UNL     1       8.293   8.522  18.132  0.00  0.00    +0.000 OA
ATOM     22  C   UNL     1       7.700   7.477  17.893  0.00  0.00    +0.000 C 
BRANCH  22  23
ATOM     23  O   UNL     1       6.813   7.393  16.877  0.00  0.00    +0.000 OA
ATOM     24  H   UNL     1       5.984   6.926  17.097  0.00  0.00    +0.000 HD
ENDBRANCH  22  23
ENDBRANCH  20  22
ENDBRANCH  16  20
ENDBRANCH   1  18
TORSDOF 5
ENDMDL
MODEL 7
REMARK VINA RESULT:      -7.1      0.981      1.218
REMARK  Name = 
REMARK  5 active torsions:
REMARK  status: ('A' for Active; 'I' for Inactive)
REMARK    1  A    between atoms: C_2  and  O_3
REMARK    2  A    between atoms: C_2  and  C_4
REMARK    3  A    between atoms: C_4  and  C_5
REMARK    4  A    between atoms: N_7  and  C_8
REMARK    5  A    between atoms: C_13  and  C_14
REMARK                            x       y       z     vdW  Elec       q    Type
REMARK                         _______ _______ _______ _____ _____    ______ ____
ROOT
ATOM      1  C   UNL     1       3.990   4.492  19.311  0.00  0.00    +0.000 A 
ATOM      2  C   UNL     1       4.324   3.179  19.640  0.00  0.00    +0.000 A 
ATOM      3  C   UNL     1       3.553   2.478  20.566  0.00  0.00    +0.000 A 
ATOM      4  C   UNL     1       2.465   3.116  21.140  0.00  0.00    +0.000 A 
ATOM      5  N   UNL     1       2.110   4.394  20.876  0.00  0.00    +0.000 NA
ATOM      6  C   UNL     1       2.889   5.059  19.968  0.00  0.00    +0.000 A 
ENDROOT
BRANCH   6   7
ATOM      7  C   UNL     1       2.433   6.454  19.636  0.00  0.00    +0.000 C 
ATOM      8  O   UNL     1       2.557   6.880  18.491  0.00  0.00    +0.000 OA
ATOM      9  N   UNL     1       1.930   7.135  20.720  0.00  0.00    +0.000 N 
ATOM     10  C   UNL     1       1.441   8.402  20.619  0.00  0.00    +0.000 A 
ATOM     11  N   UNL     1       1.180   9.102  19.545  0.00  0.00    +0.000 NA
ATOM     12  C   UNL     1       0.748  10.358  19.910  0.00  0.00    +0.000 A 
ATOM     13  C   UNL     1       0.704  10.599  21.267  0.00  0.00    +0.000 A 
ATOM     14  S   UNL     1       1.145   9.171  22.115  0.00  0.00    +0.000 S 
ATOM     15  H   UNL     1       1.983   6.694  21.631  0.00  0.00    +0.000 HD
ENDBRANCH   6   7
BRANCH   1  18
ATOM     16  C   UNL     1       4.801   4.887  17.027  0.00  0.00    +0.000 C 
ATOM     17  O   UNL     1       4.191   3.954  16.510  0.00  0.00    +0.000 OA
ATOM     18  N   UNL     1       4.744   5.223  18.364  0.00  0.00    +0.000 N 
ATOM     19  H   UNL     1       4.896   6.209  18.597  0.00  0.00    +0.000 HD
BRANCH  16  20
ATOM     20  C   UNL     1       5.620   5.826  16.185  0.00  0.00    +0.000 C 
BRANCH  20  22
ATOM     21  O   UNL     1       7.716   6.930  16.658  0.00  0.00    +0.000 OA
ATOM     22  C   UNL     1       7.043   5.907  16.634  0.00  0.00    +0.000 C 
BRANCH  22  23
ATOM     23  O   UNL     1       7.579   4.709  16.957  0.00  0.00    +0.000 OA
ATOM     24  H   UNL     1       7.575   4.505  17.912  0.00  0.00    +0.000 HD
ENDBRANCH  22  23
ENDBRANCH  20  22
ENDBRANCH  16  20
ENDBRANCH   1  18
TORSDOF 5
ENDMDL
MODEL 8
REMARK VINA RESULT:      -7.1      2.812      5.082
REMARK  Name = 
REMARK  5 active torsions:
REMARK  status: ('A' for Active; 'I' for Inactive)
REMARK    1  A    between atoms: C_2  and  O_3
REMARK    2  A    between atoms: C_2  and  C_4
REMARK    3  A    between atoms: C_4  and  C_5
REMARK    4  A    between atoms: N_7  and  C_8
REMARK    5  A    between atoms: C_13  and  C_14
REMARK                            x       y       z     vdW  Elec       q    Type
REMARK                         _______ _______ _______ _____ _____    ______ ____
ROOT
ATOM      1  C   UNL     1       6.767   4.752  15.752  0.00  0.00    +0.000 A 
ATOM      2  C   UNL     1       7.483   4.866  14.561  0.00  0.00    +0.000 A 
ATOM      3  C   UNL     1       6.880   4.516  13.354  0.00  0.00    +0.000 A 
ATOM      4  C   UNL     1       5.573   4.059  13.374  0.00  0.00    +0.000 A 
ATOM      5  N   UNL     1       4.841   3.906  14.500  0.00  0.00    +0.000 NA
ATOM      6  C   UNL     1       5.460   4.251  15.672  0.00  0.00    +0.000 A 
ENDROOT
BRANCH   6   7
ATOM      7  C   UNL     1       4.603   4.142  16.903  0.00  0.00    +0.000 C 
ATOM      8  O   UNL     1       4.356   3.037  17.379  0.00  0.00    +0.000 OA
ATOM      9  N   UNL     1       4.148   5.357  17.359  0.00  0.00    +0.000 N 
ATOM     10  C   UNL     1       3.380   5.473  18.478  0.00  0.00    +0.000 A 
ATOM     11  N   UNL     1       3.104   4.571  19.385  0.00  0.00    +0.000 NA
ATOM     12  C   UNL     1       2.244   5.107  20.318  0.00  0.00    +0.000 A 
ATOM     13  C   UNL     1       1.863   6.413  20.092  0.00  0.00    +0.000 A 
ATOM     14  S   UNL     1       2.677   7.013  18.703  0.00  0.00    +0.000 S 
ATOM     15  H   UNL     1       4.347   6.183  16.806  0.00  0.00    +0.000 HD
ENDBRANCH   6   7
BRANCH   1  18
ATOM     16  C   UNL     1       7.463   6.421  17.414  0.00  0.00    +0.000 C 
ATOM     17  O   UNL     1       7.058   7.400  16.791  0.00  0.00    +0.000 OA
ATOM     18  N   UNL     1       7.346   5.113  16.991  0.00  0.00    +0.000 N 
ATOM     19  H   UNL     1       7.290   4.398  17.722  0.00  0.00    +0.000 HD
BRANCH  16  20
ATOM     20  C   UNL     1       8.062   6.581  18.783  0.00  0.00    +0.000 C 
BRANCH  20  22
ATOM     21  O   UNL     1       6.414   5.098  19.742  0.00  0.00    +0.000 OA
ATOM     22  C   UNL     1       7.541   5.578  19.760  0.00  0.00    +0.000 C 
BRANCH  22  23
ATOM     23  O   UNL     1       8.412   5.279  20.749  0.00  0.00    +0.000 OA
ATOM     24  H   UNL     1       8.868   6.051  21.138  0.00  0.00    +0.000 HD
ENDBRANCH  22  23
ENDBRANCH  20  22
ENDBRANCH  16  20
ENDBRANCH   1  18
TORSDOF 5
ENDMDL
MODEL 9
REMARK VINA RESULT:      -7.0      1.052      1.644
REMARK  Name = 
REMARK  5 active torsions:
REMARK  status: ('A' for Active; 'I' for Inactive)
REMARK    1  A    between atoms: C_2  and  O_3
REMARK    2  A    between atoms: C_2  and  C_4
REMARK    3  A    between atoms: C_4  and  C_5
REMARK    4  A    between atoms: N_7  and  C_8
REMARK    5  A    between atoms: C_13  and  C_14
REMARK                            x       y       z     vdW  Elec       q    Type
REMARK                         _______ _______ _______ _____ _____    ______ ____
ROOT
ATOM      1  C   UNL     1       4.080   4.505  19.484  0.00  0.00    +0.000 A 
ATOM      2  C   UNL     1       4.312   3.146  19.688  0.00  0.00    +0.000 A 
ATOM      3  C   UNL     1       3.252   2.304  20.022  0.00  0.00    +0.000 A 
ATOM      4  C   UNL     1       1.985   2.851  20.145  0.00  0.00    +0.000 A 
ATOM      5  N   UNL     1       1.707   4.164  19.984  0.00  0.00    +0.000 NA
ATOM      6  C   UNL     1       2.768   4.968  19.662  0.00  0.00    +0.000 A 
ENDROOT
BRANCH   6   7
ATOM      7  C   UNL     1       2.424   6.411  19.416  0.00  0.00    +0.000 C 
ATOM      8  O   UNL     1       2.666   6.919  18.324  0.00  0.00    +0.000 OA
ATOM      9  N   UNL     1       1.876   7.035  20.512  0.00  0.00    +0.000 N 
ATOM     10  C   UNL     1       1.472   8.336  20.482  0.00  0.00    +0.000 A 
ATOM     11  N   UNL     1       1.341   9.135  19.455  0.00  0.00    +0.000 NA
ATOM     12  C   UNL     1       0.955  10.384  19.892  0.00  0.00    +0.000 A 
ATOM     13  C   UNL     1       0.816  10.517  21.257  0.00  0.00    +0.000 A 
ATOM     14  S   UNL     1       1.101   9.001  22.012  0.00  0.00    +0.000 S 
ATOM     15  H   UNL     1       1.828   6.521  21.384  0.00  0.00    +0.000 HD
ENDBRANCH   6   7
BRANCH   1  18
ATOM     16  C   UNL     1       5.698   5.407  17.872  0.00  0.00    +0.000 C 
ATOM     17  O   UNL     1       5.340   4.707  16.926  0.00  0.00    +0.000 OA
ATOM     18  N   UNL     1       5.132   5.382  19.129  0.00  0.00    +0.000 N 
ATOM     19  H   UNL     1       5.173   6.252  19.669  0.00  0.00    +0.000 HD
BRANCH  16  20
ATOM     20  C   UNL     1       6.768   6.448  17.692  0.00  0.00    +0.000 C 
BRANCH  20  22
ATOM     21  O   UNL     1       8.054   5.376  19.434  0.00  0.00    +0.000 OA
ATOM     22  C   UNL     1       7.841   6.353  18.726  0.00  0.00    +0.000 C 
BRANCH  22  23
ATOM     23  O   UNL     1       8.545   7.496  18.884  0.00  0.00    +0.000 OA
ATOM     24  H   UNL     1       9.038   7.785  18.091  0.00  0.00    +0.000 HD
ENDBRANCH  22  23
ENDBRANCH  20  22
ENDBRANCH  16  20
ENDBRANCH   1  18
TORSDOF 5
ENDMDL
