MODEL 1
REMARK VINA RESULT:      -7.9      0.000      0.000
REMARK  Name = 
REMARK  11 active torsions:
REMARK  status: ('A' for Active; 'I' for Inactive)
REMARK    1  A    between atoms: C_1  and  N_2
REMARK    2  A    between atoms: N_2  and  C_3
REMARK    3  A    between atoms: N_2  and  C_26
REMARK    4  A    between atoms: C_3  and  C_4
REMARK    5  A    between atoms: C_9  and  C_10
REMARK    6  A    between atoms: N_12  and  C_13
REMARK    7  A    between atoms: C_13  and  C_14
REMARK    8  A    between atoms: N_22  and  C_23
REMARK    9  A    between atoms: C_26  and  C_27
REMARK   10  A    between atoms: C_27  and  O_28
REMARK   11  A    between atoms: C_27  and  C_29
REMARK                            x       y       z     vdW  Elec       q    Type
REMARK                         _______ _______ _______ _____ _____    ______ ____
ROOT
ATOM      1  C   UNL     1       4.086   4.482  17.258  0.00  0.00    +0.000 A 
ATOM      2  C   UNL     1       3.692   5.806  17.268  0.00  0.00    +0.000 A 
ATOM      3  C   UNL     1       3.043   6.168  18.493  0.00  0.00    +0.000 A 
ATOM      4  C   UNL     1       2.522   7.480  18.862  0.00  0.00    +0.000 A 
ATOM      5  O   UNL     1       2.670   8.478  18.162  0.00  0.00    +0.000 OA
ATOM      6  C   UNL     1       1.798   7.534  20.169  0.00  0.00    +0.000 A 
ATOM      7  C   UNL     1       1.671   6.394  20.880  0.00  0.00    +0.000 A 
ATOM      8  N   UNL     1       2.209   5.161  20.520  0.00  0.00    +0.000 N 
ATOM      9  C   UNL     1       1.933   3.935  21.271  0.00  0.00    +0.000 C 
ATOM     10  C   UNL     1       2.909   5.085  19.346  0.00  0.00    +0.000 A 
ATOM     11  S   UNL     1       3.755   3.726  18.758  0.00  0.00    +0.000 S 
ENDROOT
BRANCH   6  12
ATOM     12  C   UNL     1       1.222   8.779  20.741  0.00  0.00    +0.000 C 
ATOM     13  O   UNL     1       0.822   8.826  21.901  0.00  0.00    +0.000 OA
ATOM     14  N   UNL     1       1.198   9.863  19.899  0.00  0.00    +0.000 N 
ATOM     15  H   UNL     1       1.406   9.720  18.912  0.00  0.00    +0.000 HD
BRANCH  14  16
ATOM     16  C   UNL     1       0.590  11.113  20.286  0.00  0.00    +0.000 C 
BRANCH  16  17
ATOM     17  C   UNL     1       1.445  12.292  19.897  0.00  0.00    +0.000 A 
ATOM     18  C   UNL     1       1.921  13.184  20.871  0.00  0.00    +0.000 A 
ATOM     19  C   UNL     1       2.740  14.256  20.510  0.00  0.00    +0.000 A 
ATOM     20  C   UNL     1       3.083  14.449  19.173  0.00  0.00    +0.000 A 
ATOM     21 CL   UNL     1       4.113  15.754  18.733  0.00  0.00    +0.000 Cl
ATOM     22  C   UNL     1       2.600  13.587  18.191  0.00  0.00    +0.000 A 
ATOM     23  C   UNL     1       1.777  12.516  18.552  0.00  0.00    +0.000 A 
ENDBRANCH  16  17
ENDBRANCH  14  16
ENDBRANCH   6  12
BRANCH   1  24
ATOM     24  C   UNL     1       4.787   3.717  16.170  0.00  0.00    +0.000 C 
BRANCH  24  26
ATOM     25  C   UNL     1       5.838   4.072  13.987  0.00  0.00    +0.000 C 
ATOM     26  N   UNL     1       5.743   4.524  15.380  0.00  0.00    +0.000 NA
BRANCH  26  27
ATOM     27  C   UNL     1       7.098   4.462  15.982  0.00  0.00    +0.000 C 
BRANCH  27  28
ATOM     28  C   UNL     1       7.237   4.798  17.493  0.00  0.00    +0.000 C 
BRANCH  28  29
ATOM     29  C   UNL     1       7.561   6.234  17.766  0.00  0.00    +0.000 A 
ATOM     30  C   UNL     1       7.186   7.384  17.011  0.00  0.00    +0.000 A 
ATOM     31  C   UNL     1       7.729   8.470  17.657  0.00  0.00    +0.000 A 
ATOM     32  O   UNL     1       8.409   8.074  18.760  0.00  0.00    +0.000 OA
ATOM     33  C   UNL     1       8.303   6.723  18.823  0.00  0.00    +0.000 A 
ENDBRANCH  28  29
BRANCH  28  34
ATOM     34  O   UNL     1       8.234   3.938  18.058  0.00  0.00    +0.000 OA
ATOM     35  H   UNL     1       8.789   3.628  17.324  0.00  0.00    +0.000 HD
ENDBRANCH  28  34
ENDBRANCH  27  28
ENDBRANCH  26  27
ENDBRANCH  24  26
ENDBRANCH   1  24
TORSDOF 9
ENDMDL
MODEL 2
REMARK VINA RESULT:      -7.9      2.511      3.184
REMARK  Name = 
REMARK  11 active torsions:
REMARK  status: ('A' for Active; 'I' for Inactive)
REMARK    1  A    between atoms: C_1  and  N_2
REMARK    2  A    between atoms: N_2  and  C_3
REMARK    3  A    between atoms: N_2  and  C_26
REMARK    4  A    between atoms: C_3  and  C_4
REMARK    5  A    between atoms: C_9  and  C_10
REMARK    6  A    between atoms: N_12  and  C_13
REMARK    7  A    between atoms: C_13  and  C_14
REMARK    8  A    between atoms: N_22  and  C_23
REMARK    9  A    between atoms: C_26  and  C_27
REMARK   10  A    between atoms: C_27  and  O_28
REMARK   11  A    between atoms: C_27  and  C_29
REMARK                            x       y       z     vdW  Elec       q    Type
REMARK                         _______ _______ _______ _____ _____    ______ ____
ROOT
ATOM      1  C   UNL     1       4.180   4.149  17.257  0.00  0.00    +0.000 A 
ATOM      2  C   UNL     1       3.778   5.471  17.271  0.00  0.00    +0.000 A 
ATOM      3  C   UNL     1       3.131   5.826  18.499  0.00  0.00    +0.000 A 
ATOM      4  C   UNL     1       2.603   7.134  18.873  0.00  0.00    +0.000 A 
ATOM      5  O   UNL     1       2.744   8.135  18.175  0.00  0.00    +0.000 OA
ATOM      6  C   UNL     1       1.883   7.181  20.182  0.00  0.00    +0.000 A 
ATOM      7  C   UNL     1       1.764   6.038  20.890  0.00  0.00    +0.000 A 
ATOM      8  N   UNL     1       2.308   4.809  20.526  0.00  0.00    +0.000 N 
ATOM      9  C   UNL     1       2.040   3.579  21.274  0.00  0.00    +0.000 C 
ATOM     10  C   UNL     1       3.005   4.740  19.349  0.00  0.00    +0.000 A 
ATOM     11  S   UNL     1       3.856   3.388  18.756  0.00  0.00    +0.000 S 
ENDROOT
BRANCH   6  12
ATOM     12  C   UNL     1       1.301   8.421  20.759  0.00  0.00    +0.000 C 
ATOM     13  O   UNL     1       1.258   8.605  21.973  0.00  0.00    +0.000 OA
ATOM     14  N   UNL     1       0.850   9.344  19.849  0.00  0.00    +0.000 N 
ATOM     15  H   UNL     1       0.778   9.071  18.869  0.00  0.00    +0.000 HD
BRANCH  14  16
ATOM     16  C   UNL     1       0.183  10.555  20.261  0.00  0.00    +0.000 C 
BRANCH  16  17
ATOM     17  C   UNL     1      -1.017  10.851  19.398  0.00  0.00    +0.000 A 
ATOM     18  C   UNL     1      -1.217  10.166  18.190  0.00  0.00    +0.000 A 
ATOM     19  C   UNL     1      -2.349  10.420  17.410  0.00  0.00    +0.000 A 
ATOM     20  C   UNL     1      -3.283  11.366  17.829  0.00  0.00    +0.000 A 
ATOM     21 CL   UNL     1      -4.688  11.659  16.881  0.00  0.00    +0.000 Cl
ATOM     22  C   UNL     1      -3.087  12.072  19.014  0.00  0.00    +0.000 A 
ATOM     23  C   UNL     1      -1.953  11.820  19.792  0.00  0.00    +0.000 A 
ENDBRANCH  16  17
ENDBRANCH  14  16
ENDBRANCH   6  12
BRANCH   1  24
ATOM     24  C   UNL     1       4.882   3.391  16.165  0.00  0.00    +0.000 C 
BRANCH  24  26
ATOM     25  C   UNL     1       5.369   3.554  13.771  0.00  0.00    +0.000 C 
ATOM     26  N   UNL     1       5.392   4.242  15.067  0.00  0.00    +0.000 NA
BRANCH  26  27
ATOM     27  C   UNL     1       6.786   4.667  15.343  0.00  0.00    +0.000 C 
BRANCH  27  28
ATOM     28  C   UNL     1       7.017   6.121  15.841  0.00  0.00    +0.000 C 
BRANCH  28  29
ATOM     29  C   UNL     1       7.462   6.209  17.267  0.00  0.00    +0.000 A 
ATOM     30  C   UNL     1       7.549   5.163  18.232  0.00  0.00    +0.000 A 
ATOM     31  C   UNL     1       8.000   5.741  19.396  0.00  0.00    +0.000 A 
ATOM     32  O   UNL     1       8.202   7.069  19.218  0.00  0.00    +0.000 OA
ATOM     33  C   UNL     1       7.878   7.347  17.930  0.00  0.00    +0.000 A 
ENDBRANCH  28  29
BRANCH  28  34
ATOM     34  O   UNL     1       5.808   6.864  15.641  0.00  0.00    +0.000 OA
ATOM     35  H   UNL     1       5.926   7.721  16.081  0.00  0.00    +0.000 HD
ENDBRANCH  28  34
ENDBRANCH  27  28
ENDBRANCH  26  27
ENDBRANCH  24  26
ENDBRANCH   1  24
TORSDOF 9
ENDMDL
MODEL 3
REMARK VINA RESULT:      -7.8      2.918      4.381
REMARK  Name = 
REMARK  11 active torsions:
REMARK  status: ('A' for Active; 'I' for Inactive)
REMARK    1  A    between atoms: C_1  and  N_2
REMARK    2  A    between atoms: N_2  and  C_3
REMARK    3  A    between atoms: N_2  and  C_26
REMARK    4  A    between atoms: C_3  and  C_4
REMARK    5  A    between atoms: C_9  and  C_10
REMARK    6  A    between atoms: N_12  and  C_13
REMARK    7  A    between atoms: C_13  and  C_14
REMARK    8  A    between atoms: N_22  and  C_23
REMARK    9  A    between atoms: C_26  and  C_27
REMARK   10  A    between atoms: C_27  and  O_28
REMARK   11  A    between atoms: C_27  and  C_29
REMARK                            x       y       z     vdW  Elec       q    Type
REMARK                         _______ _______ _______ _____ _____    ______ ____
ROOT
ATOM      1  C   UNL     1       4.416   4.187  17.306  0.00  0.00    +0.000 A 
ATOM      2  C   UNL     1       3.996   5.502  17.271  0.00  0.00    +0.000 A 
ATOM      3  C   UNL     1       3.299   5.880  18.464  0.00  0.00    +0.000 A 
ATOM      4  C   UNL     1       2.740   7.189  18.784  0.00  0.00    +0.000 A 
ATOM      5  O   UNL     1       2.893   8.174  18.065  0.00  0.00    +0.000 OA
ATOM      6  C   UNL     1       1.972   7.259  20.064  0.00  0.00    +0.000 A 
ATOM      7  C   UNL     1       1.842   6.133  20.797  0.00  0.00    +0.000 A 
ATOM      8  N   UNL     1       2.416   4.904  20.486  0.00  0.00    +0.000 N 
ATOM      9  C   UNL     1       2.138   3.690  21.256  0.00  0.00    +0.000 C 
ATOM     10  C   UNL     1       3.157   4.815  19.338  0.00  0.00    +0.000 A 
ATOM     11  S   UNL     1       4.048   3.460  18.812  0.00  0.00    +0.000 S 
ENDROOT
BRANCH   6  12
ATOM     12  C   UNL     1       1.352   8.505  20.587  0.00  0.00    +0.000 C 
ATOM     13  O   UNL     1       1.258   8.718  21.793  0.00  0.00    +0.000 OA
ATOM     14  N   UNL     1       0.927   9.400  19.637  0.00  0.00    +0.000 N 
ATOM     15  H   UNL     1       0.898   9.102  18.662  0.00  0.00    +0.000 HD
BRANCH  14  16
ATOM     16  C   UNL     1       0.229  10.612  19.991  0.00  0.00    +0.000 C 
BRANCH  16  17
ATOM     17  C   UNL     1      -1.011  10.805  19.157  0.00  0.00    +0.000 A 
ATOM     18  C   UNL     1      -2.011  11.706  19.558  0.00  0.00    +0.000 A 
ATOM     19  C   UNL     1      -3.143  11.907  18.764  0.00  0.00    +0.000 A 
ATOM     20  C   UNL     1      -3.287  11.205  17.568  0.00  0.00    +0.000 A 
ATOM     21 CL   UNL     1      -4.668  11.473  16.579  0.00  0.00    +0.000 Cl
ATOM     22  C   UNL     1      -2.315  10.289  17.168  0.00  0.00    +0.000 A 
ATOM     23  C   UNL     1      -1.184  10.086  17.964  0.00  0.00    +0.000 A 
ENDBRANCH  16  17
ENDBRANCH  14  16
ENDBRANCH   6  12
BRANCH   1  24
ATOM     24  C   UNL     1       5.169   3.411  16.261  0.00  0.00    +0.000 C 
BRANCH  24  26
ATOM     25  C   UNL     1       7.240   4.517  16.955  0.00  0.00    +0.000 C 
ATOM     26  N   UNL     1       6.431   4.048  15.825  0.00  0.00    +0.000 NA
BRANCH  26  27
ATOM     27  C   UNL     1       6.150   5.207  14.941  0.00  0.00    +0.000 C 
BRANCH  27  28
ATOM     28  C   UNL     1       6.801   5.218  13.529  0.00  0.00    +0.000 C 
BRANCH  28  29
ATOM     29  C   UNL     1       6.470   4.016  12.702  0.00  0.00    +0.000 A 
ATOM     30  C   UNL     1       5.191   3.430  12.465  0.00  0.00    +0.000 A 
ATOM     31  C   UNL     1       5.404   2.342  11.651  0.00  0.00    +0.000 A 
ATOM     32  O   UNL     1       6.722   2.217  11.362  0.00  0.00    +0.000 OA
ATOM     33  C   UNL     1       7.362   3.231  11.997  0.00  0.00    +0.000 A 
ENDBRANCH  28  29
BRANCH  28  34
ATOM     34  O   UNL     1       8.219   5.349  13.687  0.00  0.00    +0.000 OA
ATOM     35  H   UNL     1       8.469   4.809  14.454  0.00  0.00    +0.000 HD
ENDBRANCH  28  34
ENDBRANCH  27  28
ENDBRANCH  26  27
ENDBRANCH  24  26
ENDBRANCH   1  24
TORSDOF 9
ENDMDL
MODEL 4
REMARK VINA RESULT:      -7.7      2.914      4.456
REMARK  Name = 
REMARK  11 active torsions:
REMARK  status: ('A' for Active; 'I' for Inactive)
REMARK    1  A    between atoms: C_1  and  N_2
REMARK    2  A    between atoms: N_2  and  C_3
REMARK    3  A    between atoms: N_2  and  C_26
REMARK    4  A    between atoms: C_3  and  C_4
REMARK    5  A    between atoms: C_9  and  C_10
REMARK    6  A    between atoms: N_12  and  C_13
REMARK    7  A    between atoms: C_13  and  C_14
REMARK    8  A    between atoms: N_22  and  C_23
REMARK    9  A    between atoms: C_26  and  C_27
REMARK   10  A    between atoms: C_27  and  O_28
REMARK   11  A    between atoms: C_27  and  C_29
REMARK                            x       y       z     vdW  Elec       q    Type
REMARK                         _______ _______ _______ _____ _____    ______ ____
ROOT
ATOM      1  C   UNL     1       4.500   4.114  17.256  0.00  0.00    +0.000 A 
ATOM      2  C   UNL     1       4.056   5.421  17.233  0.00  0.00    +0.000 A 
ATOM      3  C   UNL     1       3.346   5.772  18.427  0.00  0.00    +0.000 A 
ATOM      4  C   UNL     1       2.761   7.067  18.758  0.00  0.00    +0.000 A 
ATOM      5  O   UNL     1       2.899   8.062  18.052  0.00  0.00    +0.000 OA
ATOM      6  C   UNL     1       1.985   7.109  20.035  0.00  0.00    +0.000 A 
ATOM      7  C   UNL     1       1.874   5.972  20.756  0.00  0.00    +0.000 A 
ATOM      8  N   UNL     1       2.473   4.757  20.433  0.00  0.00    +0.000 N 
ATOM      9  C   UNL     1       2.214   3.530  21.189  0.00  0.00    +0.000 C 
ATOM     10  C   UNL     1       3.220   4.695  19.288  0.00  0.00    +0.000 A 
ATOM     11  S   UNL     1       4.139   3.363  18.752  0.00  0.00    +0.000 S 
ENDROOT
BRANCH   6  12
ATOM     12  C   UNL     1       1.340   8.337  20.569  0.00  0.00    +0.000 C 
ATOM     13  O   UNL     1       1.042   8.441  21.756  0.00  0.00    +0.000 OA
ATOM     14  N   UNL     1       1.132   9.341  19.657  0.00  0.00    +0.000 N 
ATOM     15  H   UNL     1       1.264   9.138  18.666  0.00  0.00    +0.000 HD
BRANCH  14  16
ATOM     16  C   UNL     1       0.438  10.556  20.009  0.00  0.00    +0.000 C 
BRANCH  16  17
ATOM     17  C   UNL     1      -0.791  10.761  19.160  0.00  0.00    +0.000 A 
ATOM     18  C   UNL     1      -0.953  10.064  17.953  0.00  0.00    +0.000 A 
ATOM     19  C   UNL     1      -2.110  10.232  17.187  0.00  0.00    +0.000 A 
ATOM     20  C   UNL     1      -3.108  11.104  17.619  0.00  0.00    +0.000 A 
ATOM     21 CL   UNL     1      -4.543  11.290  16.688  0.00  0.00    +0.000 Cl
ATOM     22  C   UNL     1      -2.953  11.822  18.803  0.00  0.00    +0.000 A 
ATOM     23  C   UNL     1      -1.794  11.655  19.568  0.00  0.00    +0.000 A 
ENDBRANCH  16  17
ENDBRANCH  14  16
ENDBRANCH   6  12
BRANCH   1  24
ATOM     24  C   UNL     1       5.272   3.364  16.206  0.00  0.00    +0.000 C 
BRANCH  24  26
ATOM     25  C   UNL     1       7.303   4.538  16.908  0.00  0.00    +0.000 C 
ATOM     26  N   UNL     1       6.519   4.035  15.775  0.00  0.00    +0.000 NA
BRANCH  26  27
ATOM     27  C   UNL     1       6.211   5.177  14.878  0.00  0.00    +0.000 C 
BRANCH  27  28
ATOM     28  C   UNL     1       6.820   5.162  13.448  0.00  0.00    +0.000 C 
BRANCH  28  29
ATOM     29  C   UNL     1       6.454   3.951  12.648  0.00  0.00    +0.000 A 
ATOM     30  C   UNL     1       7.313   3.088  11.908  0.00  0.00    +0.000 A 
ATOM     31  C   UNL     1       6.509   2.127  11.340  0.00  0.00    +0.000 A 
ATOM     32  O   UNL     1       5.213   2.333  11.680  0.00  0.00    +0.000 OA
ATOM     33  C   UNL     1       5.185   3.434  12.472  0.00  0.00    +0.000 A 
ENDBRANCH  28  29
BRANCH  28  34
ATOM     34  O   UNL     1       8.243   5.282  13.562  0.00  0.00    +0.000 OA
ATOM     35  H   UNL     1       8.621   4.974  12.723  0.00  0.00    +0.000 HD
ENDBRANCH  28  34
ENDBRANCH  27  28
ENDBRANCH  26  27
ENDBRANCH  24  26
ENDBRANCH   1  24
TORSDOF 9
ENDMDL
MODEL 5
REMARK VINA RESULT:      -7.5      3.034      3.708
REMARK  Name = 
REMARK  11 active torsions:
REMARK  status: ('A' for Active; 'I' for Inactive)
REMARK    1  A    between atoms: C_1  and  N_2
REMARK    2  A    between atoms: N_2  and  C_3
REMARK    3  A    between atoms: N_2  and  C_26
REMARK    4  A    between atoms: C_3  and  C_4
REMARK    5  A    between atoms: C_9  and  C_10
REMARK    6  A    between atoms: N_12  and  C_13
REMARK    7  A    between atoms: C_13  and  C_14
REMARK    8  A    between atoms: N_22  and  C_23
REMARK    9  A    between atoms: C_26  and  C_27
REMARK   10  A    between atoms: C_27  and  O_28
REMARK   11  A    between atoms: C_27  and  C_29
REMARK                            x       y       z     vdW  Elec       q    Type
REMARK                         _______ _______ _______ _____ _____    ______ ____
ROOT
ATOM      1  C   UNL     1       4.229   5.611  17.137  0.00  0.00    +0.000 A 
ATOM      2  C   UNL     1       3.765   6.900  16.960  0.00  0.00    +0.000 A 
ATOM      3  C   UNL     1       2.994   7.355  18.078  0.00  0.00    +0.000 A 
ATOM      4  C   UNL     1       2.373   8.665  18.247  0.00  0.00    +0.000 A 
ATOM      5  O   UNL     1       2.528   9.585  17.449  0.00  0.00    +0.000 OA
ATOM      6  C   UNL     1       1.537   8.820  19.477  0.00  0.00    +0.000 A 
ATOM      7  C   UNL     1       1.410   7.761  20.305  0.00  0.00    +0.000 A 
ATOM      8  N   UNL     1       2.043   6.532  20.136  0.00  0.00    +0.000 N 
ATOM      9  C   UNL     1       1.768   5.383  21.002  0.00  0.00    +0.000 C 
ATOM     10  C   UNL     1       2.844   6.369  19.039  0.00  0.00    +0.000 A 
ATOM     11  S   UNL     1       3.810   5.009  18.685  0.00  0.00    +0.000 S 
ENDROOT
BRANCH   6  12
ATOM     12  C   UNL     1       0.847  10.082  19.851  0.00  0.00    +0.000 C 
ATOM     13  O   UNL     1       0.952  10.561  20.977  0.00  0.00    +0.000 OA
ATOM     14  N   UNL     1       0.119  10.679  18.852  0.00  0.00    +0.000 N 
ATOM     15  H   UNL     1      -0.048  10.159  17.991  0.00  0.00    +0.000 HD
BRANCH  14  16
ATOM     16  C   UNL     1      -0.674  11.860  19.090  0.00  0.00    +0.000 C 
BRANCH  16  17
ATOM     17  C   UNL     1      -2.138  11.610  18.835  0.00  0.00    +0.000 A 
ATOM     18  C   UNL     1      -2.549  10.591  17.961  0.00  0.00    +0.000 A 
ATOM     19  C   UNL     1      -3.908  10.341  17.754  0.00  0.00    +0.000 A 
ATOM     20  C   UNL     1      -4.864  11.112  18.412  0.00  0.00    +0.000 A 
ATOM     21 CL   UNL     1      -6.537  10.786  18.175  0.00  0.00    +0.000 Cl
ATOM     22  C   UNL     1      -4.474  12.143  19.264  0.00  0.00    +0.000 A 
ATOM     23  C   UNL     1      -3.114  12.395  19.469  0.00  0.00    +0.000 A 
ENDBRANCH  16  17
ENDBRANCH  14  16
ENDBRANCH   6  12
BRANCH   1  24
ATOM     24  C   UNL     1       5.062   4.775  16.207  0.00  0.00    +0.000 C 
BRANCH  24  26
ATOM     25  C   UNL     1       6.981   4.940  14.694  0.00  0.00    +0.000 C 
ATOM     26  N   UNL     1       6.445   5.268  16.020  0.00  0.00    +0.000 NA
BRANCH  26  27
ATOM     27  C   UNL     1       7.347   4.684  17.044  0.00  0.00    +0.000 C 
BRANCH  27  28
ATOM     28  C   UNL     1       7.479   5.427  18.403  0.00  0.00    +0.000 C 
BRANCH  28  29
ATOM     29  C   UNL     1       7.775   6.887  18.267  0.00  0.00    +0.000 A 
ATOM     30  C   UNL     1       7.276   7.804  17.296  0.00  0.00    +0.000 A 
ATOM     31  C   UNL     1       7.843   9.024  17.581  0.00  0.00    +0.000 A 
ATOM     32  O   UNL     1       8.653   8.929  18.663  0.00  0.00    +0.000 OA
ATOM     33  C   UNL     1       8.608   7.637  19.076  0.00  0.00    +0.000 A 
ENDBRANCH  28  29
BRANCH  28  34
ATOM     34  O   UNL     1       8.494   4.775  19.176  0.00  0.00    +0.000 OA
ATOM     35  H   UNL     1       9.337   4.921  18.718  0.00  0.00    +0.000 HD
ENDBRANCH  28  34
ENDBRANCH  27  28
ENDBRANCH  26  27
ENDBRANCH  24  26
ENDBRANCH   1  24
TORSDOF 9
ENDMDL
MODEL 6
REMARK VINA RESULT:      -7.4      4.185      5.885
REMARK  Name = 
REMARK  11 active torsions:
REMARK  status: ('A' for Active; 'I' for Inactive)
REMARK    1  A    between atoms: C_1  and  N_2
REMARK    2  A    between atoms: N_2  and  C_3
REMARK    3  A    between atoms: N_2  and  C_26
REMARK    4  A    between atoms: C_3  and  C_4
REMARK    5  A    between atoms: C_9  and  C_10
REMARK    6  A    between atoms: N_12  and  C_13
REMARK    7  A    between atoms: C_13  and  C_14
REMARK    8  A    between atoms: N_22  and  C_23
REMARK    9  A    between atoms: C_26  and  C_27
REMARK   10  A    between atoms: C_27  and  O_28
REMARK   11  A    between atoms: C_27  and  C_29
REMARK                            x       y       z     vdW  Elec       q    Type
REMARK                         _______ _______ _______ _____ _____    ______ ____
ROOT
ATOM      1  C   UNL     1       1.893   7.200  20.166  0.00  0.00    +0.000 A 
ATOM      2  C   UNL     1       1.111   7.840  21.108  0.00  0.00    +0.000 A 
ATOM      3  C   UNL     1       0.784   9.180  20.719  0.00  0.00    +0.000 A 
ATOM      4  C   UNL     1      -0.040  10.136  21.451  0.00  0.00    +0.000 A 
ATOM      5  O   UNL     1      -0.639   9.847  22.484  0.00  0.00    +0.000 OA
ATOM      6  C   UNL     1      -0.121  11.501  20.848  0.00  0.00    +0.000 A 
ATOM      7  C   UNL     1       0.569  11.744  19.713  0.00  0.00    +0.000 A 
ATOM      8  N   UNL     1       1.320  10.802  19.016  0.00  0.00    +0.000 N 
ATOM      9  C   UNL     1       2.145  11.157  17.859  0.00  0.00    +0.000 C 
ATOM     10  C   UNL     1       1.386   9.532  19.522  0.00  0.00    +0.000 A 
ATOM     11  S   UNL     1       2.138   8.188  18.790  0.00  0.00    +0.000 S 
ENDROOT
BRANCH   6  12
ATOM     12  C   UNL     1      -0.933  12.608  21.419  0.00  0.00    +0.000 C 
ATOM     13  O   UNL     1      -1.687  13.277  20.718  0.00  0.00    +0.000 OA
ATOM     14  N   UNL     1      -0.801  12.804  22.771  0.00  0.00    +0.000 N 
ATOM     15  H   UNL     1      -0.054  12.317  23.266  0.00  0.00    +0.000 HD
BRANCH  14  16
ATOM     16  C   UNL     1      -1.459  13.894  23.449  0.00  0.00    +0.000 C 
BRANCH  16  17
ATOM     17  C   UNL     1      -2.937  13.643  23.605  0.00  0.00    +0.000 A 
ATOM     18  C   UNL     1      -3.875  14.554  23.094  0.00  0.00    +0.000 A 
ATOM     19  C   UNL     1      -5.245  14.300  23.211  0.00  0.00    +0.000 A 
ATOM     20  C   UNL     1      -5.684  13.139  23.845  0.00  0.00    +0.000 A 
ATOM     21 CL   UNL     1      -7.370  12.816  23.965  0.00  0.00    +0.000 Cl
ATOM     22  C   UNL     1      -4.766  12.237  24.378  0.00  0.00    +0.000 A 
ATOM     23  C   UNL     1      -3.397  12.492  24.264  0.00  0.00    +0.000 A 
ENDBRANCH  16  17
ENDBRANCH  14  16
ENDBRANCH   6  12
BRANCH   1  24
ATOM     24  C   UNL     1       2.448   5.803  20.197  0.00  0.00    +0.000 C 
BRANCH  24  26
ATOM     25  C   UNL     1       1.277   3.836  19.329  0.00  0.00    +0.000 C 
ATOM     26  N   UNL     1       2.119   4.993  19.004  0.00  0.00    +0.000 NA
BRANCH  26  27
ATOM     27  C   UNL     1       3.359   4.498  18.354  0.00  0.00    +0.000 C 
BRANCH  27  28
ATOM     28  C   UNL     1       4.714   4.794  19.056  0.00  0.00    +0.000 C 
BRANCH  28  29
ATOM     29  C   UNL     1       5.620   5.686  18.267  0.00  0.00    +0.000 A 
ATOM     30  C   UNL     1       7.035   5.830  18.379  0.00  0.00    +0.000 A 
ATOM     31  C   UNL     1       7.406   6.773  17.449  0.00  0.00    +0.000 A 
ATOM     32  O   UNL     1       6.323   7.218  16.766  0.00  0.00    +0.000 OA
ATOM     33  C   UNL     1       5.247   6.557  17.262  0.00  0.00    +0.000 A 
ENDBRANCH  28  29
BRANCH  28  34
ATOM     34  O   UNL     1       5.355   3.545  19.342  0.00  0.00    +0.000 OA
ATOM     35  H   UNL     1       5.090   3.290  20.240  0.00  0.00    +0.000 HD
ENDBRANCH  28  34
ENDBRANCH  27  28
ENDBRANCH  26  27
ENDBRANCH  24  26
ENDBRANCH   1  24
TORSDOF 9
ENDMDL
MODEL 7
REMARK VINA RESULT:      -7.4      2.774      4.767
REMARK  Name = 
REMARK  11 active torsions:
REMARK  status: ('A' for Active; 'I' for Inactive)
REMARK    1  A    between atoms: C_1  and  N_2
REMARK    2  A    between atoms: N_2  and  C_3
REMARK    3  A    between atoms: N_2  and  C_26
REMARK    4  A    between atoms: C_3  and  C_4
REMARK    5  A    between atoms: C_9  and  C_10
REMARK    6  A    between atoms: N_12  and  C_13
REMARK    7  A    between atoms: C_13  and  C_14
REMARK    8  A    between atoms: N_22  and  C_23
REMARK    9  A    between atoms: C_26  and  C_27
REMARK   10  A    between atoms: C_27  and  O_28
REMARK   11  A    between atoms: C_27  and  C_29
REMARK                            x       y       z     vdW  Elec       q    Type
REMARK                         _______ _______ _______ _____ _____    ______ ____
ROOT
ATOM      1  C   UNL     1       2.588   6.693  18.392  0.00  0.00    +0.000 A 
ATOM      2  C   UNL     1       2.624   7.951  17.822  0.00  0.00    +0.000 A 
ATOM      3  C   UNL     1       2.029   8.944  18.665  0.00  0.00    +0.000 A 
ATOM      4  C   UNL     1       1.914  10.374  18.399  0.00  0.00    +0.000 A 
ATOM      5  O   UNL     1       2.416  10.913  17.417  0.00  0.00    +0.000 OA
ATOM      6  C   UNL     1       1.146  11.153  19.419  0.00  0.00    +0.000 A 
ATOM      7  C   UNL     1       0.619  10.489  20.470  0.00  0.00    +0.000 A 
ATOM      8  N   UNL     1       0.775   9.128  20.717  0.00  0.00    +0.000 N 
ATOM      9  C   UNL     1       0.076   8.444  21.808  0.00  0.00    +0.000 C 
ATOM     10  C   UNL     1       1.502   8.393  19.821  0.00  0.00    +0.000 A 
ATOM     11  S   UNL     1       1.927   6.748  19.970  0.00  0.00    +0.000 S 
ENDROOT
BRANCH   6  12
ATOM     12  C   UNL     1       0.943  12.624  19.352  0.00  0.00    +0.000 C 
ATOM     13  O   UNL     1      -0.178  13.112  19.239  0.00  0.00    +0.000 OA
ATOM     14  N   UNL     1       2.081  13.385  19.455  0.00  0.00    +0.000 N 
ATOM     15  H   UNL     1       2.987  12.921  19.399  0.00  0.00    +0.000 HD
BRANCH  14  16
ATOM     16  C   UNL     1       2.050  14.821  19.320  0.00  0.00    +0.000 C 
BRANCH  16  17
ATOM     17  C   UNL     1       3.425  15.387  19.075  0.00  0.00    +0.000 A 
ATOM     18  C   UNL     1       3.807  16.612  19.644  0.00  0.00    +0.000 A 
ATOM     19  C   UNL     1       5.094  17.117  19.442  0.00  0.00    +0.000 A 
ATOM     20  C   UNL     1       6.005  16.405  18.664  0.00  0.00    +0.000 A 
ATOM     21 CL   UNL     1       7.597  17.015  18.437  0.00  0.00    +0.000 Cl
ATOM     22  C   UNL     1       5.634  15.199  18.072  0.00  0.00    +0.000 A 
ATOM     23  C   UNL     1       4.346  14.696  18.273  0.00  0.00    +0.000 A 
ENDBRANCH  16  17
ENDBRANCH  14  16
ENDBRANCH   6  12
BRANCH   1  24
ATOM     24  C   UNL     1       3.097   5.393  17.835  0.00  0.00    +0.000 C 
BRANCH  24  26
ATOM     25  C   UNL     1       5.424   5.502  18.588  0.00  0.00    +0.000 C 
ATOM     26  N   UNL     1       4.160   4.760  18.647  0.00  0.00    +0.000 NA
BRANCH  26  27
ATOM     27  C   UNL     1       4.412   3.373  18.181  0.00  0.00    +0.000 C 
BRANCH  27  28
ATOM     28  C   UNL     1       3.982   2.205  19.112  0.00  0.00    +0.000 C 
BRANCH  28  29
ATOM     29  C   UNL     1       2.755   2.496  19.918  0.00  0.00    +0.000 A 
ATOM     30  C   UNL     1       2.646   2.671  21.329  0.00  0.00    +0.000 A 
ATOM     31  C   UNL     1       1.316   2.908  21.592  0.00  0.00    +0.000 A 
ATOM     32  O   UNL     1       0.597   2.897  20.444  0.00  0.00    +0.000 OA
ATOM     33  C   UNL     1       1.470   2.650  19.435  0.00  0.00    +0.000 A 
ENDBRANCH  28  29
BRANCH  28  34
ATOM     34  O   UNL     1       5.085   1.880  19.967  0.00  0.00    +0.000 OA
ATOM     35  H   UNL     1       4.774   1.196  20.582  0.00  0.00    +0.000 HD
ENDBRANCH  28  34
ENDBRANCH  27  28
ENDBRANCH  26  27
ENDBRANCH  24  26
ENDBRANCH   1  24
TORSDOF 9
ENDMDL
MODEL 8
REMARK VINA RESULT:      -7.4      4.000      6.134
REMARK  Name = 
REMARK  11 active torsions:
REMARK  status: ('A' for Active; 'I' for Inactive)
REMARK    1  A    between atoms: C_1  and  N_2
REMARK    2  A    between atoms: N_2  and  C_3
REMARK    3  A    between atoms: N_2  and  C_26
REMARK    4  A    between atoms: C_3  and  C_4
REMARK    5  A    between atoms: C_9  and  C_10
REMARK    6  A    between atoms: N_12  and  C_13
REMARK    7  A    between atoms: C_13  and  C_14
REMARK    8  A    between atoms: N_22  and  C_23
REMARK    9  A    between atoms: C_26  and  C_27
REMARK   10  A    between atoms: C_27  and  O_28
REMARK   11  A    between atoms: C_27  and  C_29
REMARK                            x       y       z     vdW  Elec       q    Type
REMARK                         _______ _______ _______ _____ _____    ______ ____
ROOT
ATOM      1  C   UNL     1       2.468   7.057  18.504  0.00  0.00    +0.000 A 
ATOM      2  C   UNL     1       1.825   7.113  19.725  0.00  0.00    +0.000 A 
ATOM      3  C   UNL     1       1.379   8.437  20.042  0.00  0.00    +0.000 A 
ATOM      4  C   UNL     1       0.646   8.861  21.231  0.00  0.00    +0.000 A 
ATOM      5  O   UNL     1       0.240   8.073  22.081  0.00  0.00    +0.000 OA
ATOM      6  C   UNL     1       0.406  10.332  21.340  0.00  0.00    +0.000 A 
ATOM      7  C   UNL     1       0.887  11.135  20.368  0.00  0.00    +0.000 A 
ATOM      8  N   UNL     1       1.554  10.700  19.226  0.00  0.00    +0.000 N 
ATOM      9  C   UNL     1       2.159  11.628  18.269  0.00  0.00    +0.000 C 
ATOM     10  C   UNL     1       1.758   9.354  19.077  0.00  0.00    +0.000 A 
ATOM     11  S   UNL     1       2.437   8.578  17.719  0.00  0.00    +0.000 S 
ENDROOT
BRANCH   6  12
ATOM     12  C   UNL     1      -0.349  10.964  22.455  0.00  0.00    +0.000 C 
ATOM     13  O   UNL     1      -0.522  10.383  23.522  0.00  0.00    +0.000 OA
ATOM     14  N   UNL     1      -0.804  12.237  22.215  0.00  0.00    +0.000 N 
ATOM     15  H   UNL     1      -0.756  12.603  21.265  0.00  0.00    +0.000 HD
BRANCH  14  16
ATOM     16  C   UNL     1      -1.625  12.943  23.168  0.00  0.00    +0.000 C 
BRANCH  16  17
ATOM     17  C   UNL     1      -3.085  12.881  22.800  0.00  0.00    +0.000 A 
ATOM     18  C   UNL     1      -3.481  12.722  21.463  0.00  0.00    +0.000 A 
ATOM     19  C   UNL     1      -4.835  12.631  21.130  0.00  0.00    +0.000 A 
ATOM     20  C   UNL     1      -5.802  12.705  22.131  0.00  0.00    +0.000 A 
ATOM     21 CL   UNL     1      -7.467  12.568  21.723  0.00  0.00    +0.000 Cl
ATOM     22  C   UNL     1      -5.427  12.887  23.461  0.00  0.00    +0.000 A 
ATOM     23  C   UNL     1      -4.073  12.981  23.793  0.00  0.00    +0.000 A 
ENDBRANCH  16  17
ENDBRANCH  14  16
ENDBRANCH   6  12
BRANCH   1  24
ATOM     24  C   UNL     1       3.081   5.869  17.817  0.00  0.00    +0.000 C 
BRANCH  24  26
ATOM     25  C   UNL     1       5.391   5.872  18.631  0.00  0.00    +0.000 C 
ATOM     26  N   UNL     1       4.105   5.165  18.621  0.00  0.00    +0.000 NA
BRANCH  26  27
ATOM     27  C   UNL     1       4.330   3.797  18.092  0.00  0.00    +0.000 C 
BRANCH  27  28
ATOM     28  C   UNL     1       4.077   2.598  19.048  0.00  0.00    +0.000 C 
BRANCH  28  29
ATOM     29  C   UNL     1       2.836   2.734  19.873  0.00  0.00    +0.000 A 
ATOM     30  C   UNL     1       2.717   2.762  21.293  0.00  0.00    +0.000 A 
ATOM     31  C   UNL     1       1.377   2.893  21.572  0.00  0.00    +0.000 A 
ATOM     32  O   UNL     1       0.658   2.953  20.424  0.00  0.00    +0.000 OA
ATOM     33  C   UNL     1       1.544   2.859  19.401  0.00  0.00    +0.000 A 
ENDBRANCH  28  29
BRANCH  28  34
ATOM     34  O   UNL     1       5.228   2.439  19.887  0.00  0.00    +0.000 OA
ATOM     35  H   UNL     1       6.007   2.474  19.308  0.00  0.00    +0.000 HD
ENDBRANCH  28  34
ENDBRANCH  27  28
ENDBRANCH  26  27
ENDBRANCH  24  26
ENDBRANCH   1  24
TORSDOF 9
ENDMDL
MODEL 9
REMARK VINA RESULT:      -7.3      2.455      4.013
REMARK  Name = 
REMARK  11 active torsions:
REMARK  status: ('A' for Active; 'I' for Inactive)
REMARK    1  A    between atoms: C_1  and  N_2
REMARK    2  A    between atoms: N_2  and  C_3
REMARK    3  A    between atoms: N_2  and  C_26
REMARK    4  A    between atoms: C_3  and  C_4
REMARK    5  A    between atoms: C_9  and  C_10
REMARK    6  A    between atoms: N_12  and  C_13
REMARK    7  A    between atoms: C_13  and  C_14
REMARK    8  A    between atoms: N_22  and  C_23
REMARK    9  A    between atoms: C_26  and  C_27
REMARK   10  A    between atoms: C_27  and  O_28
REMARK   11  A    between atoms: C_27  and  C_29
REMARK                            x       y       z     vdW  Elec       q    Type
REMARK                         _______ _______ _______ _____ _____    ______ ____
ROOT
ATOM      1  C   UNL     1       2.107   6.817  19.566  0.00  0.00    +0.000 A 
ATOM      2  C   UNL     1       2.313   7.851  18.673  0.00  0.00    +0.000 A 
ATOM      3  C   UNL     1       1.803   9.097  19.161  0.00  0.00    +0.000 A 
ATOM      4  C   UNL     1       1.866  10.397  18.501  0.00  0.00    +0.000 A 
ATOM      5  O   UNL     1       2.470  10.582  17.448  0.00  0.00    +0.000 OA
ATOM      6  C   UNL     1       1.151  11.505  19.205  0.00  0.00    +0.000 A 
ATOM      7  C   UNL     1       0.506  11.223  20.357  0.00  0.00    +0.000 A 
ATOM      8  N   UNL     1       0.491   9.979  20.983  0.00  0.00    +0.000 N 
ATOM      9  C   UNL     1      -0.328   9.706  22.166  0.00  0.00    +0.000 C 
ATOM     10  C   UNL     1       1.166   8.951  20.382  0.00  0.00    +0.000 A 
ATOM     11  S   UNL     1       1.390   7.383  21.013  0.00  0.00    +0.000 S 
ENDROOT
BRANCH   6  12
ATOM     12  C   UNL     1       1.123  12.909  18.718  0.00  0.00    +0.000 C 
ATOM     13  O   UNL     1       0.084  13.431  18.324  0.00  0.00    +0.000 OA
ATOM     14  N   UNL     1       2.321  13.578  18.770  0.00  0.00    +0.000 N 
ATOM     15  H   UNL     1       3.170  13.048  18.966  0.00  0.00    +0.000 HD
BRANCH  14  16
ATOM     16  C   UNL     1       2.467  14.916  18.251  0.00  0.00    +0.000 C 
BRANCH  16  17
ATOM     17  C   UNL     1       3.877  15.425  18.409  0.00  0.00    +0.000 A 
ATOM     18  C   UNL     1       4.966  14.674  17.939  0.00  0.00    +0.000 A 
ATOM     19  C   UNL     1       6.269  15.165  18.057  0.00  0.00    +0.000 A 
ATOM     20  C   UNL     1       6.492  16.405  18.652  0.00  0.00    +0.000 A 
ATOM     21 CL   UNL     1       8.095  17.019  18.774  0.00  0.00    +0.000 Cl
ATOM     22  C   UNL     1       5.425  17.152  19.146  0.00  0.00    +0.000 A 
ATOM     23  C   UNL     1       4.121  16.659  19.030  0.00  0.00    +0.000 A 
ENDBRANCH  16  17
ENDBRANCH  14  16
ENDBRANCH   6  12
BRANCH   1  24
ATOM     24  C   UNL     1       2.485   5.368  19.431  0.00  0.00    +0.000 C 
BRANCH  24  26
ATOM     25  C   UNL     1       1.823   3.610  17.860  0.00  0.00    +0.000 C 
ATOM     26  N   UNL     1       2.535   4.881  18.034  0.00  0.00    +0.000 NA
BRANCH  26  27
ATOM     27  C   UNL     1       3.941   4.690  17.601  0.00  0.00    +0.000 C 
BRANCH  27  28
ATOM     28  C   UNL     1       5.045   4.692  18.695  0.00  0.00    +0.000 C 
BRANCH  28  29
ATOM     29  C   UNL     1       6.160   5.653  18.426  0.00  0.00    +0.000 A 
ATOM     30  C   UNL     1       6.240   6.655  17.415  0.00  0.00    +0.000 A 
ATOM     31  C   UNL     1       7.460   7.272  17.570  0.00  0.00    +0.000 A 
ATOM     32  O   UNL     1       8.138   6.725  18.608  0.00  0.00    +0.000 OA
ATOM     33  C   UNL     1       7.349   5.750  19.124  0.00  0.00    +0.000 A 
ENDBRANCH  28  29
BRANCH  28  34
ATOM     34  O   UNL     1       5.549   3.358  18.830  0.00  0.00    +0.000 OA
ATOM     35  H   UNL     1       6.153   3.359  19.590  0.00  0.00    +0.000 HD
ENDBRANCH  28  34
ENDBRANCH  27  28
ENDBRANCH  26  27
ENDBRANCH  24  26
ENDBRANCH   1  24
TORSDOF 9
ENDMDL
