MODEL 1
REMARK VINA RESULT:      -7.1      0.000      0.000
REMARK  Name = 
REMARK  5 active torsions:
REMARK  status: ('A' for Active; 'I' for Inactive)
REMARK    1  A    between atoms: C_1  and  C_2
REMARK    2  A    between atoms: C_2  and  S_3
REMARK    3  A    between atoms: S_3  and  C_6
REMARK    4  A    between atoms: C_11  and  C_12
REMARK    5  A    between atoms: C_18  and  N_19
REMARK                            x       y       z     vdW  Elec       q    Type
REMARK                         _______ _______ _______ _____ _____    ______ ____
ROOT
ATOM      1  C   UNL     1       3.446   6.367  19.022  0.00  0.00    +0.000 C 
ATOM      2  O   UNL     1       3.789   5.959  20.128  0.00  0.00    +0.000 OA
ATOM      3  N   UNL     1       2.634   7.530  18.916  0.00  0.00    +0.000 N 
ATOM      4  C   UNL     1       2.223   8.166  17.662  0.00  0.00    +0.000 C 
ATOM      5  C   UNL     1       1.994   9.665  17.782  0.00  0.00    +0.000 C 
ATOM      6  C   UNL     1       0.998   9.977  18.884  0.00  0.00    +0.000 C 
ATOM      7  C   UNL     1       1.464   9.380  20.219  0.00  0.00    +0.000 C 
ATOM      8  C   UNL     1       1.805   7.879  20.098  0.00  0.00    +0.000 C 
ENDROOT
BRANCH   1  14
ATOM      9  C   UNL     1       3.589   4.282  17.475  0.00  0.00    +0.000 A 
ATOM     10  C   UNL     1       4.183   3.659  16.349  0.00  0.00    +0.000 A 
ATOM     11  C   UNL     1       5.088   4.333  15.536  0.00  0.00    +0.000 A 
ATOM     12  C   UNL     1       5.352   5.665  15.789  0.00  0.00    +0.000 A 
ATOM     13  C   UNL     1       4.740   6.297  16.875  0.00  0.00    +0.000 A 
ATOM     14  C   UNL     1       3.932   5.610  17.807  0.00  0.00    +0.000 A 
BRANCH   9  15
ATOM     15  S   UNL     1       2.310   3.307  18.272  0.00  0.00    +0.000 S 
ATOM     16  O   UNL     1       2.138   2.111  17.456  0.00  0.00    +0.000 OA
ATOM     17  O   UNL     1       1.166   4.162  18.483  0.00  0.00    +0.000 OA
BRANCH  15  19
ATOM     18  C   UNL     1       1.916   2.767  20.940  0.00  0.00    +0.000 C 
ATOM     19  C   UNL     1       2.941   2.714  19.823  0.00  0.00    +0.000 C 
ENDBRANCH  15  19
ENDBRANCH   9  15
ENDBRANCH   1  14
BRANCH   7  20
ATOM     20  N   UNL     1       0.467   9.639  21.255  0.00  0.00    +0.000 N 
ATOM     21  C   UNL     1       0.292   8.942  22.419  0.00  0.00    +0.000 A 
ATOM     22  C   UNL     1      -0.660   9.627  23.137  0.00  0.00    +0.000 A 
ATOM     23  C   UNL     1      -0.994  10.728  22.330  0.00  0.00    +0.000 A 
ATOM     24  N   UNL     1      -0.313  10.738  21.181  0.00  0.00    +0.000 NA
ENDBRANCH   7  20
TORSDOF 4
ENDMDL
MODEL 2
REMARK VINA RESULT:      -7.1      1.090      1.235
REMARK  Name = 
REMARK  5 active torsions:
REMARK  status: ('A' for Active; 'I' for Inactive)
REMARK    1  A    between atoms: C_1  and  C_2
REMARK    2  A    between atoms: C_2  and  S_3
REMARK    3  A    between atoms: S_3  and  C_6
REMARK    4  A    between atoms: C_11  and  C_12
REMARK    5  A    between atoms: C_18  and  N_19
REMARK                            x       y       z     vdW  Elec       q    Type
REMARK                         _______ _______ _______ _____ _____    ______ ____
ROOT
ATOM      1  C   UNL     1       3.815   6.125  18.857  0.00  0.00    +0.000 C 
ATOM      2  O   UNL     1       4.291   5.737  19.919  0.00  0.00    +0.000 OA
ATOM      3  N   UNL     1       2.902   7.215  18.845  0.00  0.00    +0.000 N 
ATOM      4  C   UNL     1       2.324   7.827  17.646  0.00  0.00    +0.000 C 
ATOM      5  C   UNL     1       1.982   9.300  17.813  0.00  0.00    +0.000 C 
ATOM      6  C   UNL     1       1.070   9.514  19.006  0.00  0.00    +0.000 C 
ATOM      7  C   UNL     1       1.705   8.945  20.283  0.00  0.00    +0.000 C 
ATOM      8  C   UNL     1       2.159   7.481  20.105  0.00  0.00    +0.000 C 
ENDROOT
BRANCH   1  14
ATOM      9  C   UNL     1       3.955   4.087  17.249  0.00  0.00    +0.000 A 
ATOM     10  C   UNL     1       4.495   3.524  16.066  0.00  0.00    +0.000 A 
ATOM     11  C   UNL     1       5.297   4.266  15.206  0.00  0.00    +0.000 A 
ATOM     12  C   UNL     1       5.506   5.606  15.473  0.00  0.00    +0.000 A 
ATOM     13  C   UNL     1       4.944   6.177  16.619  0.00  0.00    +0.000 A 
ATOM     14  C   UNL     1       4.249   5.425  17.589  0.00  0.00    +0.000 A 
BRANCH   9  15
ATOM     15  S   UNL     1       2.796   3.022  18.113  0.00  0.00    +0.000 S 
ATOM     16  O   UNL     1       3.450   2.629  19.355  0.00  0.00    +0.000 OA
ATOM     17  O   UNL     1       2.381   1.985  17.199  0.00  0.00    +0.000 OA
BRANCH  15  19
ATOM     18  C   UNL     1       1.035   3.798  20.077  0.00  0.00    +0.000 C 
ATOM     19  C   UNL     1       1.405   4.003  18.620  0.00  0.00    +0.000 C 
ENDBRANCH  15  19
ENDBRANCH   9  15
ENDBRANCH   1  14
BRANCH   7  20
ATOM     20  N   UNL     1       0.790   9.108  21.410  0.00  0.00    +0.000 N 
ATOM     21  C   UNL     1      -0.486   8.628  21.508  0.00  0.00    +0.000 A 
ATOM     22  C   UNL     1      -0.904   8.902  22.789  0.00  0.00    +0.000 A 
ATOM     23  C   UNL     1       0.192   9.543  23.392  0.00  0.00    +0.000 A 
ATOM     24  N   UNL     1       1.225   9.675  22.556  0.00  0.00    +0.000 NA
ENDBRANCH   7  20
TORSDOF 4
ENDMDL
MODEL 3
REMARK VINA RESULT:      -7.1      1.819      3.108
REMARK  Name = 
REMARK  5 active torsions:
REMARK  status: ('A' for Active; 'I' for Inactive)
REMARK    1  A    between atoms: C_1  and  C_2
REMARK    2  A    between atoms: C_2  and  S_3
REMARK    3  A    between atoms: S_3  and  C_6
REMARK    4  A    between atoms: C_11  and  C_12
REMARK    5  A    between atoms: C_18  and  N_19
REMARK                            x       y       z     vdW  Elec       q    Type
REMARK                         _______ _______ _______ _____ _____    ______ ____
ROOT
ATOM      1  C   UNL     1       2.427   5.455  20.160  0.00  0.00    +0.000 C 
ATOM      2  O   UNL     1       2.640   5.229  21.347  0.00  0.00    +0.000 OA
ATOM      3  N   UNL     1       2.019   6.754  19.747  0.00  0.00    +0.000 N 
ATOM      4  C   UNL     1       1.810   7.177  18.361  0.00  0.00    +0.000 C 
ATOM      5  C   UNL     1       2.064   8.659  18.128  0.00  0.00    +0.000 C 
ATOM      6  C   UNL     1       1.231   9.508  19.070  0.00  0.00    +0.000 C 
ATOM      7  C   UNL     1       1.505   9.123  20.531  0.00  0.00    +0.000 C 
ATOM      8  C   UNL     1       1.358   7.605  20.770  0.00  0.00    +0.000 C 
ENDROOT
BRANCH   1  14
ATOM      9  C   UNL     1       3.753   4.168  18.331  0.00  0.00    +0.000 A 
ATOM     10  C   UNL     1       3.785   3.108  17.391  0.00  0.00    +0.000 A 
ATOM     11  C   UNL     1       2.744   2.191  17.291  0.00  0.00    +0.000 A 
ATOM     12  C   UNL     1       1.692   2.272  18.184  0.00  0.00    +0.000 A 
ATOM     13  C   UNL     1       1.674   3.292  19.139  0.00  0.00    +0.000 A 
ATOM     14  C   UNL     1       2.634   4.326  19.176  0.00  0.00    +0.000 A 
BRANCH   9  15
ATOM     15  S   UNL     1       5.273   5.119  18.426  0.00  0.00    +0.000 S 
ATOM     16  O   UNL     1       6.274   4.367  17.678  0.00  0.00    +0.000 OA
ATOM     17  O   UNL     1       5.531   5.404  19.818  0.00  0.00    +0.000 OA
BRANCH  15  19
ATOM     18  C   UNL     1       5.087   6.412  16.007  0.00  0.00    +0.000 C 
ATOM     19  C   UNL     1       5.053   6.623  17.509  0.00  0.00    +0.000 C 
ENDBRANCH  15  19
ENDBRANCH   9  15
ENDBRANCH   1  14
BRANCH   7  20
ATOM     20  N   UNL     1       0.655   9.909  21.421  0.00  0.00    +0.000 N 
ATOM     21  C   UNL     1       0.272  11.211  21.254  0.00  0.00    +0.000 A 
ATOM     22  C   UNL     1      -0.630  11.479  22.257  0.00  0.00    +0.000 A 
ATOM     23  C   UNL     1      -0.735  10.275  22.974  0.00  0.00    +0.000 A 
ATOM     24  N   UNL     1       0.048   9.317  22.472  0.00  0.00    +0.000 NA
ENDBRANCH   7  20
TORSDOF 4
ENDMDL
MODEL 4
REMARK VINA RESULT:      -7.1      1.921      3.118
REMARK  Name = 
REMARK  5 active torsions:
REMARK  status: ('A' for Active; 'I' for Inactive)
REMARK    1  A    between atoms: C_1  and  C_2
REMARK    2  A    between atoms: C_2  and  S_3
REMARK    3  A    between atoms: S_3  and  C_6
REMARK    4  A    between atoms: C_11  and  C_12
REMARK    5  A    between atoms: C_18  and  N_19
REMARK                            x       y       z     vdW  Elec       q    Type
REMARK                         _______ _______ _______ _____ _____    ______ ____
ROOT
ATOM      1  C   UNL     1       2.474   5.627  20.030  0.00  0.00    +0.000 C 
ATOM      2  O   UNL     1       2.627   5.414  21.229  0.00  0.00    +0.000 OA
ATOM      3  N   UNL     1       2.070   6.916  19.585  0.00  0.00    +0.000 N 
ATOM      4  C   UNL     1       1.929   7.325  18.185  0.00  0.00    +0.000 C 
ATOM      5  C   UNL     1       2.175   8.808  17.953  0.00  0.00    +0.000 C 
ATOM      6  C   UNL     1       1.282   9.653  18.842  0.00  0.00    +0.000 C 
ATOM      7  C   UNL     1       1.485   9.284  20.318  0.00  0.00    +0.000 C 
ATOM      8  C   UNL     1       1.345   7.767  20.563  0.00  0.00    +0.000 C 
ENDROOT
BRANCH   1  14
ATOM      9  C   UNL     1       3.890   4.366  18.251  0.00  0.00    +0.000 A 
ATOM     10  C   UNL     1       3.984   3.295  17.329  0.00  0.00    +0.000 A 
ATOM     11  C   UNL     1       2.983   2.335  17.221  0.00  0.00    +0.000 A 
ATOM     12  C   UNL     1       1.909   2.387  18.090  0.00  0.00    +0.000 A 
ATOM     13  C   UNL     1       1.829   3.420  19.028  0.00  0.00    +0.000 A 
ATOM     14  C   UNL     1       2.747   4.492  19.070  0.00  0.00    +0.000 A 
BRANCH   9  15
ATOM     15  S   UNL     1       5.369   5.378  18.364  0.00  0.00    +0.000 S 
ATOM     16  O   UNL     1       5.787   5.336  19.761  0.00  0.00    +0.000 OA
ATOM     17  O   UNL     1       5.073   6.663  17.776  0.00  0.00    +0.000 OA
BRANCH  15  19
ATOM     18  C   UNL     1       6.875   5.126  16.077  0.00  0.00    +0.000 C 
ATOM     19  C   UNL     1       6.673   4.566  17.473  0.00  0.00    +0.000 C 
ENDBRANCH  15  19
ENDBRANCH   9  15
ENDBRANCH   1  14
BRANCH   7  20
ATOM     20  N   UNL     1       0.578  10.066  21.156  0.00  0.00    +0.000 N 
ATOM     21  C   UNL     1      -0.328  11.000  20.735  0.00  0.00    +0.000 A 
ATOM     22  C   UNL     1      -1.047  11.367  21.849  0.00  0.00    +0.000 A 
ATOM     23  C   UNL     1      -0.508  10.594  22.892  0.00  0.00    +0.000 A 
ATOM     24  N   UNL     1       0.484   9.803  22.476  0.00  0.00    +0.000 NA
ENDBRANCH   7  20
TORSDOF 4
ENDMDL
MODEL 5
REMARK VINA RESULT:      -6.7      3.604      7.583
REMARK  Name = 
REMARK  5 active torsions:
REMARK  status: ('A' for Active; 'I' for Inactive)
REMARK    1  A    between atoms: C_1  and  C_2
REMARK    2  A    between atoms: C_2  and  S_3
REMARK    3  A    between atoms: S_3  and  C_6
REMARK    4  A    between atoms: C_11  and  C_12
REMARK    5  A    between atoms: C_18  and  N_19
REMARK                            x       y       z     vdW  Elec       q    Type
REMARK                         _______ _______ _______ _____ _____    ______ ____
ROOT
ATOM      1  C   UNL     1       3.038   3.955  17.548  0.00  0.00    +0.000 C 
ATOM      2  O   UNL     1       2.225   3.901  16.631  0.00  0.00    +0.000 OA
ATOM      3  N   UNL     1       4.382   4.340  17.283  0.00  0.00    +0.000 N 
ATOM      4  C   UNL     1       5.428   4.521  18.292  0.00  0.00    +0.000 C 
ATOM      5  C   UNL     1       6.484   5.545  17.903  0.00  0.00    +0.000 C 
ATOM      6  C   UNL     1       7.100   5.206  16.559  0.00  0.00    +0.000 C 
ATOM      7  C   UNL     1       6.015   5.093  15.479  0.00  0.00    +0.000 C 
ATOM      8  C   UNL     1       4.875   4.139  15.897  0.00  0.00    +0.000 C 
ENDROOT
BRANCH   1  14
ATOM      9  C   UNL     1       2.363   4.550  19.987  0.00  0.00    +0.000 A 
ATOM     10  C   UNL     1       1.988   4.095  21.276  0.00  0.00    +0.000 A 
ATOM     11  C   UNL     1       1.778   2.746  21.540  0.00  0.00    +0.000 A 
ATOM     12  C   UNL     1       1.862   1.839  20.501  0.00  0.00    +0.000 A 
ATOM     13  C   UNL     1       2.194   2.286  19.219  0.00  0.00    +0.000 A 
ATOM     14  C   UNL     1       2.556   3.622  18.942  0.00  0.00    +0.000 A 
BRANCH   9  15
ATOM     15  S   UNL     1       2.395   6.337  19.813  0.00  0.00    +0.000 S 
ATOM     16  O   UNL     1       3.801   6.718  19.766  0.00  0.00    +0.000 OA
ATOM     17  O   UNL     1       1.567   6.898  20.855  0.00  0.00    +0.000 OA
BRANCH  15  19
ATOM     18  C   UNL     1       2.161   8.143  17.754  0.00  0.00    +0.000 C 
ATOM     19  C   UNL     1       1.754   6.755  18.211  0.00  0.00    +0.000 C 
ENDBRANCH  15  19
ENDBRANCH   9  15
ENDBRANCH   1  14
BRANCH   7  20
ATOM     20  N   UNL     1       6.618   4.710  14.205  0.00  0.00    +0.000 N 
ATOM     21  C   UNL     1       6.174   3.746  13.342  0.00  0.00    +0.000 A 
ATOM     22  C   UNL     1       6.968   3.837  12.222  0.00  0.00    +0.000 A 
ATOM     23  C   UNL     1       7.857   4.890  12.499  0.00  0.00    +0.000 A 
ATOM     24  N   UNL     1       7.651   5.422  13.706  0.00  0.00    +0.000 NA
ENDBRANCH   7  20
TORSDOF 4
ENDMDL
MODEL 6
REMARK VINA RESULT:      -6.6      3.213      7.555
REMARK  Name = 
REMARK  5 active torsions:
REMARK  status: ('A' for Active; 'I' for Inactive)
REMARK    1  A    between atoms: C_1  and  C_2
REMARK    2  A    between atoms: C_2  and  S_3
REMARK    3  A    between atoms: S_3  and  C_6
REMARK    4  A    between atoms: C_11  and  C_12
REMARK    5  A    between atoms: C_18  and  N_19
REMARK                            x       y       z     vdW  Elec       q    Type
REMARK                         _______ _______ _______ _____ _____    ______ ____
ROOT
ATOM      1  C   UNL     1       3.082   3.869  17.532  0.00  0.00    +0.000 C 
ATOM      2  O   UNL     1       2.267   3.660  16.638  0.00  0.00    +0.000 OA
ATOM      3  N   UNL     1       4.377   4.363  17.211  0.00  0.00    +0.000 N 
ATOM      4  C   UNL     1       5.411   4.728  18.182  0.00  0.00    +0.000 C 
ATOM      5  C   UNL     1       6.354   5.816  17.692  0.00  0.00    +0.000 C 
ATOM      6  C   UNL     1       6.986   5.432  16.367  0.00  0.00    +0.000 C 
ATOM      7  C   UNL     1       5.905   5.126  15.321  0.00  0.00    +0.000 C 
ATOM      8  C   UNL     1       4.872   4.100  15.835  0.00  0.00    +0.000 C 
ENDROOT
BRANCH   1  14
ATOM      9  C   UNL     1       2.410   4.588  19.938  0.00  0.00    +0.000 A 
ATOM     10  C   UNL     1       2.094   4.202  21.264  0.00  0.00    +0.000 A 
ATOM     11  C   UNL     1       1.989   2.864  21.628  0.00  0.00    +0.000 A 
ATOM     12  C   UNL     1       2.120   1.892  20.654  0.00  0.00    +0.000 A 
ATOM     13  C   UNL     1       2.394   2.268  19.336  0.00  0.00    +0.000 A 
ATOM     14  C   UNL     1       2.652   3.604  18.956  0.00  0.00    +0.000 A 
BRANCH   9  15
ATOM     15  S   UNL     1       2.306   6.355  19.637  0.00  0.00    +0.000 S 
ATOM     16  O   UNL     1       1.600   6.514  18.371  0.00  0.00    +0.000 OA
ATOM     17  O   UNL     1       3.636   6.904  19.753  0.00  0.00    +0.000 OA
BRANCH  15  19
ATOM     18  C   UNL     1       1.395   8.571  20.987  0.00  0.00    +0.000 C 
ATOM     19  C   UNL     1       1.227   7.069  20.854  0.00  0.00    +0.000 C 
ENDBRANCH  15  19
ENDBRANCH   9  15
ENDBRANCH   1  14
BRANCH   7  20
ATOM     20  N   UNL     1       6.529   4.703  14.069  0.00  0.00    +0.000 N 
ATOM     21  C   UNL     1       6.123   3.684  13.252  0.00  0.00    +0.000 A 
ATOM     22  C   UNL     1       6.920   3.748  12.133  0.00  0.00    +0.000 A 
ATOM     23  C   UNL     1       7.772   4.842  12.363  0.00  0.00    +0.000 A 
ATOM     24  N   UNL     1       7.540   5.425  13.542  0.00  0.00    +0.000 NA
ENDBRANCH   7  20
TORSDOF 4
ENDMDL
MODEL 7
REMARK VINA RESULT:      -6.6      0.869      1.137
REMARK  Name = 
REMARK  5 active torsions:
REMARK  status: ('A' for Active; 'I' for Inactive)
REMARK    1  A    between atoms: C_1  and  C_2
REMARK    2  A    between atoms: C_2  and  S_3
REMARK    3  A    between atoms: S_3  and  C_6
REMARK    4  A    between atoms: C_11  and  C_12
REMARK    5  A    between atoms: C_18  and  N_19
REMARK                            x       y       z     vdW  Elec       q    Type
REMARK                         _______ _______ _______ _____ _____    ______ ____
ROOT
ATOM      1  C   UNL     1       2.989   6.291  19.516  0.00  0.00    +0.000 C 
ATOM      2  O   UNL     1       3.308   5.968  20.657  0.00  0.00    +0.000 OA
ATOM      3  N   UNL     1       2.311   7.520  19.290  0.00  0.00    +0.000 N 
ATOM      4  C   UNL     1       1.946   8.060  17.978  0.00  0.00    +0.000 C 
ATOM      5  C   UNL     1       1.890   9.580  17.936  0.00  0.00    +0.000 C 
ATOM      6  C   UNL     1       0.959  10.120  19.005  0.00  0.00    +0.000 C 
ATOM      7  C   UNL     1       1.384   9.621  20.394  0.00  0.00    +0.000 C 
ATOM      8  C   UNL     1       1.552   8.087  20.435  0.00  0.00    +0.000 C 
ENDROOT
BRANCH   1  14
ATOM      9  C   UNL     1       2.847   4.057  18.194  0.00  0.00    +0.000 A 
ATOM     10  C   UNL     1       3.344   3.250  17.140  0.00  0.00    +0.000 A 
ATOM     11  C   UNL     1       4.317   3.715  16.263  0.00  0.00    +0.000 A 
ATOM     12  C   UNL     1       4.752   5.022  16.376  0.00  0.00    +0.000 A 
ATOM     13  C   UNL     1       4.238   5.835  17.390  0.00  0.00    +0.000 A 
ATOM     14  C   UNL     1       3.361   5.357  18.387  0.00  0.00    +0.000 A 
BRANCH   9  15
ATOM     15  S   UNL     1       1.464   3.340  19.087  0.00  0.00    +0.000 S 
ATOM     16  O   UNL     1       0.795   2.442  18.153  0.00  0.00    +0.000 OA
ATOM     17  O   UNL     1       0.701   4.421  19.663  0.00  0.00    +0.000 OA
BRANCH  15  19
ATOM     18  C   UNL     1       1.994   2.883  21.746  0.00  0.00    +0.000 C 
ATOM     19  C   UNL     1       2.107   2.280  20.359  0.00  0.00    +0.000 C 
ENDBRANCH  15  19
ENDBRANCH   9  15
ENDBRANCH   1  14
BRANCH   7  20
ATOM     20  N   UNL     1       0.445  10.103  21.405  0.00  0.00    +0.000 N 
ATOM     21  C   UNL     1      -0.359  11.205  21.319  0.00  0.00    +0.000 A 
ATOM     22  C   UNL     1      -1.163  11.182  22.436  0.00  0.00    +0.000 A 
ATOM     23  C   UNL     1      -0.775  10.024  23.131  0.00  0.00    +0.000 A 
ATOM     24  N   UNL     1       0.206   9.365  22.509  0.00  0.00    +0.000 NA
ENDBRANCH   7  20
TORSDOF 4
ENDMDL
MODEL 8
REMARK VINA RESULT:      -6.5      2.111      4.221
REMARK  Name = 
REMARK  5 active torsions:
REMARK  status: ('A' for Active; 'I' for Inactive)
REMARK    1  A    between atoms: C_1  and  C_2
REMARK    2  A    between atoms: C_2  and  S_3
REMARK    3  A    between atoms: S_3  and  C_6
REMARK    4  A    between atoms: C_11  and  C_12
REMARK    5  A    between atoms: C_18  and  N_19
REMARK                            x       y       z     vdW  Elec       q    Type
REMARK                         _______ _______ _______ _____ _____    ______ ____
ROOT
ATOM      1  C   UNL     1       2.102   6.399  18.925  0.00  0.00    +0.000 C 
ATOM      2  O   UNL     1       2.188   6.419  17.701  0.00  0.00    +0.000 OA
ATOM      3  N   UNL     1       1.686   7.565  19.626  0.00  0.00    +0.000 N 
ATOM      4  C   UNL     1       1.465   7.654  21.071  0.00  0.00    +0.000 C 
ATOM      5  C   UNL     1       0.421   8.686  21.469  0.00  0.00    +0.000 C 
ATOM      6  C   UNL     1       0.763  10.051  20.903  0.00  0.00    +0.000 C 
ATOM      7  C   UNL     1       0.918   9.981  19.378  0.00  0.00    +0.000 C 
ATOM      8  C   UNL     1       1.894   8.867  18.942  0.00  0.00    +0.000 C 
ENDROOT
BRANCH   1  14
ATOM      9  C   UNL     1       3.610   4.354  19.474  0.00  0.00    +0.000 A 
ATOM     10  C   UNL     1       3.755   3.110  20.138  0.00  0.00    +0.000 A 
ATOM     11  C   UNL     1       2.763   2.612  20.977  0.00  0.00    +0.000 A 
ATOM     12  C   UNL     1       1.647   3.387  21.227  0.00  0.00    +0.000 A 
ATOM     13  C   UNL     1       1.515   4.632  20.605  0.00  0.00    +0.000 A 
ATOM     14  C   UNL     1       2.427   5.105  19.637  0.00  0.00    +0.000 A 
BRANCH   9  15
ATOM     15  S   UNL     1       5.079   4.899  18.597  0.00  0.00    +0.000 S 
ATOM     16  O   UNL     1       6.174   4.061  19.070  0.00  0.00    +0.000 OA
ATOM     17  O   UNL     1       5.189   6.329  18.764  0.00  0.00    +0.000 OA
BRANCH  15  19
ATOM     18  C   UNL     1       5.230   5.634  15.951  0.00  0.00    +0.000 C 
ATOM     19  C   UNL     1       4.894   4.482  16.880  0.00  0.00    +0.000 C 
ENDBRANCH  15  19
ENDBRANCH   9  15
ENDBRANCH   1  14
BRANCH   7  20
ATOM     20  N   UNL     1       1.303  11.290  18.855  0.00  0.00    +0.000 N 
ATOM     21  C   UNL     1       0.690  12.487  19.107  0.00  0.00    +0.000 A 
ATOM     22  C   UNL     1       1.477  13.452  18.521  0.00  0.00    +0.000 A 
ATOM     23  C   UNL     1       2.546  12.741  17.947  0.00  0.00    +0.000 A 
ATOM     24  N   UNL     1       2.442  11.425  18.145  0.00  0.00    +0.000 NA
ENDBRANCH   7  20
TORSDOF 4
ENDMDL
MODEL 9
REMARK VINA RESULT:      -6.4      1.849      3.029
REMARK  Name = 
REMARK  5 active torsions:
REMARK  status: ('A' for Active; 'I' for Inactive)
REMARK    1  A    between atoms: C_1  and  C_2
REMARK    2  A    between atoms: C_2  and  S_3
REMARK    3  A    between atoms: S_3  and  C_6
REMARK    4  A    between atoms: C_11  and  C_12
REMARK    5  A    between atoms: C_18  and  N_19
REMARK                            x       y       z     vdW  Elec       q    Type
REMARK                         _______ _______ _______ _____ _____    ______ ____
ROOT
ATOM      1  C   UNL     1       2.802   5.724  19.622  0.00  0.00    +0.000 C 
ATOM      2  O   UNL     1       2.992   5.414  20.794  0.00  0.00    +0.000 OA
ATOM      3  N   UNL     1       2.304   7.017  19.302  0.00  0.00    +0.000 N 
ATOM      4  C   UNL     1       2.109   7.541  17.948  0.00  0.00    +0.000 C 
ATOM      5  C   UNL     1       2.250   9.052  17.850  0.00  0.00    +0.000 C 
ATOM      6  C   UNL     1       1.319   9.750  18.824  0.00  0.00    +0.000 C 
ATOM      7  C   UNL     1       1.573   9.263  20.257  0.00  0.00    +0.000 C 
ATOM      8  C   UNL     1       1.541   7.723  20.364  0.00  0.00    +0.000 C 
ENDROOT
BRANCH   1  14
ATOM      9  C   UNL     1       4.378   4.570  17.907  0.00  0.00    +0.000 A 
ATOM     10  C   UNL     1       4.533   3.624  16.863  0.00  0.00    +0.000 A 
ATOM     11  C   UNL     1       3.488   2.794  16.471  0.00  0.00    +0.000 A 
ATOM     12  C   UNL     1       2.297   2.841  17.170  0.00  0.00    +0.000 A 
ATOM     13  C   UNL     1       2.150   3.745  18.226  0.00  0.00    +0.000 A 
ATOM     14  C   UNL     1       3.133   4.703  18.558  0.00  0.00    +0.000 A 
BRANCH   9  15
ATOM     15  S   UNL     1       5.897   5.401  18.383  0.00  0.00    +0.000 S 
ATOM     16  O   UNL     1       6.989   4.608  17.831  0.00  0.00    +0.000 OA
ATOM     17  O   UNL     1       5.858   5.613  19.810  0.00  0.00    +0.000 OA
BRANCH  15  19
ATOM     18  C   UNL     1       7.385   7.523  17.463  0.00  0.00    +0.000 C 
ATOM     19  C   UNL     1       5.980   6.953  17.522  0.00  0.00    +0.000 C 
ENDBRANCH  15  19
ENDBRANCH   9  15
ENDBRANCH   1  14
BRANCH   7  20
ATOM     20  N   UNL     1       0.631   9.901  21.175  0.00  0.00    +0.000 N 
ATOM     21  C   UNL     1       0.172   9.398  22.361  0.00  0.00    +0.000 A 
ATOM     22  C   UNL     1      -0.576  10.398  22.938  0.00  0.00    +0.000 A 
ATOM     23  C   UNL     1      -0.503  11.468  22.030  0.00  0.00    +0.000 A 
ATOM     24  N   UNL     1       0.228  11.170  20.953  0.00  0.00    +0.000 NA
ENDBRANCH   7  20
TORSDOF 4
ENDMDL
