MODEL 1
REMARK VINA RESULT:      -8.3      0.000      0.000
REMARK  Name = 
REMARK  5 active torsions:
REMARK  status: ('A' for Active; 'I' for Inactive)
REMARK    1  A    between atoms: C_1  and  O_2
REMARK    2  A    between atoms: O_2  and  C_3
REMARK    3  A    between atoms: C_18  and  O_19
REMARK    4  A    between atoms: O_19  and  C_20
REMARK    5  A    between atoms: N_26  and  C_27
REMARK                            x       y       z     vdW  Elec       q    Type
REMARK                         _______ _______ _______ _____ _____    ______ ____
ROOT
ATOM      1  C   UNL     1       7.011   4.942  17.892  0.00  0.00    +0.000 A 
ATOM      2  C   UNL     1       6.212   5.738  18.669  0.00  0.00    +0.000 A 
ATOM      3  C   UNL     1       4.940   5.898  18.202  0.00  0.00    +0.000 A 
ATOM      4  C   UNL     1       4.800   7.173  17.440  0.00  0.00    +0.000 A 
ATOM      5  O   UNL     1       5.727   7.730  16.866  0.00  0.00    +0.000 OA
ATOM      6  C   UNL     1       3.476   7.781  17.430  0.00  0.00    +0.000 A 
ATOM      7  C   UNL     1       2.414   7.227  18.032  0.00  0.00    +0.000 A 
ATOM      8  C   UNL     1       2.373   5.861  18.592  0.00  0.00    +0.000 A 
ATOM      9  C   UNL     1       2.165   5.783  20.004  0.00  0.00    +0.000 A 
ATOM     10  C   UNL     1       2.094   4.555  20.651  0.00  0.00    +0.000 A 
ATOM     11  C   UNL     1       1.990   3.473  19.813  0.00  0.00    +0.000 A 
ATOM     12  C   UNL     1       2.259   3.558  18.433  0.00  0.00    +0.000 A 
ATOM     13  C   UNL     1       2.803   4.725  17.855  0.00  0.00    +0.000 A 
ATOM     14  C   UNL     1       4.288   4.877  17.484  0.00  0.00    +0.000 A 
ATOM     15  C   UNL     1       5.123   4.343  16.499  0.00  0.00    +0.000 A 
ATOM     16  C   UNL     1       6.529   4.515  16.647  0.00  0.00    +0.000 A 
ATOM     17  O   UNL     1       1.186   2.882  17.795  0.00  0.00    +0.000 OA
ATOM     18  C   UNL     1       0.310   2.601  18.917  0.00  0.00    +0.000 C 
ATOM     19  O   UNL     1       1.072   2.490  20.123  0.00  0.00    +0.000 OA
ATOM     20  C   UNL     1       2.148   7.077  20.797  0.00  0.00    +0.000 C 
ATOM     21  C   UNL     1       1.812   8.364  19.991  0.00  0.00    +0.000 C 
ATOM     22  N   UNL     1       1.458   8.087  18.595  0.00  0.00    +0.000 N 
ATOM     23  C   UNL     1       0.994   9.208  17.793  0.00  0.00    +0.000 C 
ENDROOT
BRANCH   1  25
ATOM     24  C   UNL     1       8.427   5.269  19.616  0.00  0.00    +0.000 C 
ATOM     25  O   UNL     1       8.209   4.523  18.398  0.00  0.00    +0.000 OA
ENDBRANCH   1  25
BRANCH  16  26
ATOM     26  O   UNL     1       7.466   4.269  15.676  0.00  0.00    +0.000 OA
ATOM     27  C   UNL     1       7.123   4.773  14.377  0.00  0.00    +0.000 C 
ENDBRANCH  16  26
TORSDOF 2
ENDMDL
MODEL 2
REMARK VINA RESULT:      -6.7      7.256     11.110
REMARK  Name = 
REMARK  5 active torsions:
REMARK  status: ('A' for Active; 'I' for Inactive)
REMARK    1  A    between atoms: C_1  and  O_2
REMARK    2  A    between atoms: O_2  and  C_3
REMARK    3  A    between atoms: C_18  and  O_19
REMARK    4  A    between atoms: O_19  and  C_20
REMARK    5  A    between atoms: N_26  and  C_27
REMARK                            x       y       z     vdW  Elec       q    Type
REMARK                         _______ _______ _______ _____ _____    ______ ____
ROOT
ATOM      1  C   UNL     1      -5.027  12.630  21.803  0.00  0.00    +0.000 A 
ATOM      2  C   UNL     1      -4.123  12.766  20.784  0.00  0.00    +0.000 A 
ATOM      3  C   UNL     1      -2.833  12.951  21.187  0.00  0.00    +0.000 A 
ATOM      4  C   UNL     1      -2.468  14.397  21.179  0.00  0.00    +0.000 A 
ATOM      5  O   UNL     1      -3.277  15.307  21.310  0.00  0.00    +0.000 OA
ATOM      6  C   UNL     1      -1.061  14.710  20.964  0.00  0.00    +0.000 A 
ATOM      7  C   UNL     1      -0.118  13.768  20.817  0.00  0.00    +0.000 A 
ATOM      8  C   UNL     1      -0.317  12.324  21.057  0.00  0.00    +0.000 A 
ATOM      9  C   UNL     1      -0.153  11.485  19.912  0.00  0.00    +0.000 A 
ATOM     10  C   UNL     1      -0.301  10.106  20.008  0.00  0.00    +0.000 A 
ATOM     11  C   UNL     1      -0.362   9.626  21.293  0.00  0.00    +0.000 A 
ATOM     12  C   UNL     1      -0.585  10.465  22.402  0.00  0.00    +0.000 A 
ATOM     13  C   UNL     1      -0.915  11.828  22.246  0.00  0.00    +0.000 A 
ATOM     14  C   UNL     1      -2.345  12.376  22.376  0.00  0.00    +0.000 A 
ATOM     15  C   UNL     1      -3.238  12.575  23.434  0.00  0.00    +0.000 A 
ATOM     16  C   UNL     1      -4.598  12.855  23.118  0.00  0.00    +0.000 A 
ATOM     17  O   UNL     1       0.373  10.072  23.374  0.00  0.00    +0.000 OA
ATOM     18  C   UNL     1       1.167   9.113  22.629  0.00  0.00    +0.000 C 
ATOM     19  O   UNL     1       0.374   8.501  21.607  0.00  0.00    +0.000 OA
ATOM     20  C   UNL     1       0.064  12.147  18.564  0.00  0.00    +0.000 C 
ATOM     21  C   UNL     1       0.626  13.597  18.600  0.00  0.00    +0.000 C 
ATOM     22  N   UNL     1       0.957  14.045  19.957  0.00  0.00    +0.000 N 
ATOM     23  C   UNL     1       1.617  15.335  20.086  0.00  0.00    +0.000 C 
ENDROOT
BRANCH   1  25
ATOM     24  C   UNL     1      -6.293  11.865  20.100  0.00  0.00    +0.000 C 
ATOM     25  O   UNL     1      -6.289  12.195  21.507  0.00  0.00    +0.000 OA
ENDBRANCH   1  25
BRANCH  16  26
ATOM     26  O   UNL     1      -5.544  13.303  24.006  0.00  0.00    +0.000 OA
ATOM     27  C   UNL     1      -5.906  14.682  23.844  0.00  0.00    +0.000 C 
ENDBRANCH  16  26
TORSDOF 2
ENDMDL
MODEL 3
REMARK VINA RESULT:      -6.5      9.018     11.937
REMARK  Name = 
REMARK  5 active torsions:
REMARK  status: ('A' for Active; 'I' for Inactive)
REMARK    1  A    between atoms: C_1  and  O_2
REMARK    2  A    between atoms: O_2  and  C_3
REMARK    3  A    between atoms: C_18  and  O_19
REMARK    4  A    between atoms: O_19  and  C_20
REMARK    5  A    between atoms: N_26  and  C_27
REMARK                            x       y       z     vdW  Elec       q    Type
REMARK                         _______ _______ _______ _____ _____    ______ ____
ROOT
ATOM      1  C   UNL     1      -1.638  11.731  22.958  0.00  0.00    +0.000 A 
ATOM      2  C   UNL     1      -2.908  11.878  23.448  0.00  0.00    +0.000 A 
ATOM      3  C   UNL     1      -3.678  12.781  22.774  0.00  0.00    +0.000 A 
ATOM      4  C   UNL     1      -3.682  14.105  23.459  0.00  0.00    +0.000 A 
ATOM      5  O   UNL     1      -2.775  14.505  24.178  0.00  0.00    +0.000 OA
ATOM      6  C   UNL     1      -4.868  14.931  23.269  0.00  0.00    +0.000 A 
ATOM      7  C   UNL     1      -5.898  14.562  22.493  0.00  0.00    +0.000 A 
ATOM      8  C   UNL     1      -5.896  13.404  21.576  0.00  0.00    +0.000 A 
ATOM      9  C   UNL     1      -6.841  12.377  21.883  0.00  0.00    +0.000 A 
ATOM     10  C   UNL     1      -6.948  11.241  21.090  0.00  0.00    +0.000 A 
ATOM     11  C   UNL     1      -6.274  11.313  19.896  0.00  0.00    +0.000 A 
ATOM     12  C   UNL     1      -5.302  12.297  19.636  0.00  0.00    +0.000 A 
ATOM     13  C   UNL     1      -4.849  13.175  20.643  0.00  0.00    +0.000 A 
ATOM     14  C   UNL     1      -3.517  12.996  21.391  0.00  0.00    +0.000 A 
ATOM     15  C   UNL     1      -2.167  13.137  21.058  0.00  0.00    +0.000 A 
ATOM     16  C   UNL     1      -1.197  12.607  21.957  0.00  0.00    +0.000 A 
ATOM     17  O   UNL     1      -5.604  12.796  18.341  0.00  0.00    +0.000 OA
ATOM     18  C   UNL     1      -6.854  12.118  18.052  0.00  0.00    +0.000 C 
ATOM     19  O   UNL     1      -6.916  10.874  18.755  0.00  0.00    +0.000 OA
ATOM     20  C   UNL     1      -7.638  12.500  23.169  0.00  0.00    +0.000 C 
ATOM     21  C   UNL     1      -7.774  13.936  23.750  0.00  0.00    +0.000 C 
ATOM     22  N   UNL     1      -7.186  14.961  22.881  0.00  0.00    +0.000 N 
ATOM     23  C   UNL     1      -7.381  16.350  23.268  0.00  0.00    +0.000 C 
ENDROOT
BRANCH   1  25
ATOM     24  C   UNL     1      -0.686   9.806  22.271  0.00  0.00    +0.000 C 
ATOM     25  O   UNL     1      -0.881  10.683  23.402  0.00  0.00    +0.000 OA
ENDBRANCH   1  25
BRANCH  16  26
ATOM     26  O   UNL     1       0.151  12.859  21.909  0.00  0.00    +0.000 OA
ATOM     27  C   UNL     1       0.702  12.903  20.584  0.00  0.00    +0.000 C 
ENDBRANCH  16  26
TORSDOF 2
ENDMDL
MODEL 4
REMARK VINA RESULT:      -6.4      7.229      9.350
REMARK  Name = 
REMARK  5 active torsions:
REMARK  status: ('A' for Active; 'I' for Inactive)
REMARK    1  A    between atoms: C_1  and  O_2
REMARK    2  A    between atoms: O_2  and  C_3
REMARK    3  A    between atoms: C_18  and  O_19
REMARK    4  A    between atoms: O_19  and  C_20
REMARK    5  A    between atoms: N_26  and  C_27
REMARK                            x       y       z     vdW  Elec       q    Type
REMARK                         _______ _______ _______ _____ _____    ______ ____
ROOT
ATOM      1  C   UNL     1       2.638  14.725  19.446  0.00  0.00    +0.000 A 
ATOM      2  C   UNL     1       2.294  13.717  20.305  0.00  0.00    +0.000 A 
ATOM      3  C   UNL     1       0.951  13.516  20.440  0.00  0.00    +0.000 A 
ATOM      4  C   UNL     1       0.421  14.201  21.654  0.00  0.00    +0.000 A 
ATOM      5  O   UNL     1       0.935  15.192  22.158  0.00  0.00    +0.000 OA
ATOM      6  C   UNL     1      -0.759  13.609  22.271  0.00  0.00    +0.000 A 
ATOM      7  C   UNL     1      -1.378  12.528  21.773  0.00  0.00    +0.000 A 
ATOM      8  C   UNL     1      -1.101  11.925  20.454  0.00  0.00    +0.000 A 
ATOM      9  C   UNL     1      -0.595  10.589  20.486  0.00  0.00    +0.000 A 
ATOM     10  C   UNL     1      -0.306   9.904  19.311  0.00  0.00    +0.000 A 
ATOM     11  C   UNL     1      -0.772  10.507  18.169  0.00  0.00    +0.000 A 
ATOM     12  C   UNL     1      -1.210  11.845  18.147  0.00  0.00    +0.000 A 
ATOM     13  C   UNL     1      -1.050  12.696  19.261  0.00  0.00    +0.000 A 
ATOM     14  C   UNL     1       0.062  13.751  19.373  0.00  0.00    +0.000 A 
ATOM     15  C   UNL     1       0.329  14.978  18.758  0.00  0.00    +0.000 A 
ATOM     16  C   UNL     1       1.625  15.545  18.929  0.00  0.00    +0.000 A 
ATOM     17  O   UNL     1      -2.437  11.831  17.433  0.00  0.00    +0.000 OA
ATOM     18  C   UNL     1      -2.649  10.408  17.246  0.00  0.00    +0.000 C 
ATOM     19  O   UNL     1      -1.395   9.720  17.221  0.00  0.00    +0.000 OA
ATOM     20  C   UNL     1      -0.263   9.981  21.836  0.00  0.00    +0.000 C 
ATOM     21  C   UNL     1      -0.987  10.610  23.061  0.00  0.00    +0.000 C 
ATOM     22  N   UNL     1      -1.966  11.634  22.681  0.00  0.00    +0.000 N 
ATOM     23  C   UNL     1      -2.793  12.186  23.742  0.00  0.00    +0.000 C 
ENDROOT
BRANCH   1  25
ATOM     24  C   UNL     1       4.717  15.039  20.259  0.00  0.00    +0.000 C 
ATOM     25  O   UNL     1       3.943  14.838  19.056  0.00  0.00    +0.000 OA
ENDBRANCH   1  25
BRANCH  16  26
ATOM     26  O   UNL     1       1.979  16.830  18.601  0.00  0.00    +0.000 OA
ATOM     27  C   UNL     1       1.904  17.763  19.689  0.00  0.00    +0.000 C 
ENDBRANCH  16  26
TORSDOF 2
ENDMDL
MODEL 5
REMARK VINA RESULT:      -6.3      6.706      9.176
REMARK  Name = 
REMARK  5 active torsions:
REMARK  status: ('A' for Active; 'I' for Inactive)
REMARK    1  A    between atoms: C_1  and  O_2
REMARK    2  A    between atoms: O_2  and  C_3
REMARK    3  A    between atoms: C_18  and  O_19
REMARK    4  A    between atoms: O_19  and  C_20
REMARK    5  A    between atoms: N_26  and  C_27
REMARK                            x       y       z     vdW  Elec       q    Type
REMARK                         _______ _______ _______ _____ _____    ______ ____
ROOT
ATOM      1  C   UNL     1       1.957  14.891  18.507  0.00  0.00    +0.000 A 
ATOM      2  C   UNL     1       2.106  13.624  19.004  0.00  0.00    +0.000 A 
ATOM      3  C   UNL     1       0.983  13.100  19.576  0.00  0.00    +0.000 A 
ATOM      4  C   UNL     1       1.008  13.261  21.059  0.00  0.00    +0.000 A 
ATOM      5  O   UNL     1       1.623  14.147  21.639  0.00  0.00    +0.000 OA
ATOM      6  C   UNL     1       0.274  12.268  21.832  0.00  0.00    +0.000 A 
ATOM      7  C   UNL     1      -0.426  11.274  21.267  0.00  0.00    +0.000 A 
ATOM      8  C   UNL     1      -0.728  11.163  19.825  0.00  0.00    +0.000 A 
ATOM      9  C   UNL     1      -0.170  10.024  19.168  0.00  0.00    +0.000 A 
ATOM     10  C   UNL     1      -0.391   9.798  17.814  0.00  0.00    +0.000 A 
ATOM     11  C   UNL     1      -1.360  10.592  17.253  0.00  0.00    +0.000 A 
ATOM     12  C   UNL     1      -1.853  11.746  17.893  0.00  0.00    +0.000 A 
ATOM     13  C   UNL     1      -1.271  12.243  19.078  0.00  0.00    +0.000 A 
ATOM     14  C   UNL     1      -0.303  13.437  19.113  0.00  0.00    +0.000 A 
ATOM     15  C   UNL     1      -0.427  14.818  18.933  0.00  0.00    +0.000 A 
ATOM     16  C   UNL     1       0.765  15.581  18.770  0.00  0.00    +0.000 A 
ATOM     17  O   UNL     1      -3.266  11.672  17.771  0.00  0.00    +0.000 OA
ATOM     18  C   UNL     1      -3.440  10.358  17.182  0.00  0.00    +0.000 C 
ATOM     19  O   UNL     1      -2.285  10.003  16.415  0.00  0.00    +0.000 OA
ATOM     20  C   UNL     1       0.774   9.134  19.956  0.00  0.00    +0.000 C 
ATOM     21  C   UNL     1       0.635   9.197  21.504  0.00  0.00    +0.000 C 
ATOM     22  N   UNL     1      -0.480  10.044  21.941  0.00  0.00    +0.000 N 
ATOM     23  C   UNL     1      -0.780  10.061  23.365  0.00  0.00    +0.000 C 
ENDROOT
BRANCH   1  25
ATOM     24  C   UNL     1       4.180  14.805  18.139  0.00  0.00    +0.000 C 
ATOM     25  O   UNL     1       2.937  15.399  17.702  0.00  0.00    +0.000 OA
ENDBRANCH   1  25
BRANCH  16  26
ATOM     26  O   UNL     1       0.844  16.950  18.818  0.00  0.00    +0.000 OA
ATOM     27  C   UNL     1      -0.418  17.624  18.704  0.00  0.00    +0.000 C 
ENDBRANCH  16  26
TORSDOF 2
ENDMDL
MODEL 6
REMARK VINA RESULT:      -6.2      9.077     12.245
REMARK  Name = 
REMARK  5 active torsions:
REMARK  status: ('A' for Active; 'I' for Inactive)
REMARK    1  A    between atoms: C_1  and  O_2
REMARK    2  A    between atoms: O_2  and  C_3
REMARK    3  A    between atoms: C_18  and  O_19
REMARK    4  A    between atoms: O_19  and  C_20
REMARK    5  A    between atoms: N_26  and  C_27
REMARK                            x       y       z     vdW  Elec       q    Type
REMARK                         _______ _______ _______ _____ _____    ______ ____
ROOT
ATOM      1  C   UNL     1      -1.066  13.512  22.200  0.00  0.00    +0.000 A 
ATOM      2  C   UNL     1      -1.937  14.074  21.306  0.00  0.00    +0.000 A 
ATOM      3  C   UNL     1      -3.130  13.422  21.185  0.00  0.00    +0.000 A 
ATOM      4  C   UNL     1      -3.127  12.506  20.008  0.00  0.00    +0.000 A 
ATOM      5  O   UNL     1      -2.115  12.004  19.536  0.00  0.00    +0.000 OA
ATOM      6  C   UNL     1      -4.418  12.243  19.386  0.00  0.00    +0.000 A 
ATOM      7  C   UNL     1      -5.569  12.754  19.850  0.00  0.00    +0.000 A 
ATOM      8  C   UNL     1      -5.726  13.457  21.139  0.00  0.00    +0.000 A 
ATOM      9  C   UNL     1      -6.125  14.826  21.046  0.00  0.00    +0.000 A 
ATOM     10  C   UNL     1      -6.319  15.595  22.187  0.00  0.00    +0.000 A 
ATOM     11  C   UNL     1      -6.342  14.881  23.360  0.00  0.00    +0.000 A 
ATOM     12  C   UNL     1      -5.887  13.551  23.443  0.00  0.00    +0.000 A 
ATOM     13  C   UNL     1      -5.235  12.922  22.361  0.00  0.00    +0.000 A 
ATOM     14  C   UNL     1      -3.710  12.744  22.275  0.00  0.00    +0.000 A 
ATOM     15  C   UNL     1      -2.766  11.951  22.934  0.00  0.00    +0.000 A 
ATOM     16  C   UNL     1      -1.389  12.271  22.765  0.00  0.00    +0.000 A 
ATOM     17  O   UNL     1      -6.884  12.854  24.175  0.00  0.00    +0.000 OA
ATOM     18  C   UNL     1      -7.912  13.870  24.308  0.00  0.00    +0.000 C 
ATOM     19  O   UNL     1      -7.323  15.174  24.285  0.00  0.00    +0.000 OA
ATOM     20  C   UNL     1      -6.209  15.454  19.666  0.00  0.00    +0.000 C 
ATOM     21  C   UNL     1      -6.395  14.466  18.479  0.00  0.00    +0.000 C 
ATOM     22  N   UNL     1      -6.566  13.077  18.916  0.00  0.00    +0.000 N 
ATOM     23  C   UNL     1      -6.883  12.094  17.891  0.00  0.00    +0.000 C 
ENDROOT
BRANCH   1  25
ATOM     24  C   UNL     1       0.707  14.619  21.355  0.00  0.00    +0.000 C 
ATOM     25  O   UNL     1       0.040  14.223  22.573  0.00  0.00    +0.000 OA
ENDBRANCH   1  25
BRANCH  16  26
ATOM     26  O   UNL     1      -0.337  11.472  23.139  0.00  0.00    +0.000 OA
ATOM     27  C   UNL     1      -0.620  10.065  23.113  0.00  0.00    +0.000 C 
ENDBRANCH  16  26
TORSDOF 2
ENDMDL
MODEL 7
REMARK VINA RESULT:      -6.2      7.813     11.578
REMARK  Name = 
REMARK  5 active torsions:
REMARK  status: ('A' for Active; 'I' for Inactive)
REMARK    1  A    between atoms: C_1  and  O_2
REMARK    2  A    between atoms: O_2  and  C_3
REMARK    3  A    between atoms: C_18  and  O_19
REMARK    4  A    between atoms: O_19  and  C_20
REMARK    5  A    between atoms: N_26  and  C_27
REMARK                            x       y       z     vdW  Elec       q    Type
REMARK                         _______ _______ _______ _____ _____    ______ ____
ROOT
ATOM      1  C   UNL     1      -5.030  13.257  21.541  0.00  0.00    +0.000 A 
ATOM      2  C   UNL     1      -3.904  13.646  20.867  0.00  0.00    +0.000 A 
ATOM      3  C   UNL     1      -2.760  13.633  21.612  0.00  0.00    +0.000 A 
ATOM      4  C   UNL     1      -2.442  14.992  22.137  0.00  0.00    +0.000 A 
ATOM      5  O   UNL     1      -3.281  15.861  22.338  0.00  0.00    +0.000 OA
ATOM      6  C   UNL     1      -1.034  15.280  22.380  0.00  0.00    +0.000 A 
ATOM      7  C   UNL     1      -0.060  14.378  22.188  0.00  0.00    +0.000 A 
ATOM      8  C   UNL     1      -0.276  12.942  21.918  0.00  0.00    +0.000 A 
ATOM      9  C   UNL     1       0.190  12.480  20.649  0.00  0.00    +0.000 A 
ATOM     10  C   UNL     1       0.058  11.148  20.279  0.00  0.00    +0.000 A 
ATOM     11  C   UNL     1      -0.310  10.305  21.299  0.00  0.00    +0.000 A 
ATOM     12  C   UNL     1      -0.825  10.780  22.521  0.00  0.00    +0.000 A 
ATOM     13  C   UNL     1      -1.139  12.141  22.713  0.00  0.00    +0.000 A 
ATOM     14  C   UNL     1      -2.571  12.700  22.650  0.00  0.00    +0.000 A 
ATOM     15  C   UNL     1      -3.704  12.617  23.464  0.00  0.00    +0.000 A 
ATOM     16  C   UNL     1      -4.949  13.050  22.925  0.00  0.00    +0.000 A 
ATOM     17  O   UNL     1      -0.130  10.061  23.529  0.00  0.00    +0.000 OA
ATOM     18  C   UNL     1       0.849   9.331  22.746  0.00  0.00    +0.000 C 
ATOM     19  O   UNL     1       0.352   9.101  21.423  0.00  0.00    +0.000 OA
ATOM     20  C   UNL     1       0.719  13.507  19.664  0.00  0.00    +0.000 C 
ATOM     21  C   UNL     1       1.217  14.846  20.280  0.00  0.00    +0.000 C 
ATOM     22  N   UNL     1       1.187  14.845  21.746  0.00  0.00    +0.000 N 
ATOM     23  C   UNL     1       1.761  15.999  22.421  0.00  0.00    +0.000 C 
ENDROOT
BRANCH   1  25
ATOM     24  C   UNL     1      -6.033  11.657  20.309  0.00  0.00    +0.000 C 
ATOM     25  O   UNL     1      -6.166  13.000  20.826  0.00  0.00    +0.000 OA
ENDBRANCH   1  25
BRANCH  16  26
ATOM     26  O   UNL     1      -6.097  13.258  23.647  0.00  0.00    +0.000 OA
ATOM     27  C   UNL     1      -6.442  14.639  23.832  0.00  0.00    +0.000 C 
ENDBRANCH  16  26
TORSDOF 2
ENDMDL
MODEL 8
REMARK VINA RESULT:      -6.2      9.756     12.218
REMARK  Name = 
REMARK  5 active torsions:
REMARK  status: ('A' for Active; 'I' for Inactive)
REMARK    1  A    between atoms: C_1  and  O_2
REMARK    2  A    between atoms: O_2  and  C_3
REMARK    3  A    between atoms: C_18  and  O_19
REMARK    4  A    between atoms: O_19  and  C_20
REMARK    5  A    between atoms: N_26  and  C_27
REMARK                            x       y       z     vdW  Elec       q    Type
REMARK                         _______ _______ _______ _____ _____    ______ ____
ROOT
ATOM      1  C   UNL     1       5.407  14.973  18.767  0.00  0.00    +0.000 A 
ATOM      2  C   UNL     1       6.457  15.448  18.029  0.00  0.00    +0.000 A 
ATOM      3  C   UNL     1       7.609  15.641  18.735  0.00  0.00    +0.000 A 
ATOM      4  C   UNL     1       7.759  17.067  19.144  0.00  0.00    +0.000 A 
ATOM      5  O   UNL     1       6.818  17.835  19.305  0.00  0.00    +0.000 OA
ATOM      6  C   UNL     1       9.122  17.552  19.318  0.00  0.00    +0.000 A 
ATOM      7  C   UNL     1      10.201  16.770  19.164  0.00  0.00    +0.000 A 
ATOM      8  C   UNL     1      10.168  15.302  19.012  0.00  0.00    +0.000 A 
ATOM      9  C   UNL     1      10.662  14.803  17.767  0.00  0.00    +0.000 A 
ATOM     10  C   UNL     1      10.697  13.439  17.505  0.00  0.00    +0.000 A 
ATOM     11  C   UNL     1      10.465  12.641  18.598  0.00  0.00    +0.000 A 
ATOM     12  C   UNL     1       9.920  13.142  19.796  0.00  0.00    +0.000 A 
ATOM     13  C   UNL     1       9.435  14.463  19.894  0.00  0.00    +0.000 A 
ATOM     14  C   UNL     1       7.942  14.826  19.834  0.00  0.00    +0.000 A 
ATOM     15  C   UNL     1       6.847  14.664  20.689  0.00  0.00    +0.000 A 
ATOM     16  C   UNL     1       5.545  14.890  20.160  0.00  0.00    +0.000 A 
ATOM     17  O   UNL     1      10.725  12.601  20.833  0.00  0.00    +0.000 OA
ATOM     18  C   UNL     1      11.773  11.943  20.076  0.00  0.00    +0.000 C 
ATOM     19  O   UNL     1      11.281  11.545  18.793  0.00  0.00    +0.000 OA
ATOM     20  C   UNL     1      11.031  15.807  16.690  0.00  0.00    +0.000 C 
ATOM     21  C   UNL     1      11.363  17.244  17.185  0.00  0.00    +0.000 C 
ATOM     22  N   UNL     1      11.367  17.357  18.647  0.00  0.00    +0.000 N 
ATOM     23  C   UNL     1      11.800  18.625  19.214  0.00  0.00    +0.000 C 
ENDROOT
BRANCH   1  25
ATOM     24  C   UNL     1       3.703  15.659  17.459  0.00  0.00    +0.000 C 
ATOM     25  O   UNL     1       4.298  14.515  18.111  0.00  0.00    +0.000 OA
ENDBRANCH   1  25
BRANCH  16  26
ATOM     26  O   UNL     1       4.396  15.005  20.901  0.00  0.00    +0.000 OA
ATOM     27  C   UNL     1       4.018  16.356  21.207  0.00  0.00    +0.000 C 
ENDBRANCH  16  26
TORSDOF 2
ENDMDL
MODEL 9
REMARK VINA RESULT:      -6.1      6.706      9.884
REMARK  Name = 
REMARK  5 active torsions:
REMARK  status: ('A' for Active; 'I' for Inactive)
REMARK    1  A    between atoms: C_1  and  O_2
REMARK    2  A    between atoms: O_2  and  C_3
REMARK    3  A    between atoms: C_18  and  O_19
REMARK    4  A    between atoms: O_19  and  C_20
REMARK    5  A    between atoms: N_26  and  C_27
REMARK                            x       y       z     vdW  Elec       q    Type
REMARK                         _______ _______ _______ _____ _____    ______ ____
ROOT
ATOM      1  C   UNL     1       0.433  15.627  19.111  0.00  0.00    +0.000 A 
ATOM      2  C   UNL     1       0.882  14.355  18.880  0.00  0.00    +0.000 A 
ATOM      3  C   UNL     1       0.190  13.378  19.536  0.00  0.00    +0.000 A 
ATOM      4  C   UNL     1       0.885  12.975  20.792  0.00  0.00    +0.000 A 
ATOM      5  O   UNL     1       1.636  13.708  21.423  0.00  0.00    +0.000 OA
ATOM      6  C   UNL     1       0.662  11.609  21.247  0.00  0.00    +0.000 A 
ATOM      7  C   UNL     1      -0.149  10.750  20.612  0.00  0.00    +0.000 A 
ATOM      8  C   UNL     1      -1.074  11.110  19.519  0.00  0.00    +0.000 A 
ATOM      9  C   UNL     1      -0.806  10.490  18.259  0.00  0.00    +0.000 A 
ATOM     10  C   UNL     1      -1.611  10.736  17.154  0.00  0.00    +0.000 A 
ATOM     11  C   UNL     1      -2.782  11.396  17.435  0.00  0.00    +0.000 A 
ATOM     12  C   UNL     1      -3.002  12.053  18.661  0.00  0.00    +0.000 A 
ATOM     13  C   UNL     1      -1.974  12.206  19.615  0.00  0.00    +0.000 A 
ATOM     14  C   UNL     1      -1.185  13.511  19.811  0.00  0.00    +0.000 A 
ATOM     15  C   UNL     1      -1.472  14.773  20.338  0.00  0.00    +0.000 A 
ATOM     16  C   UNL     1      -0.547  15.828  20.093  0.00  0.00    +0.000 A 
ATOM     17  O   UNL     1      -4.303  11.659  19.073  0.00  0.00    +0.000 OA
ATOM     18  C   UNL     1      -4.638  10.664  18.071  0.00  0.00    +0.000 C 
ATOM     19  O   UNL     1      -3.946  10.940  16.849  0.00  0.00    +0.000 OA
ATOM     20  C   UNL     1       0.454   9.654  18.128  0.00  0.00    +0.000 C 
ATOM     21  C   UNL     1       1.042   9.096  19.455  0.00  0.00    +0.000 C 
ATOM     22  N   UNL     1       0.200   9.391  20.620  0.00  0.00    +0.000 N 
ATOM     23  C   UNL     1       0.590   8.795  21.888  0.00  0.00    +0.000 C 
ENDROOT
BRANCH   1  25
ATOM     24  C   UNL     1       2.325  16.471  18.220  0.00  0.00    +0.000 C 
ATOM     25  O   UNL     1       0.894  16.639  18.316  0.00  0.00    +0.000 OA
ENDBRANCH   1  25
BRANCH  16  26
ATOM     26  O   UNL     1      -0.549  17.048  20.721  0.00  0.00    +0.000 OA
ATOM     27  C   UNL     1       0.355  17.148  21.831  0.00  0.00    +0.000 C 
ENDBRANCH  16  26
TORSDOF 2
ENDMDL
