MODEL 1
REMARK VINA RESULT:      -7.3      0.000      0.000
REMARK  Name = 
REMARK  11 active torsions:
REMARK  status: ('A' for Active; 'I' for Inactive)
REMARK    1  A    between atoms: C_1  and  O_2
REMARK    2  A    between atoms: O_2  and  C_3
REMARK    3  A    between atoms: C_7  and  C_8
REMARK    4  A    between atoms: C_9  and  C_10
REMARK    5  A    between atoms: C_10  and  C_12
REMARK    6  A    between atoms: C_14  and  O_15
REMARK    7  A    between atoms: O_15  and  C_16
REMARK    8  A    between atoms: C_17  and  O_18
REMARK    9  A    between atoms: O_18  and  C_19
REMARK   10  A    between atoms: C_20  and  O_21
REMARK   11  A    between atoms: O_21  and  C_22
REMARK                            x       y       z     vdW  Elec       q    Type
REMARK                         _______ _______ _______ _____ _____    ______ ____
ROOT
ATOM      1  C   UNL     1       7.201   6.682  17.221  0.00  0.00    +0.000 C 
ATOM      2  O   UNL     1       7.619   6.230  16.158  0.00  0.00    +0.000 OA
ENDROOT
BRANCH   1   3
ATOM      3  C   UNL     1       5.915   6.215  17.801  0.00  0.00    +0.000 A 
ATOM      4  C   UNL     1       4.765   6.935  17.507  0.00  0.00    +0.000 A 
ATOM      5  C   UNL     1       3.519   6.503  17.975  0.00  0.00    +0.000 A 
ATOM      6  C   UNL     1       3.425   5.338  18.778  0.00  0.00    +0.000 A 
ATOM      7  C   UNL     1       4.602   4.625  19.100  0.00  0.00    +0.000 A 
ATOM      8  C   UNL     1       5.832   5.064  18.590  0.00  0.00    +0.000 A 
BRANCH   5   9
ATOM      9  O   UNL     1       2.362   7.192  17.684  0.00  0.00    +0.000 OA
ATOM     10  C   UNL     1       2.341   8.554  18.119  0.00  0.00    +0.000 C 
ENDBRANCH   5   9
BRANCH   6  11
ATOM     11  O   UNL     1       2.160   5.026  19.229  0.00  0.00    +0.000 OA
ATOM     12  C   UNL     1       1.803   5.436  20.546  0.00  0.00    +0.000 C 
ENDBRANCH   6  11
BRANCH   7  13
ATOM     13  O   UNL     1       4.507   3.539  19.932  0.00  0.00    +0.000 OA
ATOM     14  C   UNL     1       4.157   2.279  19.370  0.00  0.00    +0.000 C 
ENDBRANCH   7  13
ENDBRANCH   1   3
BRANCH   1  16
ATOM     15  C   UNL     1       7.878   9.012  17.572  0.00  0.00    +0.000 C 
ATOM     16  C   UNL     1       7.919   7.735  17.979  0.00  0.00    +0.000 C 
BRANCH  15  21
ATOM     17  C   UNL     1       9.450  12.373  18.383  0.00  0.00    +0.000 A 
ATOM     18  C   UNL     1      10.004  12.092  19.633  0.00  0.00    +0.000 A 
ATOM     19  C   UNL     1       9.861  10.828  20.203  0.00  0.00    +0.000 A 
ATOM     20  C   UNL     1       9.158   9.832  19.522  0.00  0.00    +0.000 A 
ATOM     21  C   UNL     1       8.583  10.096  18.274  0.00  0.00    +0.000 A 
ATOM     22  C   UNL     1       8.741  11.374  17.711  0.00  0.00    +0.000 A 
BRANCH  17  24
ATOM     23  C   UNL     1      10.925  13.876  17.275  0.00  0.00    +0.000 C 
ATOM     24  O   UNL     1       9.679  13.640  17.921  0.00  0.00    +0.000 OA
ENDBRANCH  17  24
ENDBRANCH  15  21
ENDBRANCH   1  16
TORSDOF 7
ENDMDL
MODEL 2
REMARK VINA RESULT:      -7.2      0.184      2.580
REMARK  Name = 
REMARK  11 active torsions:
REMARK  status: ('A' for Active; 'I' for Inactive)
REMARK    1  A    between atoms: C_1  and  O_2
REMARK    2  A    between atoms: O_2  and  C_3
REMARK    3  A    between atoms: C_7  and  C_8
REMARK    4  A    between atoms: C_9  and  C_10
REMARK    5  A    between atoms: C_10  and  C_12
REMARK    6  A    between atoms: C_14  and  O_15
REMARK    7  A    between atoms: O_15  and  C_16
REMARK    8  A    between atoms: C_17  and  O_18
REMARK    9  A    between atoms: O_18  and  C_19
REMARK   10  A    between atoms: C_20  and  O_21
REMARK   11  A    between atoms: O_21  and  C_22
REMARK                            x       y       z     vdW  Elec       q    Type
REMARK                         _______ _______ _______ _____ _____    ______ ____
ROOT
ATOM      1  C   UNL     1       7.125   6.626  17.223  0.00  0.00    +0.000 C 
ATOM      2  O   UNL     1       7.592   6.144  16.194  0.00  0.00    +0.000 OA
ENDROOT
BRANCH   1   3
ATOM      3  C   UNL     1       5.801   6.193  17.742  0.00  0.00    +0.000 A 
ATOM      4  C   UNL     1       5.731   4.992  18.434  0.00  0.00    +0.000 A 
ATOM      5  C   UNL     1       4.522   4.569  18.998  0.00  0.00    +0.000 A 
ATOM      6  C   UNL     1       3.350   5.353  18.842  0.00  0.00    +0.000 A 
ATOM      7  C   UNL     1       3.420   6.560  18.110  0.00  0.00    +0.000 A 
ATOM      8  C   UNL     1       4.653   6.974  17.584  0.00  0.00    +0.000 A 
BRANCH   5   9
ATOM      9  O   UNL     1       4.429   3.389  19.703  0.00  0.00    +0.000 OA
ATOM     10  C   UNL     1       4.039   2.250  18.930  0.00  0.00    +0.000 C 
ENDBRANCH   5   9
BRANCH   6  11
ATOM     11  O   UNL     1       2.202   4.824  19.392  0.00  0.00    +0.000 OA
ATOM     12  C   UNL     1       1.806   5.288  20.680  0.00  0.00    +0.000 C 
ENDBRANCH   6  11
BRANCH   7  13
ATOM     13  O   UNL     1       2.268   7.276  17.908  0.00  0.00    +0.000 OA
ATOM     14  C   UNL     1       2.357   8.692  17.797  0.00  0.00    +0.000 C 
ENDBRANCH   7  13
ENDBRANCH   1   3
BRANCH   1  16
ATOM     15  C   UNL     1       7.880   8.938  17.531  0.00  0.00    +0.000 C 
ATOM     16  C   UNL     1       7.820   7.683  17.998  0.00  0.00    +0.000 C 
BRANCH  15  21
ATOM     17  C   UNL     1       9.410  12.309  18.380  0.00  0.00    +0.000 A 
ATOM     18  C   UNL     1       9.960  12.022  19.631  0.00  0.00    +0.000 A 
ATOM     19  C   UNL     1       9.828  10.752  20.189  0.00  0.00    +0.000 A 
ATOM     20  C   UNL     1       9.140   9.754  19.495  0.00  0.00    +0.000 A 
ATOM     21  C   UNL     1       8.569  10.024  18.246  0.00  0.00    +0.000 A 
ATOM     22  C   UNL     1       8.716  11.308  17.695  0.00  0.00    +0.000 A 
BRANCH  17  24
ATOM     23  C   UNL     1      10.886  13.845  17.321  0.00  0.00    +0.000 C 
ATOM     24  O   UNL     1       9.627  13.583  17.931  0.00  0.00    +0.000 OA
ENDBRANCH  17  24
ENDBRANCH  15  21
ENDBRANCH   1  16
TORSDOF 7
ENDMDL
MODEL 3
REMARK VINA RESULT:      -7.1      4.590      7.156
REMARK  Name = 
REMARK  11 active torsions:
REMARK  status: ('A' for Active; 'I' for Inactive)
REMARK    1  A    between atoms: C_1  and  O_2
REMARK    2  A    between atoms: O_2  and  C_3
REMARK    3  A    between atoms: C_7  and  C_8
REMARK    4  A    between atoms: C_9  and  C_10
REMARK    5  A    between atoms: C_10  and  C_12
REMARK    6  A    between atoms: C_14  and  O_15
REMARK    7  A    between atoms: O_15  and  C_16
REMARK    8  A    between atoms: C_17  and  O_18
REMARK    9  A    between atoms: O_18  and  C_19
REMARK   10  A    between atoms: C_20  and  O_21
REMARK   11  A    between atoms: O_21  and  C_22
REMARK                            x       y       z     vdW  Elec       q    Type
REMARK                         _______ _______ _______ _____ _____    ______ ____
ROOT
ATOM      1  C   UNL     1       4.914   6.470  17.202  0.00  0.00    +0.000 C 
ATOM      2  O   UNL     1       5.583   7.362  17.717  0.00  0.00    +0.000 OA
ENDROOT
BRANCH   1   3
ATOM      3  C   UNL     1       3.857   5.762  17.971  0.00  0.00    +0.000 A 
ATOM      4  C   UNL     1       3.597   4.435  17.656  0.00  0.00    +0.000 A 
ATOM      5  C   UNL     1       2.657   3.704  18.390  0.00  0.00    +0.000 A 
ATOM      6  C   UNL     1       1.940   4.322  19.446  0.00  0.00    +0.000 A 
ATOM      7  C   UNL     1       2.186   5.682  19.743  0.00  0.00    +0.000 A 
ATOM      8  C   UNL     1       3.157   6.380  19.011  0.00  0.00    +0.000 A 
BRANCH   5   9
ATOM      9  O   UNL     1       2.392   2.381  18.108  0.00  0.00    +0.000 OA
ATOM     10  C   UNL     1       3.500   1.492  18.273  0.00  0.00    +0.000 C 
ENDBRANCH   5   9
BRANCH   6  11
ATOM     11  O   UNL     1       1.002   3.530  20.073  0.00  0.00    +0.000 OA
ATOM     12  C   UNL     1       1.389   2.860  21.270  0.00  0.00    +0.000 C 
ENDBRANCH   6  11
BRANCH   7  13
ATOM     13  O   UNL     1       1.440   6.288  20.721  0.00  0.00    +0.000 OA
ATOM     14  C   UNL     1       1.498   7.705  20.842  0.00  0.00    +0.000 C 
ENDBRANCH   7  13
ENDBRANCH   1   3
BRANCH   1  16
ATOM     15  C   UNL     1       6.122   5.161  15.517  0.00  0.00    +0.000 C 
ATOM     16  C   UNL     1       5.128   6.013  15.807  0.00  0.00    +0.000 C 
BRANCH  15  21
ATOM     17  C   UNL     1       5.949   3.200  12.269  0.00  0.00    +0.000 A 
ATOM     18  C   UNL     1       7.011   3.780  11.574  0.00  0.00    +0.000 A 
ATOM     19  C   UNL     1       7.767   4.798  12.153  0.00  0.00    +0.000 A 
ATOM     20  C   UNL     1       7.462   5.244  13.441  0.00  0.00    +0.000 A 
ATOM     21  C   UNL     1       6.392   4.687  14.150  0.00  0.00    +0.000 A 
ATOM     22  C   UNL     1       5.644   3.658  13.553  0.00  0.00    +0.000 A 
BRANCH  17  24
ATOM     23  C   UNL     1       6.096   1.107  11.146  0.00  0.00    +0.000 C 
ATOM     24  O   UNL     1       5.301   2.196  11.603  0.00  0.00    +0.000 OA
ENDBRANCH  17  24
ENDBRANCH  15  21
ENDBRANCH   1  16
TORSDOF 7
ENDMDL
MODEL 4
REMARK VINA RESULT:      -7.1      4.557      6.787
REMARK  Name = 
REMARK  11 active torsions:
REMARK  status: ('A' for Active; 'I' for Inactive)
REMARK    1  A    between atoms: C_1  and  O_2
REMARK    2  A    between atoms: O_2  and  C_3
REMARK    3  A    between atoms: C_7  and  C_8
REMARK    4  A    between atoms: C_9  and  C_10
REMARK    5  A    between atoms: C_10  and  C_12
REMARK    6  A    between atoms: C_14  and  O_15
REMARK    7  A    between atoms: O_15  and  C_16
REMARK    8  A    between atoms: C_17  and  O_18
REMARK    9  A    between atoms: O_18  and  C_19
REMARK   10  A    between atoms: C_20  and  O_21
REMARK   11  A    between atoms: O_21  and  C_22
REMARK                            x       y       z     vdW  Elec       q    Type
REMARK                         _______ _______ _______ _____ _____    ______ ____
ROOT
ATOM      1  C   UNL     1       4.981   6.461  17.210  0.00  0.00    +0.000 C 
ATOM      2  O   UNL     1       5.630   7.378  17.707  0.00  0.00    +0.000 OA
ENDROOT
BRANCH   1   3
ATOM      3  C   UNL     1       3.966   5.721  18.003  0.00  0.00    +0.000 A 
ATOM      4  C   UNL     1       3.299   6.402  19.012  0.00  0.00    +0.000 A 
ATOM      5  C   UNL     1       2.289   5.772  19.746  0.00  0.00    +0.000 A 
ATOM      6  C   UNL     1       1.957   4.417  19.484  0.00  0.00    +0.000 A 
ATOM      7  C   UNL     1       2.659   3.718  18.476  0.00  0.00    +0.000 A 
ATOM      8  C   UNL     1       3.644   4.387  17.735  0.00  0.00    +0.000 A 
BRANCH   5   9
ATOM      9  O   UNL     1       1.602   6.431  20.742  0.00  0.00    +0.000 OA
ATOM     10  C   UNL     1       1.584   7.856  20.625  0.00  0.00    +0.000 C 
ENDBRANCH   5   9
BRANCH   6  11
ATOM     11  O   UNL     1       0.984   3.875  20.295  0.00  0.00    +0.000 OA
ATOM     12  C   UNL     1       1.403   3.023  21.358  0.00  0.00    +0.000 C 
ENDBRANCH   6  11
BRANCH   7  13
ATOM     13  O   UNL     1       2.377   2.391  18.276  0.00  0.00    +0.000 OA
ATOM     14  C   UNL     1       3.426   1.441  18.424  0.00  0.00    +0.000 C 
ENDBRANCH   7  13
ENDBRANCH   1   3
BRANCH   1  16
ATOM     15  C   UNL     1       6.204   5.196  15.503  0.00  0.00    +0.000 C 
ATOM     16  C   UNL     1       5.182   6.006  15.813  0.00  0.00    +0.000 C 
BRANCH  15  21
ATOM     17  C   UNL     1       6.025   3.223  12.262  0.00  0.00    +0.000 A 
ATOM     18  C   UNL     1       7.059   3.830  11.546  0.00  0.00    +0.000 A 
ATOM     19  C   UNL     1       7.797   4.870  12.110  0.00  0.00    +0.000 A 
ATOM     20  C   UNL     1       7.503   5.311  13.402  0.00  0.00    +0.000 A 
ATOM     21  C   UNL     1       6.462   4.726  14.132  0.00  0.00    +0.000 A 
ATOM     22  C   UNL     1       5.732   3.676  13.551  0.00  0.00    +0.000 A 
BRANCH  17  24
ATOM     23  C   UNL     1       6.208   1.130  11.145  0.00  0.00    +0.000 C 
ATOM     24  O   UNL     1       5.393   2.200  11.610  0.00  0.00    +0.000 OA
ENDBRANCH  17  24
ENDBRANCH  15  21
ENDBRANCH   1  16
TORSDOF 7
ENDMDL
MODEL 5
REMARK VINA RESULT:      -7.0      4.916      7.156
REMARK  Name = 
REMARK  11 active torsions:
REMARK  status: ('A' for Active; 'I' for Inactive)
REMARK    1  A    between atoms: C_1  and  O_2
REMARK    2  A    between atoms: O_2  and  C_3
REMARK    3  A    between atoms: C_7  and  C_8
REMARK    4  A    between atoms: C_9  and  C_10
REMARK    5  A    between atoms: C_10  and  C_12
REMARK    6  A    between atoms: C_14  and  O_15
REMARK    7  A    between atoms: O_15  and  C_16
REMARK    8  A    between atoms: C_17  and  O_18
REMARK    9  A    between atoms: O_18  and  C_19
REMARK   10  A    between atoms: C_20  and  O_21
REMARK   11  A    between atoms: O_21  and  C_22
REMARK                            x       y       z     vdW  Elec       q    Type
REMARK                         _______ _______ _______ _____ _____    ______ ____
ROOT
ATOM      1  C   UNL     1       2.493   7.873  18.202  0.00  0.00    +0.000 C 
ATOM      2  O   UNL     1       2.656   8.644  17.260  0.00  0.00    +0.000 OA
ENDROOT
BRANCH   1   3
ATOM      3  C   UNL     1       2.917   6.451  18.113  0.00  0.00    +0.000 A 
ATOM      4  C   UNL     1       1.931   5.477  18.047  0.00  0.00    +0.000 A 
ATOM      5  C   UNL     1       2.275   4.129  17.898  0.00  0.00    +0.000 A 
ATOM      6  C   UNL     1       3.640   3.744  17.844  0.00  0.00    +0.000 A 
ATOM      7  C   UNL     1       4.641   4.737  17.943  0.00  0.00    +0.000 A 
ATOM      8  C   UNL     1       4.264   6.083  18.058  0.00  0.00    +0.000 A 
BRANCH   5   9
ATOM      9  O   UNL     1       1.315   3.145  17.814  0.00  0.00    +0.000 OA
ATOM     10  C   UNL     1       0.672   2.818  19.049  0.00  0.00    +0.000 C 
ENDBRANCH   5   9
BRANCH   6  11
ATOM     11  O   UNL     1       3.873   2.389  17.747  0.00  0.00    +0.000 OA
ATOM     12  C   UNL     1       4.052   1.657  18.956  0.00  0.00    +0.000 C 
ENDBRANCH   6  11
BRANCH   7  13
ATOM     13  O   UNL     1       5.956   4.347  17.956  0.00  0.00    +0.000 OA
ATOM     14  C   UNL     1       6.741   4.560  16.788  0.00  0.00    +0.000 C 
ENDBRANCH   7  13
ENDBRANCH   1   3
BRANCH   1  16
ATOM     15  C   UNL     1       0.961   9.298  19.480  0.00  0.00    +0.000 C 
ATOM     16  C   UNL     1       1.839   8.285  19.468  0.00  0.00    +0.000 C 
BRANCH  15  21
ATOM     17  C   UNL     1      -0.957  11.432  21.969  0.00  0.00    +0.000 A 
ATOM     18  C   UNL     1      -0.888  10.616  23.099  0.00  0.00    +0.000 A 
ATOM     19  C   UNL     1      -0.231   9.387  23.047  0.00  0.00    +0.000 A 
ATOM     20  C   UNL     1       0.363   8.965  21.857  0.00  0.00    +0.000 A 
ATOM     21  C   UNL     1       0.294   9.762  20.708  0.00  0.00    +0.000 A 
ATOM     22  C   UNL     1      -0.367  11.000  20.778  0.00  0.00    +0.000 A 
BRANCH  17  24
ATOM     23  C   UNL     1      -0.868  13.672  22.768  0.00  0.00    +0.000 C 
ATOM     24  O   UNL     1      -1.607  12.622  22.153  0.00  0.00    +0.000 OA
ENDBRANCH  17  24
ENDBRANCH  15  21
ENDBRANCH   1  16
TORSDOF 7
ENDMDL
MODEL 6
REMARK VINA RESULT:      -7.0      4.296      6.894
REMARK  Name = 
REMARK  11 active torsions:
REMARK  status: ('A' for Active; 'I' for Inactive)
REMARK    1  A    between atoms: C_1  and  O_2
REMARK    2  A    between atoms: O_2  and  C_3
REMARK    3  A    between atoms: C_7  and  C_8
REMARK    4  A    between atoms: C_9  and  C_10
REMARK    5  A    between atoms: C_10  and  C_12
REMARK    6  A    between atoms: C_14  and  O_15
REMARK    7  A    between atoms: O_15  and  C_16
REMARK    8  A    between atoms: C_17  and  O_18
REMARK    9  A    between atoms: O_18  and  C_19
REMARK   10  A    between atoms: C_20  and  O_21
REMARK   11  A    between atoms: O_21  and  C_22
REMARK                            x       y       z     vdW  Elec       q    Type
REMARK                         _______ _______ _______ _____ _____    ______ ____
ROOT
ATOM      1  C   UNL     1       6.748   5.559  18.276  0.00  0.00    +0.000 C 
ATOM      2  O   UNL     1       7.526   6.207  18.970  0.00  0.00    +0.000 OA
ENDROOT
BRANCH   1   3
ATOM      3  C   UNL     1       5.428   5.123  18.802  0.00  0.00    +0.000 A 
ATOM      4  C   UNL     1       5.223   3.767  19.012  0.00  0.00    +0.000 A 
ATOM      5  C   UNL     1       4.023   3.309  19.566  0.00  0.00    +0.000 A 
ATOM      6  C   UNL     1       2.992   4.227  19.892  0.00  0.00    +0.000 A 
ATOM      7  C   UNL     1       3.194   5.605  19.648  0.00  0.00    +0.000 A 
ATOM      8  C   UNL     1       4.420   6.037  19.123  0.00  0.00    +0.000 A 
BRANCH   5   9
ATOM      9  O   UNL     1       3.800   1.969  19.798  0.00  0.00    +0.000 OA
ATOM     10  C   UNL     1       3.685   1.161  18.623  0.00  0.00    +0.000 C 
ENDBRANCH   5   9
BRANCH   6  11
ATOM     11  O   UNL     1       1.832   3.670  20.385  0.00  0.00    +0.000 OA
ATOM     12  C   UNL     1       0.789   3.377  19.459  0.00  0.00    +0.000 C 
ENDBRANCH   6  11
BRANCH   7  13
ATOM     13  O   UNL     1       2.167   6.477  19.905  0.00  0.00    +0.000 OA
ATOM     14  C   UNL     1       2.184   7.754  19.277  0.00  0.00    +0.000 C 
ENDBRANCH   7  13
ENDBRANCH   1   3
BRANCH   1  16
ATOM     15  C   UNL     1       6.167   5.272  15.911  0.00  0.00    +0.000 C 
ATOM     16  C   UNL     1       7.072   5.139  16.890  0.00  0.00    +0.000 C 
BRANCH  15  21
ATOM     17  C   UNL     1       5.911   3.515  12.553  0.00  0.00    +0.000 A 
ATOM     18  C   UNL     1       7.024   4.057  11.906  0.00  0.00    +0.000 A 
ATOM     19  C   UNL     1       7.839   4.984  12.553  0.00  0.00    +0.000 A 
ATOM     20  C   UNL     1       7.544   5.378  13.860  0.00  0.00    +0.000 A 
ATOM     21  C   UNL     1       6.426   4.858  14.523  0.00  0.00    +0.000 A 
ATOM     22  C   UNL     1       5.618   3.920  13.858  0.00  0.00    +0.000 A 
BRANCH  17  24
ATOM     23  C   UNL     1       4.040   3.068  11.153  0.00  0.00    +0.000 C 
ATOM     24  O   UNL     1       5.206   2.599  11.822  0.00  0.00    +0.000 OA
ENDBRANCH  17  24
ENDBRANCH  15  21
ENDBRANCH   1  16
TORSDOF 7
ENDMDL
MODEL 7
REMARK VINA RESULT:      -6.9      1.181      3.051
REMARK  Name = 
REMARK  11 active torsions:
REMARK  status: ('A' for Active; 'I' for Inactive)
REMARK    1  A    between atoms: C_1  and  O_2
REMARK    2  A    between atoms: O_2  and  C_3
REMARK    3  A    between atoms: C_7  and  C_8
REMARK    4  A    between atoms: C_9  and  C_10
REMARK    5  A    between atoms: C_10  and  C_12
REMARK    6  A    between atoms: C_14  and  O_15
REMARK    7  A    between atoms: O_15  and  C_16
REMARK    8  A    between atoms: C_17  and  O_18
REMARK    9  A    between atoms: O_18  and  C_19
REMARK   10  A    between atoms: C_20  and  O_21
REMARK   11  A    between atoms: O_21  and  C_22
REMARK                            x       y       z     vdW  Elec       q    Type
REMARK                         _______ _______ _______ _____ _____    ______ ____
ROOT
ATOM      1  C   UNL     1       6.850   6.645  17.223  0.00  0.00    +0.000 C 
ATOM      2  O   UNL     1       7.665   5.913  16.667  0.00  0.00    +0.000 OA
ENDROOT
BRANCH   1   3
ATOM      3  C   UNL     1       5.492   6.156  17.575  0.00  0.00    +0.000 A 
ATOM      4  C   UNL     1       5.337   4.807  17.865  0.00  0.00    +0.000 A 
ATOM      5  C   UNL     1       4.093   4.306  18.263  0.00  0.00    +0.000 A 
ATOM      6  C   UNL     1       2.971   5.170  18.346  0.00  0.00    +0.000 A 
ATOM      7  C   UNL     1       3.126   6.536  18.020  0.00  0.00    +0.000 A 
ATOM      8  C   UNL     1       4.393   7.015  17.655  0.00  0.00    +0.000 A 
BRANCH   5   9
ATOM      9  O   UNL     1       3.918   2.975  18.572  0.00  0.00    +0.000 OA
ATOM     10  C   UNL     1       4.481   2.562  19.820  0.00  0.00    +0.000 C 
ENDBRANCH   5   9
BRANCH   6  11
ATOM     11  O   UNL     1       1.782   4.568  18.699  0.00  0.00    +0.000 OA
ATOM     12  C   UNL     1       1.397   4.609  20.070  0.00  0.00    +0.000 C 
ENDBRANCH   6  11
BRANCH   7  13
ATOM     13  O   UNL     1       2.021   7.347  18.038  0.00  0.00    +0.000 OA
ATOM     14  C   UNL     1       2.198   8.745  17.832  0.00  0.00    +0.000 C 
ENDBRANCH   7  13
ENDBRANCH   1   3
BRANCH   1  16
ATOM     15  C   UNL     1       8.348   8.414  18.023  0.00  0.00    +0.000 C 
ATOM     16  C   UNL     1       7.143   8.062  17.553  0.00  0.00    +0.000 C 
BRANCH  15  21
ATOM     17  C   UNL     1       9.595  11.453  19.929  0.00  0.00    +0.000 A 
ATOM     18  C   UNL     1       9.244  12.467  19.035  0.00  0.00    +0.000 A 
ATOM     19  C   UNL     1       8.617  12.161  17.829  0.00  0.00    +0.000 A 
ATOM     20  C   UNL     1       8.335  10.832  17.507  0.00  0.00    +0.000 A 
ATOM     21  C   UNL     1       8.691   9.800  18.382  0.00  0.00    +0.000 A 
ATOM     22  C   UNL     1       9.318  10.125  19.597  0.00  0.00    +0.000 A 
BRANCH  17  24
ATOM     23  C   UNL     1       9.793  13.162  21.573  0.00  0.00    +0.000 C 
ATOM     24  O   UNL     1      10.183  11.882  21.088  0.00  0.00    +0.000 OA
ENDBRANCH  17  24
ENDBRANCH  15  21
ENDBRANCH   1  16
TORSDOF 7
ENDMDL
MODEL 8
REMARK VINA RESULT:      -6.9      4.721      7.395
REMARK  Name = 
REMARK  11 active torsions:
REMARK  status: ('A' for Active; 'I' for Inactive)
REMARK    1  A    between atoms: C_1  and  O_2
REMARK    2  A    between atoms: O_2  and  C_3
REMARK    3  A    between atoms: C_7  and  C_8
REMARK    4  A    between atoms: C_9  and  C_10
REMARK    5  A    between atoms: C_10  and  C_12
REMARK    6  A    between atoms: C_14  and  O_15
REMARK    7  A    between atoms: O_15  and  C_16
REMARK    8  A    between atoms: C_17  and  O_18
REMARK    9  A    between atoms: O_18  and  C_19
REMARK   10  A    between atoms: C_20  and  O_21
REMARK   11  A    between atoms: O_21  and  C_22
REMARK                            x       y       z     vdW  Elec       q    Type
REMARK                         _______ _______ _______ _____ _____    ______ ____
ROOT
ATOM      1  C   UNL     1       2.422   7.977  18.143  0.00  0.00    +0.000 C 
ATOM      2  O   UNL     1       2.654   8.788  17.250  0.00  0.00    +0.000 OA
ENDROOT
BRANCH   1   3
ATOM      3  C   UNL     1       2.724   6.533  17.966  0.00  0.00    +0.000 A 
ATOM      4  C   UNL     1       4.040   6.165  17.722  0.00  0.00    +0.000 A 
ATOM      5  C   UNL     1       4.390   4.815  17.611  0.00  0.00    +0.000 A 
ATOM      6  C   UNL     1       3.394   3.810  17.720  0.00  0.00    +0.000 A 
ATOM      7  C   UNL     1       2.051   4.191  17.939  0.00  0.00    +0.000 A 
ATOM      8  C   UNL     1       1.736   5.550  18.078  0.00  0.00    +0.000 A 
BRANCH   5   9
ATOM      9  O   UNL     1       5.691   4.424  17.384  0.00  0.00    +0.000 OA
ATOM     10  C   UNL     1       6.643   4.901  18.339  0.00  0.00    +0.000 C 
ENDBRANCH   5   9
BRANCH   6  11
ATOM     11  O   UNL     1       3.834   2.515  17.547  0.00  0.00    +0.000 OA
ATOM     12  C   UNL     1       3.960   1.694  18.705  0.00  0.00    +0.000 C 
ENDBRANCH   6  11
BRANCH   7  13
ATOM     13  O   UNL     1       1.088   3.215  17.976  0.00  0.00    +0.000 OA
ATOM     14  C   UNL     1       0.631   2.757  19.244  0.00  0.00    +0.000 C 
ENDBRANCH   7  13
ENDBRANCH   1   3
BRANCH   1  16
ATOM     15  C   UNL     1       0.871   9.330  19.475  0.00  0.00    +0.000 C 
ATOM     16  C   UNL     1       1.800   8.365  19.433  0.00  0.00    +0.000 C 
BRANCH  15  21
ATOM     17  C   UNL     1      -1.123  11.341  22.007  0.00  0.00    +0.000 A 
ATOM     18  C   UNL     1      -0.891  10.587  23.159  0.00  0.00    +0.000 A 
ATOM     19  C   UNL     1      -0.103   9.438  23.108  0.00  0.00    +0.000 A 
ATOM     20  C   UNL     1       0.462   9.035  21.896  0.00  0.00    +0.000 A 
ATOM     21  C   UNL     1       0.232   9.768  20.727  0.00  0.00    +0.000 A 
ATOM     22  C   UNL     1      -0.561  10.926  20.796  0.00  0.00    +0.000 A 
BRANCH  17  24
ATOM     23  C   UNL     1      -2.891  12.392  23.203  0.00  0.00    +0.000 C 
ATOM     24  O   UNL     1      -1.892  12.457  22.191  0.00  0.00    +0.000 OA
ENDBRANCH  17  24
ENDBRANCH  15  21
ENDBRANCH   1  16
TORSDOF 7
ENDMDL
MODEL 9
REMARK VINA RESULT:      -6.9      1.161      1.747
REMARK  Name = 
REMARK  11 active torsions:
REMARK  status: ('A' for Active; 'I' for Inactive)
REMARK    1  A    between atoms: C_1  and  O_2
REMARK    2  A    between atoms: O_2  and  C_3
REMARK    3  A    between atoms: C_7  and  C_8
REMARK    4  A    between atoms: C_9  and  C_10
REMARK    5  A    between atoms: C_10  and  C_12
REMARK    6  A    between atoms: C_14  and  O_15
REMARK    7  A    between atoms: O_15  and  C_16
REMARK    8  A    between atoms: C_17  and  O_18
REMARK    9  A    between atoms: O_18  and  C_19
REMARK   10  A    between atoms: C_20  and  O_21
REMARK   11  A    between atoms: O_21  and  C_22
REMARK                            x       y       z     vdW  Elec       q    Type
REMARK                         _______ _______ _______ _____ _____    ______ ____
ROOT
ATOM      1  C   UNL     1       6.920   6.420  17.216  0.00  0.00    +0.000 C 
ATOM      2  O   UNL     1       7.662   5.643  16.621  0.00  0.00    +0.000 OA
ENDROOT
BRANCH   1   3
ATOM      3  C   UNL     1       5.604   5.976  17.742  0.00  0.00    +0.000 A 
ATOM      4  C   UNL     1       4.624   6.937  17.950  0.00  0.00    +0.000 A 
ATOM      5  C   UNL     1       3.347   6.565  18.383  0.00  0.00    +0.000 A 
ATOM      6  C   UNL     1       3.051   5.202  18.641  0.00  0.00    +0.000 A 
ATOM      7  C   UNL     1       4.061   4.230  18.458  0.00  0.00    +0.000 A 
ATOM      8  C   UNL     1       5.322   4.630  17.992  0.00  0.00    +0.000 A 
BRANCH   5   9
ATOM      9  O   UNL     1       2.352   7.498  18.581  0.00  0.00    +0.000 OA
ATOM     10  C   UNL     1       2.369   8.604  17.675  0.00  0.00    +0.000 C 
ENDBRANCH   5   9
BRANCH   6  11
ATOM     11  O   UNL     1       1.781   4.947  19.112  0.00  0.00    +0.000 OA
ATOM     12  C   UNL     1       1.596   4.873  20.523  0.00  0.00    +0.000 C 
ENDBRANCH   6  11
BRANCH   7  13
ATOM     13  O   UNL     1       3.784   2.925  18.775  0.00  0.00    +0.000 OA
ATOM     14  C   UNL     1       4.331   2.384  19.973  0.00  0.00    +0.000 C 
ENDBRANCH   7  13
ENDBRANCH   1   3
BRANCH   1  16
ATOM     15  C   UNL     1       8.286   8.194  18.218  0.00  0.00    +0.000 C 
ATOM     16  C   UNL     1       7.262   7.849  17.424  0.00  0.00    +0.000 C 
BRANCH  15  21
ATOM     17  C   UNL     1       9.629  11.331  19.885  0.00  0.00    +0.000 A 
ATOM     18  C   UNL     1       9.275  12.288  18.933  0.00  0.00    +0.000 A 
ATOM     19  C   UNL     1       8.614  11.914  17.764  0.00  0.00    +0.000 A 
ATOM     20  C   UNL     1       8.302  10.572  17.539  0.00  0.00    +0.000 A 
ATOM     21  C   UNL     1       8.660   9.594  18.474  0.00  0.00    +0.000 A 
ATOM     22  C   UNL     1       9.321   9.988  19.649  0.00  0.00    +0.000 A 
BRANCH  17  24
ATOM     23  C   UNL     1       9.431  12.486  21.956  0.00  0.00    +0.000 C 
ATOM     24  O   UNL     1      10.252  11.826  20.998  0.00  0.00    +0.000 OA
ENDBRANCH  17  24
ENDBRANCH  15  21
ENDBRANCH   1  16
TORSDOF 7
ENDMDL
