MODEL 1
REMARK VINA RESULT:      -5.4      0.000      0.000
REMARK  Name = 
REMARK  4 active torsions:
REMARK  status: ('A' for Active; 'I' for Inactive)
REMARK    1  A    between atoms: C_1  and  O_2
REMARK    2  A    between atoms: O_2  and  C_3
REMARK    3  A    between atoms: C_11  and  C_12
REMARK    4  A    between atoms: C_12  and  N_13
REMARK                            x       y       z     vdW  Elec       q    Type
REMARK                         _______ _______ _______ _____ _____    ______ ____
ROOT
ATOM      1  C   UNL     1       3.605   3.716  19.451  0.00  0.00    +0.000 A 
ATOM      2  C   UNL     1       2.639   4.047  20.443  0.00  0.00    +0.000 A 
ATOM      3 CL   UNL     1       2.015   2.931  21.656  0.00  0.00    +0.000 Cl
ATOM      4  C   UNL     1       2.133   5.343  20.511  0.00  0.00    +0.000 A 
ATOM      5  C   UNL     1       2.549   6.325  19.615  0.00  0.00    +0.000 A 
ATOM      6 CL   UNL     1       1.828   7.925  19.737  0.00  0.00    +0.000 Cl
ATOM      7  C   UNL     1       3.522   6.030  18.651  0.00  0.00    +0.000 A 
ATOM      8 CL   UNL     1       4.046   7.303  17.542  0.00  0.00    +0.000 Cl
ATOM      9  C   UNL     1       4.067   4.726  18.568  0.00  0.00    +0.000 A 
ENDROOT
BRANCH   1  11
ATOM     10  C   UNL     1       3.506   1.432  18.549  0.00  0.00    +0.000 C 
ATOM     11  O   UNL     1       4.090   2.460  19.253  0.00  0.00    +0.000 OA
ENDBRANCH   1  11
BRANCH   9  12
ATOM     12  C   UNL     1       5.151   4.420  17.547  0.00  0.00    +0.000 C 
BRANCH  12  13
ATOM     13  N   UNL     1       6.410   4.094  18.207  0.00  0.00    +0.000 NA
ATOM     14  H   UNL     1       7.188   4.205  17.518  0.00  0.00    +0.000 HD
ATOM     15  H   UNL     1       6.379   3.087  18.492  0.00  0.00    +0.000 HD
ENDBRANCH  12  13
ENDBRANCH   9  12
TORSDOF 3
ENDMDL
MODEL 2
REMARK VINA RESULT:      -5.4      1.214      1.360
REMARK  Name = 
REMARK  4 active torsions:
REMARK  status: ('A' for Active; 'I' for Inactive)
REMARK    1  A    between atoms: C_1  and  O_2
REMARK    2  A    between atoms: O_2  and  C_3
REMARK    3  A    between atoms: C_11  and  C_12
REMARK    4  A    between atoms: C_12  and  N_13
REMARK                            x       y       z     vdW  Elec       q    Type
REMARK                         _______ _______ _______ _____ _____    ______ ____
ROOT
ATOM      1  C   UNL     1       4.086   4.418  19.135  0.00  0.00    +0.000 A 
ATOM      2  C   UNL     1       3.039   5.103  19.815  0.00  0.00    +0.000 A 
ATOM      3 CL   UNL     1       2.248   4.535  21.284  0.00  0.00    +0.000 Cl
ATOM      4  C   UNL     1       2.583   6.326  19.328  0.00  0.00    +0.000 A 
ATOM      5  C   UNL     1       3.128   6.891  18.179  0.00  0.00    +0.000 A 
ATOM      6 CL   UNL     1       2.467   8.417  17.604  0.00  0.00    +0.000 Cl
ATOM      7  C   UNL     1       4.182   6.251  17.512  0.00  0.00    +0.000 A 
ATOM      8 CL   UNL     1       4.868   7.004  16.068  0.00  0.00    +0.000 Cl
ATOM      9  C   UNL     1       4.678   5.014  17.992  0.00  0.00    +0.000 A 
ENDROOT
BRANCH   1  11
ATOM     10  C   UNL     1       3.897   1.975  19.317  0.00  0.00    +0.000 C 
ATOM     11  O   UNL     1       4.536   3.182  19.484  0.00  0.00    +0.000 OA
ENDBRANCH   1  11
BRANCH   9  12
ATOM     12  C   UNL     1       5.846   4.342  17.289  0.00  0.00    +0.000 C 
BRANCH  12  13
ATOM     13  N   UNL     1       7.016   4.288  18.160  0.00  0.00    +0.000 NA
ATOM     14  H   UNL     1       6.817   3.630  18.947  0.00  0.00    +0.000 HD
ATOM     15  H   UNL     1       7.163   5.240  18.569  0.00  0.00    +0.000 HD
ENDBRANCH  12  13
ENDBRANCH   9  12
TORSDOF 3
ENDMDL
MODEL 3
REMARK VINA RESULT:      -5.3      2.015      3.283
REMARK  Name = 
REMARK  4 active torsions:
REMARK  status: ('A' for Active; 'I' for Inactive)
REMARK    1  A    between atoms: C_1  and  O_2
REMARK    2  A    between atoms: O_2  and  C_3
REMARK    3  A    between atoms: C_11  and  C_12
REMARK    4  A    between atoms: C_12  and  N_13
REMARK                            x       y       z     vdW  Elec       q    Type
REMARK                         _______ _______ _______ _____ _____    ______ ____
ROOT
ATOM      1  C   UNL     1       3.025   4.882  19.314  0.00  0.00    +0.000 A 
ATOM      2  C   UNL     1       2.937   6.280  19.055  0.00  0.00    +0.000 A 
ATOM      3 CL   UNL     1       2.072   7.440  20.061  0.00  0.00    +0.000 Cl
ATOM      4  C   UNL     1       3.581   6.819  17.944  0.00  0.00    +0.000 A 
ATOM      5  C   UNL     1       4.306   6.011  17.071  0.00  0.00    +0.000 A 
ATOM      6 CL   UNL     1       5.053   6.762  15.666  0.00  0.00    +0.000 Cl
ATOM      7  C   UNL     1       4.433   4.639  17.324  0.00  0.00    +0.000 A 
ATOM      8 CL   UNL     1       5.378   3.644  16.210  0.00  0.00    +0.000 Cl
ATOM      9  C   UNL     1       3.803   4.065  18.455  0.00  0.00    +0.000 A 
ENDROOT
BRANCH   1  11
ATOM     10  C   UNL     1       1.010   4.000  20.411  0.00  0.00    +0.000 C 
ATOM     11  O   UNL     1       2.359   4.254  20.322  0.00  0.00    +0.000 OA
ENDBRANCH   1  11
BRANCH   9  12
ATOM     12  C   UNL     1       3.974   2.583  18.747  0.00  0.00    +0.000 C 
BRANCH  12  13
ATOM     13  N   UNL     1       4.920   2.374  19.839  0.00  0.00    +0.000 NA
ATOM     14  H   UNL     1       5.393   3.282  20.050  0.00  0.00    +0.000 HD
ATOM     15  H   UNL     1       5.652   1.701  19.514  0.00  0.00    +0.000 HD
ENDBRANCH  12  13
ENDBRANCH   9  12
TORSDOF 3
ENDMDL
MODEL 4
REMARK VINA RESULT:      -5.3      1.835      3.599
REMARK  Name = 
REMARK  4 active torsions:
REMARK  status: ('A' for Active; 'I' for Inactive)
REMARK    1  A    between atoms: C_1  and  O_2
REMARK    2  A    between atoms: O_2  and  C_3
REMARK    3  A    between atoms: C_11  and  C_12
REMARK    4  A    between atoms: C_12  and  N_13
REMARK                            x       y       z     vdW  Elec       q    Type
REMARK                         _______ _______ _______ _____ _____    ______ ____
ROOT
ATOM      1  C   UNL     1       3.772   4.446  17.318  0.00  0.00    +0.000 A 
ATOM      2  C   UNL     1       3.884   5.846  17.553  0.00  0.00    +0.000 A 
ATOM      3 CL   UNL     1       4.853   6.957  16.588  0.00  0.00    +0.000 Cl
ATOM      4  C   UNL     1       3.179   6.429  18.603  0.00  0.00    +0.000 A 
ATOM      5  C   UNL     1       2.369   5.663  19.438  0.00  0.00    +0.000 A 
ATOM      6 CL   UNL     1       1.547   6.467  20.770  0.00  0.00    +0.000 Cl
ATOM      7  C   UNL     1       2.219   4.289  19.206  0.00  0.00    +0.000 A 
ATOM      8 CL   UNL     1       1.167   3.348  20.270  0.00  0.00    +0.000 Cl
ATOM      9  C   UNL     1       2.910   3.671  18.135  0.00  0.00    +0.000 A 
ENDROOT
BRANCH   1  11
ATOM     10  C   UNL     1       5.849   3.801  16.172  0.00  0.00    +0.000 C 
ATOM     11  O   UNL     1       4.488   3.775  16.374  0.00  0.00    +0.000 OA
ENDBRANCH   1  11
BRANCH   9  12
ATOM     12  C   UNL     1       2.714   2.189  17.863  0.00  0.00    +0.000 C 
BRANCH  12  13
ATOM     13  N   UNL     1       3.884   1.424  18.283  0.00  0.00    +0.000 NA
ATOM     14  H   UNL     1       4.109   1.673  19.272  0.00  0.00    +0.000 HD
ATOM     15  H   UNL     1       4.695   1.713  17.689  0.00  0.00    +0.000 HD
ENDBRANCH  12  13
ENDBRANCH   9  12
TORSDOF 3
ENDMDL
MODEL 5
REMARK VINA RESULT:      -5.3      2.020      2.948
REMARK  Name = 
REMARK  4 active torsions:
REMARK  status: ('A' for Active; 'I' for Inactive)
REMARK    1  A    between atoms: C_1  and  O_2
REMARK    2  A    between atoms: O_2  and  C_3
REMARK    3  A    between atoms: C_11  and  C_12
REMARK    4  A    between atoms: C_12  and  N_13
REMARK                            x       y       z     vdW  Elec       q    Type
REMARK                         _______ _______ _______ _____ _____    ______ ____
ROOT
ATOM      1  C   UNL     1       2.390   4.050  19.149  0.00  0.00    +0.000 A 
ATOM      2  C   UNL     1       2.437   5.444  19.437  0.00  0.00    +0.000 A 
ATOM      3 CL   UNL     1       1.544   6.236  20.734  0.00  0.00    +0.000 Cl
ATOM      4  C   UNL     1       3.248   6.281  18.676  0.00  0.00    +0.000 A 
ATOM      5  C   UNL     1       4.012   5.780  17.625  0.00  0.00    +0.000 A 
ATOM      6 CL   UNL     1       4.976   6.910  16.682  0.00  0.00    +0.000 Cl
ATOM      7  C   UNL     1       4.007   4.407  17.343  0.00  0.00    +0.000 A 
ATOM      8 CL   UNL     1       5.004   3.799  16.017  0.00  0.00    +0.000 Cl
ATOM      9  C   UNL     1       3.204   3.529  18.111  0.00  0.00    +0.000 A 
ENDROOT
BRANCH   1  11
ATOM     10  C   UNL     1       1.615   2.759  21.091  0.00  0.00    +0.000 C 
ATOM     11  O   UNL     1       1.564   3.172  19.780  0.00  0.00    +0.000 OA
ENDBRANCH   1  11
BRANCH   9  12
ATOM     12  C   UNL     1       3.231   2.036  17.828  0.00  0.00    +0.000 C 
BRANCH  12  13
ATOM     13  N   UNL     1       4.098   1.342  18.774  0.00  0.00    +0.000 NA
ATOM     14  H   UNL     1       4.796   0.778  18.238  0.00  0.00    +0.000 HD
ATOM     15  H   UNL     1       3.512   0.677  19.330  0.00  0.00    +0.000 HD
ENDBRANCH  12  13
ENDBRANCH   9  12
TORSDOF 3
ENDMDL
MODEL 6
REMARK VINA RESULT:      -5.3      2.283      3.337
REMARK  Name = 
REMARK  4 active torsions:
REMARK  status: ('A' for Active; 'I' for Inactive)
REMARK    1  A    between atoms: C_1  and  O_2
REMARK    2  A    between atoms: O_2  and  C_3
REMARK    3  A    between atoms: C_11  and  C_12
REMARK    4  A    between atoms: C_12  and  N_13
REMARK                            x       y       z     vdW  Elec       q    Type
REMARK                         _______ _______ _______ _____ _____    ______ ____
ROOT
ATOM      1  C   UNL     1       3.450   4.084  18.953  0.00  0.00    +0.000 A 
ATOM      2  C   UNL     1       3.891   4.726  17.762  0.00  0.00    +0.000 A 
ATOM      3 CL   UNL     1       4.812   3.947  16.476  0.00  0.00    +0.000 Cl
ATOM      4  C   UNL     1       3.580   6.066  17.543  0.00  0.00    +0.000 A 
ATOM      5  C   UNL     1       2.851   6.797  18.478  0.00  0.00    +0.000 A 
ATOM      6 CL   UNL     1       2.538   8.497  18.148  0.00  0.00    +0.000 Cl
ATOM      7  C   UNL     1       2.379   6.176  19.642  0.00  0.00    +0.000 A 
ATOM      8 CL   UNL     1       1.436   7.124  20.799  0.00  0.00    +0.000 Cl
ATOM      9  C   UNL     1       2.665   4.810  19.884  0.00  0.00    +0.000 A 
ENDROOT
BRANCH   1  11
ATOM     10  C   UNL     1       3.406   1.644  18.660  0.00  0.00    +0.000 C 
ATOM     11  O   UNL     1       3.779   2.807  19.293  0.00  0.00    +0.000 OA
ENDBRANCH   1  11
BRANCH   9  12
ATOM     12  C   UNL     1       2.119   4.131  21.129  0.00  0.00    +0.000 C 
BRANCH  12  13
ATOM     13  N   UNL     1       0.949   3.320  20.809  0.00  0.00    +0.000 NA
ATOM     14  H   UNL     1       0.089   3.861  21.052  0.00  0.00    +0.000 HD
ATOM     15  H   UNL     1       0.968   2.465  21.411  0.00  0.00    +0.000 HD
ENDBRANCH  12  13
ENDBRANCH   9  12
TORSDOF 3
ENDMDL
MODEL 7
REMARK VINA RESULT:      -5.1      1.581      3.493
REMARK  Name = 
REMARK  4 active torsions:
REMARK  status: ('A' for Active; 'I' for Inactive)
REMARK    1  A    between atoms: C_1  and  O_2
REMARK    2  A    between atoms: O_2  and  C_3
REMARK    3  A    between atoms: C_11  and  C_12
REMARK    4  A    between atoms: C_12  and  N_13
REMARK                            x       y       z     vdW  Elec       q    Type
REMARK                         _______ _______ _______ _____ _____    ______ ____
ROOT
ATOM      1  C   UNL     1       4.353   4.796  17.621  0.00  0.00    +0.000 A 
ATOM      2  C   UNL     1       4.175   6.162  17.260  0.00  0.00    +0.000 A 
ATOM      3 CL   UNL     1       4.857   6.922  15.823  0.00  0.00    +0.000 Cl
ATOM      4  C   UNL     1       3.399   6.994  18.062  0.00  0.00    +0.000 A 
ATOM      5  C   UNL     1       2.796   6.516  19.223  0.00  0.00    +0.000 A 
ATOM      6 CL   UNL     1       1.868   7.643  20.206  0.00  0.00    +0.000 Cl
ATOM      7  C   UNL     1       2.930   5.168  19.581  0.00  0.00    +0.000 A 
ATOM      8 CL   UNL     1       2.135   4.586  21.049  0.00  0.00    +0.000 Cl
ATOM      9  C   UNL     1       3.700   4.293  18.776  0.00  0.00    +0.000 A 
ENDROOT
BRANCH   1  11
ATOM     10  C   UNL     1       6.460   4.137  16.542  0.00  0.00    +0.000 C 
ATOM     11  O   UNL     1       5.162   3.932  16.949  0.00  0.00    +0.000 OA
ENDBRANCH   1  11
BRANCH   9  12
ATOM     12  C   UNL     1       3.811   2.824  19.146  0.00  0.00    +0.000 C 
BRANCH  12  13
ATOM     13  N   UNL     1       5.121   2.529  19.719  0.00  0.00    +0.000 NA
ATOM     14  H   UNL     1       5.052   2.589  20.760  0.00  0.00    +0.000 HD
ATOM     15  H   UNL     1       5.791   3.267  19.401  0.00  0.00    +0.000 HD
ENDBRANCH  12  13
ENDBRANCH   9  12
TORSDOF 3
ENDMDL
MODEL 8
REMARK VINA RESULT:      -5.0      2.351      3.925
REMARK  Name = 
REMARK  4 active torsions:
REMARK  status: ('A' for Active; 'I' for Inactive)
REMARK    1  A    between atoms: C_1  and  O_2
REMARK    2  A    between atoms: O_2  and  C_3
REMARK    3  A    between atoms: C_11  and  C_12
REMARK    4  A    between atoms: C_12  and  N_13
REMARK                            x       y       z     vdW  Elec       q    Type
REMARK                         _______ _______ _______ _____ _____    ______ ____
ROOT
ATOM      1  C   UNL     1       4.067   5.813  17.286  0.00  0.00    +0.000 A 
ATOM      2  C   UNL     1       3.015   6.382  18.058  0.00  0.00    +0.000 A 
ATOM      3 CL   UNL     1       2.684   8.108  18.197  0.00  0.00    +0.000 Cl
ATOM      4  C   UNL     1       2.146   5.551  18.761  0.00  0.00    +0.000 A 
ATOM      5  C   UNL     1       2.292   4.166  18.729  0.00  0.00    +0.000 A 
ATOM      6 CL   UNL     1       1.181   3.188  19.680  0.00  0.00    +0.000 Cl
ATOM      7  C   UNL     1       3.300   3.583  17.950  0.00  0.00    +0.000 A 
ATOM      8 CL   UNL     1       3.447   1.822  17.913  0.00  0.00    +0.000 Cl
ATOM      9  C   UNL     1       4.189   4.402  17.212  0.00  0.00    +0.000 A 
ENDROOT
BRANCH   1  11
ATOM     10  C   UNL     1       6.075   7.227  17.191  0.00  0.00    +0.000 C 
ATOM     11  O   UNL     1       5.015   6.545  16.639  0.00  0.00    +0.000 OA
ENDBRANCH   1  11
BRANCH   9  12
ATOM     12  C   UNL     1       5.257   3.765  16.338  0.00  0.00    +0.000 C 
BRANCH  12  13
ATOM     13  N   UNL     1       6.576   3.901  16.946  0.00  0.00    +0.000 NA
ATOM     14  H   UNL     1       7.143   3.055  16.709  0.00  0.00    +0.000 HD
ATOM     15  H   UNL     1       6.457   3.924  17.985  0.00  0.00    +0.000 HD
ENDBRANCH  12  13
ENDBRANCH   9  12
TORSDOF 3
ENDMDL
MODEL 9
REMARK VINA RESULT:      -5.0      1.474      1.532
REMARK  Name = 
REMARK  4 active torsions:
REMARK  status: ('A' for Active; 'I' for Inactive)
REMARK    1  A    between atoms: C_1  and  O_2
REMARK    2  A    between atoms: O_2  and  C_3
REMARK    3  A    between atoms: C_11  and  C_12
REMARK    4  A    between atoms: C_12  and  N_13
REMARK                            x       y       z     vdW  Elec       q    Type
REMARK                         _______ _______ _______ _____ _____    ______ ____
ROOT
ATOM      1  C   UNL     1       3.134   3.600  17.933  0.00  0.00    +0.000 A 
ATOM      2  C   UNL     1       2.134   4.181  18.763  0.00  0.00    +0.000 A 
ATOM      3 CL   UNL     1       0.989   3.274  19.750  0.00  0.00    +0.000 Cl
ATOM      4  C   UNL     1       2.024   5.567  18.847  0.00  0.00    +0.000 A 
ATOM      5  C   UNL     1       2.873   6.401  18.124  0.00  0.00    +0.000 A 
ATOM      6 CL   UNL     1       2.641   8.140  18.250  0.00  0.00    +0.000 Cl
ATOM      7  C   UNL     1       3.885   5.852  17.326  0.00  0.00    +0.000 A 
ATOM      8 CL   UNL     1       4.961   6.936  16.437  0.00  0.00    +0.000 Cl
ATOM      9  C   UNL     1       4.032   4.446  17.233  0.00  0.00    +0.000 A 
ENDROOT
BRANCH   1  11
ATOM     10  C   UNL     1       3.706   1.306  18.603  0.00  0.00    +0.000 C 
ATOM     11  O   UNL     1       3.260   2.262  17.719  0.00  0.00    +0.000 OA
ENDBRANCH   1  11
BRANCH   9  12
ATOM     12  C   UNL     1       5.155   3.855  16.397  0.00  0.00    +0.000 C 
BRANCH  12  13
ATOM     13  N   UNL     1       6.423   3.910  17.116  0.00  0.00    +0.000 NA
ATOM     14  H   UNL     1       6.660   4.911  17.302  0.00  0.00    +0.000 HD
ATOM     15  H   UNL     1       7.169   3.517  16.496  0.00  0.00    +0.000 HD
ENDBRANCH  12  13
ENDBRANCH   9  12
TORSDOF 3
ENDMDL
