MODEL 1
REMARK VINA RESULT:      -7.7      0.000      0.000
REMARK  Name = 
REMARK  13 active torsions:
REMARK  status: ('A' for Active; 'I' for Inactive)
REMARK    1  A    between atoms: C_1  and  C_2
REMARK    2  A    between atoms: C_2  and  N_3
REMARK    3  A    between atoms: N_3  and  C_4
REMARK    4  A    between atoms: N_3  and  C_6
REMARK    5  A    between atoms: C_4  and  C_5
REMARK    6  A    between atoms: C_6  and  C_7
REMARK    7  A    between atoms: C_7  and  N_8
REMARK    8  A    between atoms: C_9  and  C_11
REMARK    9  A    between atoms: C_12  and  C_13
REMARK   10  A    between atoms: C_15  and  C_16
REMARK   11  A    between atoms: C_24  and  C_25
REMARK   12  A    between atoms: C_28  and  C_29
REMARK   13  A    between atoms: C_34  and  C_35
REMARK                            x       y       z     vdW  Elec       q    Type
REMARK                         _______ _______ _______ _____ _____    ______ ____
ROOT
ATOM      1  C   UNL     1      -0.551  13.083  19.552  0.00  0.00    +0.000 A 
ATOM      2  C   UNL     1      -1.557  12.130  19.409  0.00  0.00    +0.000 A 
ATOM      3  C   UNL     1      -3.043  12.228  19.433  0.00  0.00    +0.000 C 
ATOM      4  N   UNL     1      -0.953  10.928  19.095  0.00  0.00    +0.000 N 
ATOM      5  C   UNL     1       0.408  11.074  18.990  0.00  0.00    +0.000 A 
ATOM      6  C   UNL     1       0.700  12.396  19.289  0.00  0.00    +0.000 A 
ATOM      7  C   UNL     1       2.050  13.030  19.280  0.00  0.00    +0.000 C 
ATOM      8  H   UNL     1      -1.458  10.079  18.880  0.00  0.00    +0.000 HD
ENDROOT
BRANCH   5   9
ATOM      9  C   UNL     1       1.198   9.954  18.596  0.00  0.00    +0.000 C 
ATOM     10  C   UNL     1       1.472   8.922  19.417  0.00  0.00    +0.000 C 
ATOM     11  C   UNL     1       1.038   8.808  20.858  0.00  0.00    +0.000 C 
ATOM     12  O   UNL     1       0.499   9.642  21.568  0.00  0.00    +0.000 OA
ATOM     13  N   UNL     1       1.426   7.545  21.260  0.00  0.00    +0.000 N 
ATOM     14  C   UNL     1       2.122   6.886  20.262  0.00  0.00    +0.000 A 
ATOM     15  C   UNL     1       2.699   5.637  20.370  0.00  0.00    +0.000 A 
ATOM     16  C   UNL     1       3.416   5.171  19.268  0.00  0.00    +0.000 A 
ATOM     17  C   UNL     1       3.554   5.935  18.082  0.00  0.00    +0.000 A 
ATOM     18  C   UNL     1       2.912   7.205  18.016  0.00  0.00    +0.000 A 
ATOM     19  C   UNL     1       2.204   7.673  19.107  0.00  0.00    +0.000 A 
ATOM     20  H   UNL     1       1.274   7.207  22.196  0.00  0.00    +0.000 HD
BRANCH  17  21
ATOM     21  C   UNL     1       4.371   5.414  16.963  0.00  0.00    +0.000 A 
ATOM     22  C   UNL     1       4.614   4.057  16.779  0.00  0.00    +0.000 A 
ATOM     23  C   UNL     1       5.399   3.638  15.704  0.00  0.00    +0.000 A 
ATOM     24  C   UNL     1       5.934   4.578  14.831  0.00  0.00    +0.000 A 
ATOM     25  C   UNL     1       6.800   4.174  13.682  0.00  0.00    +0.000 C 
ATOM     26  C   UNL     1       5.641   5.913  15.078  0.00  0.00    +0.000 A 
ATOM     27  N   UNL     1       4.887   6.346  16.115  0.00  0.00    +0.000 NA
ENDBRANCH  17  21
ENDBRANCH   5   9
BRANCH   1  29
ATOM     28  N   UNL     1      -0.656  15.357  18.699  0.00  0.00    +0.000 N 
ATOM     29  C   UNL     1      -0.704  14.526  19.805  0.00  0.00    +0.000 C 
ATOM     30  O   UNL     1      -0.892  14.969  20.936  0.00  0.00    +0.000 OA
ATOM     31  H   UNL     1      -0.782  14.951  17.782  0.00  0.00    +0.000 HD
BRANCH  28  32
ATOM     32  C   UNL     1      -0.839  16.785  18.853  0.00  0.00    +0.000 C 
BRANCH  32  33
ATOM     33  C   UNL     1       0.455  17.629  18.748  0.00  0.00    +0.000 C 
BRANCH  33  34
ATOM     34  N   UNL     1       1.729  16.880  18.905  0.00  0.00    +0.000 NA
BRANCH  34  36
ATOM     35  C   UNL     1       3.624  15.920  17.497  0.00  0.00    +0.000 C 
ATOM     36  C   UNL     1       2.523  16.960  17.662  0.00  0.00    +0.000 C 
ENDBRANCH  34  36
BRANCH  34  37
ATOM     37  C   UNL     1       2.475  17.329  20.101  0.00  0.00    +0.000 C 
ATOM     38  C   UNL     1       2.490  16.391  21.309  0.00  0.00    +0.000 C 
ENDBRANCH  34  37
ENDBRANCH  33  34
ENDBRANCH  32  33
ENDBRANCH  28  32
ENDBRANCH   1  29
TORSDOF 8
ENDMDL
MODEL 2
REMARK VINA RESULT:      -7.5      2.287      4.580
REMARK  Name = 
REMARK  13 active torsions:
REMARK  status: ('A' for Active; 'I' for Inactive)
REMARK    1  A    between atoms: C_1  and  C_2
REMARK    2  A    between atoms: C_2  and  N_3
REMARK    3  A    between atoms: N_3  and  C_4
REMARK    4  A    between atoms: N_3  and  C_6
REMARK    5  A    between atoms: C_4  and  C_5
REMARK    6  A    between atoms: C_6  and  C_7
REMARK    7  A    between atoms: C_7  and  N_8
REMARK    8  A    between atoms: C_9  and  C_11
REMARK    9  A    between atoms: C_12  and  C_13
REMARK   10  A    between atoms: C_15  and  C_16
REMARK   11  A    between atoms: C_24  and  C_25
REMARK   12  A    between atoms: C_28  and  C_29
REMARK   13  A    between atoms: C_34  and  C_35
REMARK                            x       y       z     vdW  Elec       q    Type
REMARK                         _______ _______ _______ _____ _____    ______ ____
ROOT
ATOM      1  C   UNL     1      -0.888  12.673  20.053  0.00  0.00    +0.000 A 
ATOM      2  C   UNL     1       0.359  12.974  20.595  0.00  0.00    +0.000 A 
ATOM      3  C   UNL     1       0.809  14.017  21.558  0.00  0.00    +0.000 C 
ATOM      4  N   UNL     1       1.246  12.005  20.169  0.00  0.00    +0.000 N 
ATOM      5  C   UNL     1       0.610  11.061  19.401  0.00  0.00    +0.000 A 
ATOM      6  C   UNL     1      -0.714  11.453  19.287  0.00  0.00    +0.000 A 
ATOM      7  C   UNL     1      -1.796  10.724  18.564  0.00  0.00    +0.000 C 
ATOM      8  H   UNL     1       2.211  11.950  20.464  0.00  0.00    +0.000 HD
ENDROOT
BRANCH   5   9
ATOM      9  C   UNL     1       1.350   9.936  18.932  0.00  0.00    +0.000 C 
ATOM     10  C   UNL     1       1.523   8.815  19.658  0.00  0.00    +0.000 C 
ATOM     11  C   UNL     1       1.014   8.590  21.061  0.00  0.00    +0.000 C 
ATOM     12  O   UNL     1       0.492   9.385  21.826  0.00  0.00    +0.000 OA
ATOM     13  N   UNL     1       1.308   7.273  21.352  0.00  0.00    +0.000 N 
ATOM     14  C   UNL     1       2.011   6.670  20.324  0.00  0.00    +0.000 A 
ATOM     15  C   UNL     1       2.508   5.383  20.333  0.00  0.00    +0.000 A 
ATOM     16  C   UNL     1       3.248   4.980  19.222  0.00  0.00    +0.000 A 
ATOM     17  C   UNL     1       3.488   5.844  18.124  0.00  0.00    +0.000 A 
ATOM     18  C   UNL     1       2.926   7.152  18.156  0.00  0.00    +0.000 A 
ATOM     19  C   UNL     1       2.195   7.557  19.257  0.00  0.00    +0.000 A 
ATOM     20  H   UNL     1       1.092   6.857  22.243  0.00  0.00    +0.000 HD
BRANCH  17  21
ATOM     21  C   UNL     1       4.326   5.382  16.995  0.00  0.00    +0.000 A 
ATOM     22  C   UNL     1       4.594   4.037  16.759  0.00  0.00    +0.000 A 
ATOM     23  C   UNL     1       5.397   3.675  15.677  0.00  0.00    +0.000 A 
ATOM     24  C   UNL     1       5.927   4.659  14.849  0.00  0.00    +0.000 A 
ATOM     25  C   UNL     1       6.812   4.316  13.695  0.00  0.00    +0.000 C 
ATOM     26  C   UNL     1       5.609   5.977  15.146  0.00  0.00    +0.000 A 
ATOM     27  N   UNL     1       4.836   6.356  16.191  0.00  0.00    +0.000 NA
ENDBRANCH  17  21
ENDBRANCH   5   9
BRANCH   1  29
ATOM     28  N   UNL     1      -3.309  12.587  20.268  0.00  0.00    +0.000 N 
ATOM     29  C   UNL     1      -2.166  13.368  20.287  0.00  0.00    +0.000 C 
ATOM     30  O   UNL     1      -2.214  14.575  20.515  0.00  0.00    +0.000 OA
ATOM     31  H   UNL     1      -3.213  11.585  20.359  0.00  0.00    +0.000 HD
BRANCH  28  32
ATOM     32  C   UNL     1      -4.602  13.183  20.529  0.00  0.00    +0.000 C 
BRANCH  32  33
ATOM     33  C   UNL     1      -5.786  12.552  19.755  0.00  0.00    +0.000 C 
BRANCH  33  34
ATOM     34  N   UNL     1      -5.428  11.487  18.783  0.00  0.00    +0.000 NA
BRANCH  34  36
ATOM     35  C   UNL     1      -7.217  10.266  20.126  0.00  0.00    +0.000 C 
ATOM     36  C   UNL     1      -6.423  10.398  18.832  0.00  0.00    +0.000 C 
ENDBRANCH  34  36
BRANCH  34  37
ATOM     37  C   UNL     1      -5.236  12.038  17.424  0.00  0.00    +0.000 C 
ATOM     38  C   UNL     1      -4.448  11.184  16.428  0.00  0.00    +0.000 C 
ENDBRANCH  34  37
ENDBRANCH  33  34
ENDBRANCH  32  33
ENDBRANCH  28  32
ENDBRANCH   1  29
TORSDOF 8
ENDMDL
MODEL 3
REMARK VINA RESULT:      -7.3      2.304      4.124
REMARK  Name = 
REMARK  13 active torsions:
REMARK  status: ('A' for Active; 'I' for Inactive)
REMARK    1  A    between atoms: C_1  and  C_2
REMARK    2  A    between atoms: C_2  and  N_3
REMARK    3  A    between atoms: N_3  and  C_4
REMARK    4  A    between atoms: N_3  and  C_6
REMARK    5  A    between atoms: C_4  and  C_5
REMARK    6  A    between atoms: C_6  and  C_7
REMARK    7  A    between atoms: C_7  and  N_8
REMARK    8  A    between atoms: C_9  and  C_11
REMARK    9  A    between atoms: C_12  and  C_13
REMARK   10  A    between atoms: C_15  and  C_16
REMARK   11  A    between atoms: C_24  and  C_25
REMARK   12  A    between atoms: C_28  and  C_29
REMARK   13  A    between atoms: C_34  and  C_35
REMARK                            x       y       z     vdW  Elec       q    Type
REMARK                         _______ _______ _______ _____ _____    ______ ____
ROOT
ATOM      1  C   UNL     1      -0.886  12.514  19.787  0.00  0.00    +0.000 A 
ATOM      2  C   UNL     1       0.335  12.806  20.390  0.00  0.00    +0.000 A 
ATOM      3  C   UNL     1       0.742  13.836  21.386  0.00  0.00    +0.000 C 
ATOM      4  N   UNL     1       1.241  11.843  19.990  0.00  0.00    +0.000 N 
ATOM      5  C   UNL     1       0.641  10.910  19.180  0.00  0.00    +0.000 A 
ATOM      6  C   UNL     1      -0.677  11.305  19.013  0.00  0.00    +0.000 A 
ATOM      7  C   UNL     1      -1.725  10.587  18.231  0.00  0.00    +0.000 C 
ATOM      8  H   UNL     1       2.192  11.784  20.327  0.00  0.00    +0.000 HD
ENDROOT
BRANCH   5   9
ATOM      9  C   UNL     1       1.402   9.792  18.729  0.00  0.00    +0.000 C 
ATOM     10  C   UNL     1       1.628   8.703  19.488  0.00  0.00    +0.000 C 
ATOM     11  C   UNL     1       1.164   8.512  20.911  0.00  0.00    +0.000 C 
ATOM     12  O   UNL     1       0.640   9.318  21.664  0.00  0.00    +0.000 OA
ATOM     13  N   UNL     1       1.506   7.215  21.239  0.00  0.00    +0.000 N 
ATOM     14  C   UNL     1       2.198   6.597  20.212  0.00  0.00    +0.000 A 
ATOM     15  C   UNL     1       2.734   5.327  20.252  0.00  0.00    +0.000 A 
ATOM     16  C   UNL     1       3.456   4.907  19.134  0.00  0.00    +0.000 A 
ATOM     17  C   UNL     1       3.639   5.739  18.001  0.00  0.00    +0.000 A 
ATOM     18  C   UNL     1       3.039   7.031  18.004  0.00  0.00    +0.000 A 
ATOM     19  C   UNL     1       2.326   7.452  19.111  0.00  0.00    +0.000 A 
ATOM     20  H   UNL     1       1.326   6.824  22.149  0.00  0.00    +0.000 HD
BRANCH  17  21
ATOM     21  C   UNL     1       4.460   5.262  16.865  0.00  0.00    +0.000 A 
ATOM     22  C   UNL     1       4.762   3.919  16.668  0.00  0.00    +0.000 A 
ATOM     23  C   UNL     1       5.546   3.543  15.577  0.00  0.00    +0.000 A 
ATOM     24  C   UNL     1       6.023   4.512  14.700  0.00  0.00    +0.000 A 
ATOM     25  C   UNL     1       6.886   4.155  13.534  0.00  0.00    +0.000 C 
ATOM     26  C   UNL     1       5.673   5.830  14.961  0.00  0.00    +0.000 A 
ATOM     27  N   UNL     1       4.918   6.222  16.014  0.00  0.00    +0.000 NA
ENDBRANCH  17  21
ENDBRANCH   5   9
BRANCH   1  29
ATOM     28  N   UNL     1      -3.309  12.416  19.959  0.00  0.00    +0.000 N 
ATOM     29  C   UNL     1      -2.173  13.206  19.973  0.00  0.00    +0.000 C 
ATOM     30  O   UNL     1      -2.234  14.420  20.158  0.00  0.00    +0.000 OA
ATOM     31  H   UNL     1      -3.208  11.419  20.086  0.00  0.00    +0.000 HD
BRANCH  28  32
ATOM     32  C   UNL     1      -4.612  13.010  20.175  0.00  0.00    +0.000 C 
BRANCH  32  33
ATOM     33  C   UNL     1      -5.169  12.869  21.613  0.00  0.00    +0.000 C 
BRANCH  33  34
ATOM     34  N   UNL     1      -4.347  13.482  22.688  0.00  0.00    +0.000 NA
BRANCH  34  36
ATOM     35  C   UNL     1      -6.702  14.101  23.442  0.00  0.00    +0.000 C 
ATOM     36  C   UNL     1      -5.197  14.303  23.574  0.00  0.00    +0.000 C 
ENDBRANCH  34  36
BRANCH  34  37
ATOM     37  C   UNL     1      -3.564  12.461  23.417  0.00  0.00    +0.000 C 
ATOM     38  C   UNL     1      -2.054  12.686  23.530  0.00  0.00    +0.000 C 
ENDBRANCH  34  37
ENDBRANCH  33  34
ENDBRANCH  32  33
ENDBRANCH  28  32
ENDBRANCH   1  29
TORSDOF 8
ENDMDL
MODEL 4
REMARK VINA RESULT:      -7.3      2.579      5.051
REMARK  Name = 
REMARK  13 active torsions:
REMARK  status: ('A' for Active; 'I' for Inactive)
REMARK    1  A    between atoms: C_1  and  C_2
REMARK    2  A    between atoms: C_2  and  N_3
REMARK    3  A    between atoms: N_3  and  C_4
REMARK    4  A    between atoms: N_3  and  C_6
REMARK    5  A    between atoms: C_4  and  C_5
REMARK    6  A    between atoms: C_6  and  C_7
REMARK    7  A    between atoms: C_7  and  N_8
REMARK    8  A    between atoms: C_9  and  C_11
REMARK    9  A    between atoms: C_12  and  C_13
REMARK   10  A    between atoms: C_15  and  C_16
REMARK   11  A    between atoms: C_24  and  C_25
REMARK   12  A    between atoms: C_28  and  C_29
REMARK   13  A    between atoms: C_34  and  C_35
REMARK                            x       y       z     vdW  Elec       q    Type
REMARK                         _______ _______ _______ _____ _____    ______ ____
ROOT
ATOM      1  C   UNL     1      -0.967  11.570  19.321  0.00  0.00    +0.000 A 
ATOM      2  C   UNL     1       0.237  12.079  19.802  0.00  0.00    +0.000 A 
ATOM      3  C   UNL     1       0.551  13.199  20.733  0.00  0.00    +0.000 C 
ATOM      4  N   UNL     1       1.251  11.262  19.344  0.00  0.00    +0.000 N 
ATOM      5  C   UNL     1       0.746  10.214  18.615  0.00  0.00    +0.000 A 
ATOM      6  C   UNL     1      -0.629  10.382  18.559  0.00  0.00    +0.000 A 
ATOM      7  C   UNL     1      -1.607   9.474  17.893  0.00  0.00    +0.000 C 
ATOM      8  H   UNL     1       2.224  11.371  19.594  0.00  0.00    +0.000 HD
ENDROOT
BRANCH   5   9
ATOM      9  C   UNL     1       1.639   9.217  18.122  0.00  0.00    +0.000 C 
ATOM     10  C   UNL     1       2.056   8.173  18.863  0.00  0.00    +0.000 C 
ATOM     11  C   UNL     1       1.691   7.918  20.304  0.00  0.00    +0.000 C 
ATOM     12  O   UNL     1       1.090   8.639  21.085  0.00  0.00    +0.000 OA
ATOM     13  N   UNL     1       2.231   6.684  20.608  0.00  0.00    +0.000 N 
ATOM     14  C   UNL     1       2.959   6.173  19.547  0.00  0.00    +0.000 A 
ATOM     15  C   UNL     1       3.674   4.994  19.554  0.00  0.00    +0.000 A 
ATOM     16  C   UNL     1       4.397   4.683  18.402  0.00  0.00    +0.000 A 
ATOM     17  C   UNL     1       4.405   5.532  17.267  0.00  0.00    +0.000 A 
ATOM     18  C   UNL     1       3.625   6.723  17.306  0.00  0.00    +0.000 A 
ATOM     19  C   UNL     1       2.910   7.037  18.447  0.00  0.00    +0.000 A 
ATOM     20  H   UNL     1       2.153   6.272  21.523  0.00  0.00    +0.000 HD
BRANCH  17  21
ATOM     21  C   UNL     1       5.234   5.179  16.092  0.00  0.00    +0.000 A 
ATOM     22  C   UNL     1       6.564   5.564  15.967  0.00  0.00    +0.000 A 
ATOM     23  C   UNL     1       7.282   5.199  14.828  0.00  0.00    +0.000 A 
ATOM     24  C   UNL     1       6.663   4.459  13.827  0.00  0.00    +0.000 A 
ATOM     25  C   UNL     1       7.388   4.069  12.580  0.00  0.00    +0.000 C 
ATOM     26  C   UNL     1       5.334   4.108  14.028  0.00  0.00    +0.000 A 
ATOM     27  N   UNL     1       4.614   4.453  15.121  0.00  0.00    +0.000 NA
ENDBRANCH  17  21
ENDBRANCH   5   9
BRANCH   1  29
ATOM     28  N   UNL     1      -3.237  12.001  18.562  0.00  0.00    +0.000 N 
ATOM     29  C   UNL     1      -2.330  12.050  19.607  0.00  0.00    +0.000 C 
ATOM     30  O   UNL     1      -2.654  12.449  20.723  0.00  0.00    +0.000 OA
ATOM     31  H   UNL     1      -3.023  11.421  17.763  0.00  0.00    +0.000 HD
BRANCH  28  32
ATOM     32  C   UNL     1      -4.608  12.416  18.769  0.00  0.00    +0.000 C 
BRANCH  32  33
ATOM     33  C   UNL     1      -5.660  11.284  18.663  0.00  0.00    +0.000 C 
BRANCH  33  34
ATOM     34  N   UNL     1      -7.068  11.684  18.920  0.00  0.00    +0.000 NA
BRANCH  34  36
ATOM     35  C   UNL     1      -7.302  11.840  21.453  0.00  0.00    +0.000 C 
ATOM     36  C   UNL     1      -7.555  11.062  20.167  0.00  0.00    +0.000 C 
ENDBRANCH  34  36
BRANCH  34  37
ATOM     37  C   UNL     1      -7.221  13.156  18.906  0.00  0.00    +0.000 C 
ATOM     38  C   UNL     1      -7.906  13.776  17.686  0.00  0.00    +0.000 C 
ENDBRANCH  34  37
ENDBRANCH  33  34
ENDBRANCH  32  33
ENDBRANCH  28  32
ENDBRANCH   1  29
TORSDOF 8
ENDMDL
MODEL 5
REMARK VINA RESULT:      -7.2      2.148      4.557
REMARK  Name = 
REMARK  13 active torsions:
REMARK  status: ('A' for Active; 'I' for Inactive)
REMARK    1  A    between atoms: C_1  and  C_2
REMARK    2  A    between atoms: C_2  and  N_3
REMARK    3  A    between atoms: N_3  and  C_4
REMARK    4  A    between atoms: N_3  and  C_6
REMARK    5  A    between atoms: C_4  and  C_5
REMARK    6  A    between atoms: C_6  and  C_7
REMARK    7  A    between atoms: C_7  and  N_8
REMARK    8  A    between atoms: C_9  and  C_11
REMARK    9  A    between atoms: C_12  and  C_13
REMARK   10  A    between atoms: C_15  and  C_16
REMARK   11  A    between atoms: C_24  and  C_25
REMARK   12  A    between atoms: C_28  and  C_29
REMARK   13  A    between atoms: C_34  and  C_35
REMARK                            x       y       z     vdW  Elec       q    Type
REMARK                         _______ _______ _______ _____ _____    ______ ____
ROOT
ATOM      1  C   UNL     1      -0.705  13.735  20.201  0.00  0.00    +0.000 A 
ATOM      2  C   UNL     1       0.521  13.883  20.844  0.00  0.00    +0.000 A 
ATOM      3  C   UNL     1       1.015  14.865  21.849  0.00  0.00    +0.000 C 
ATOM      4  N   UNL     1       1.317  12.814  20.481  0.00  0.00    +0.000 N 
ATOM      5  C   UNL     1       0.636  11.954  19.655  0.00  0.00    +0.000 A 
ATOM      6  C   UNL     1      -0.618  12.503  19.440  0.00  0.00    +0.000 A 
ATOM      7  C   UNL     1      -1.718  11.910  18.626  0.00  0.00    +0.000 C 
ATOM      8  H   UNL     1       2.242  12.643  20.851  0.00  0.00    +0.000 HD
ENDROOT
BRANCH   5   9
ATOM      9  C   UNL     1       1.270  10.747  19.236  0.00  0.00    +0.000 C 
ATOM     10  C   UNL     1       1.238   9.611  19.957  0.00  0.00    +0.000 C 
ATOM     11  C   UNL     1       0.581   9.445  21.305  0.00  0.00    +0.000 C 
ATOM     12  O   UNL     1       0.095  10.295  22.034  0.00  0.00    +0.000 OA
ATOM     13  N   UNL     1       0.683   8.099  21.601  0.00  0.00    +0.000 N 
ATOM     14  C   UNL     1       1.395   7.419  20.630  0.00  0.00    +0.000 A 
ATOM     15  C   UNL     1       1.727   6.080  20.663  0.00  0.00    +0.000 A 
ATOM     16  C   UNL     1       2.508   5.593  19.615  0.00  0.00    +0.000 A 
ATOM     17  C   UNL     1       2.950   6.426  18.556  0.00  0.00    +0.000 A 
ATOM     18  C   UNL     1       2.554   7.793  18.559  0.00  0.00    +0.000 A 
ATOM     19  C   UNL     1       1.782   8.281  19.597  0.00  0.00    +0.000 A 
ATOM     20  H   UNL     1       0.338   7.710  22.462  0.00  0.00    +0.000 HD
BRANCH  17  21
ATOM     21  C   UNL     1       3.823   5.867  17.498  0.00  0.00    +0.000 A 
ATOM     22  C   UNL     1       4.582   6.666  16.650  0.00  0.00    +0.000 A 
ATOM     23  C   UNL     1       5.378   6.070  15.673  0.00  0.00    +0.000 A 
ATOM     24  C   UNL     1       5.403   4.685  15.550  0.00  0.00    +0.000 A 
ATOM     25  C   UNL     1       6.223   4.007  14.501  0.00  0.00    +0.000 C 
ATOM     26  C   UNL     1       4.623   3.956  16.438  0.00  0.00    +0.000 A 
ATOM     27  N   UNL     1       3.839   4.509  17.392  0.00  0.00    +0.000 NA
ENDBRANCH  17  21
ENDBRANCH   5   9
BRANCH   1  29
ATOM     28  N   UNL     1      -3.088  13.930  20.646  0.00  0.00    +0.000 N 
ATOM     29  C   UNL     1      -1.904  14.580  20.339  0.00  0.00    +0.000 C 
ATOM     30  O   UNL     1      -1.854  15.801  20.215  0.00  0.00    +0.000 OA
ATOM     31  H   UNL     1      -3.043  12.989  21.011  0.00  0.00    +0.000 HD
BRANCH  28  32
ATOM     32  C   UNL     1      -4.306  14.689  20.840  0.00  0.00    +0.000 C 
BRANCH  32  33
ATOM     33  C   UNL     1      -5.525  14.196  20.022  0.00  0.00    +0.000 C 
BRANCH  33  34
ATOM     34  N   UNL     1      -5.591  12.731  19.780  0.00  0.00    +0.000 NA
BRANCH  34  36
ATOM     35  C   UNL     1      -7.474  11.169  20.494  0.00  0.00    +0.000 C 
ATOM     36  C   UNL     1      -6.305  12.064  20.887  0.00  0.00    +0.000 C 
ENDBRANCH  34  36
BRANCH  34  37
ATOM     37  C   UNL     1      -6.167  12.430  18.451  0.00  0.00    +0.000 C 
ATOM     38  C   UNL     1      -5.200  11.971  17.357  0.00  0.00    +0.000 C 
ENDBRANCH  34  37
ENDBRANCH  33  34
ENDBRANCH  32  33
ENDBRANCH  28  32
ENDBRANCH   1  29
TORSDOF 8
ENDMDL
MODEL 6
REMARK VINA RESULT:      -7.2      2.244      4.877
REMARK  Name = 
REMARK  13 active torsions:
REMARK  status: ('A' for Active; 'I' for Inactive)
REMARK    1  A    between atoms: C_1  and  C_2
REMARK    2  A    between atoms: C_2  and  N_3
REMARK    3  A    between atoms: N_3  and  C_4
REMARK    4  A    between atoms: N_3  and  C_6
REMARK    5  A    between atoms: C_4  and  C_5
REMARK    6  A    between atoms: C_6  and  C_7
REMARK    7  A    between atoms: C_7  and  N_8
REMARK    8  A    between atoms: C_9  and  C_11
REMARK    9  A    between atoms: C_12  and  C_13
REMARK   10  A    between atoms: C_15  and  C_16
REMARK   11  A    between atoms: C_24  and  C_25
REMARK   12  A    between atoms: C_28  and  C_29
REMARK   13  A    between atoms: C_34  and  C_35
REMARK                            x       y       z     vdW  Elec       q    Type
REMARK                         _______ _______ _______ _____ _____    ______ ____
ROOT
ATOM      1  C   UNL     1      -1.258  12.551  20.012  0.00  0.00    +0.000 A 
ATOM      2  C   UNL     1       0.003  13.072  20.290  0.00  0.00    +0.000 A 
ATOM      3  C   UNL     1       0.447  14.281  21.037  0.00  0.00    +0.000 C 
ATOM      4  N   UNL     1       0.940  12.170  19.825  0.00  0.00    +0.000 N 
ATOM      5  C   UNL     1       0.332  11.061  19.290  0.00  0.00    +0.000 A 
ATOM      6  C   UNL     1      -1.036  11.270  19.368  0.00  0.00    +0.000 A 
ATOM      7  C   UNL     1      -2.103  10.325  18.931  0.00  0.00    +0.000 C 
ATOM      8  H   UNL     1       1.938  12.273  19.950  0.00  0.00    +0.000 HD
ENDROOT
BRANCH   5   9
ATOM      9  C   UNL     1       1.141   9.982  18.826  0.00  0.00    +0.000 C 
ATOM     10  C   UNL     1       1.432   8.905  19.580  0.00  0.00    +0.000 C 
ATOM     11  C   UNL     1       0.997   8.690  21.009  0.00  0.00    +0.000 C 
ATOM     12  O   UNL     1       0.444   9.467  21.770  0.00  0.00    +0.000 OA
ATOM     13  N   UNL     1       1.407   7.410  21.329  0.00  0.00    +0.000 N 
ATOM     14  C   UNL     1       2.116   6.829  20.292  0.00  0.00    +0.000 A 
ATOM     15  C   UNL     1       2.714   5.587  20.322  0.00  0.00    +0.000 A 
ATOM     16  C   UNL     1       3.440   5.205  19.193  0.00  0.00    +0.000 A 
ATOM     17  C   UNL     1       3.567   6.047  18.059  0.00  0.00    +0.000 A 
ATOM     18  C   UNL     1       2.904   7.307  18.074  0.00  0.00    +0.000 A 
ATOM     19  C   UNL     1       2.186   7.691  19.191  0.00  0.00    +0.000 A 
ATOM     20  H   UNL     1       1.260   7.010  22.241  0.00  0.00    +0.000 HD
BRANCH  17  21
ATOM     21  C   UNL     1       4.395   5.612  16.912  0.00  0.00    +0.000 A 
ATOM     22  C   UNL     1       5.042   6.510  16.069  0.00  0.00    +0.000 A 
ATOM     23  C   UNL     1       5.802   6.028  15.004  0.00  0.00    +0.000 A 
ATOM     24  C   UNL     1       5.903   4.657  14.789  0.00  0.00    +0.000 A 
ATOM     25  C   UNL     1       6.686   4.100  13.645  0.00  0.00    +0.000 C 
ATOM     26  C   UNL     1       5.233   3.826  15.677  0.00  0.00    +0.000 A 
ATOM     27  N   UNL     1       4.486   4.267  16.716  0.00  0.00    +0.000 NA
ENDBRANCH  17  21
ENDBRANCH   5   9
BRANCH   1  29
ATOM     28  N   UNL     1      -3.618  12.866  19.519  0.00  0.00    +0.000 N 
ATOM     29  C   UNL     1      -2.568  13.110  20.388  0.00  0.00    +0.000 C 
ATOM     30  O   UNL     1      -2.729  13.739  21.432  0.00  0.00    +0.000 OA
ATOM     31  H   UNL     1      -3.520  12.129  18.836  0.00  0.00    +0.000 HD
BRANCH  28  32
ATOM     32  C   UNL     1      -4.949  13.344  19.833  0.00  0.00    +0.000 C 
BRANCH  32  33
ATOM     33  C   UNL     1      -5.891  12.295  20.471  0.00  0.00    +0.000 C 
BRANCH  33  34
ATOM     34  N   UNL     1      -7.020  11.837  19.620  0.00  0.00    +0.000 NA
BRANCH  34  36
ATOM     35  C   UNL     1      -7.150  12.749  17.244  0.00  0.00    +0.000 C 
ATOM     36  C   UNL     1      -7.458  12.927  18.726  0.00  0.00    +0.000 C 
ENDBRANCH  34  36
BRANCH  34  37
ATOM     37  C   UNL     1      -6.679  10.593  18.896  0.00  0.00    +0.000 C 
ATOM     38  C   UNL     1      -7.125   9.272  19.527  0.00  0.00    +0.000 C 
ENDBRANCH  34  37
ENDBRANCH  33  34
ENDBRANCH  32  33
ENDBRANCH  28  32
ENDBRANCH   1  29
TORSDOF 8
ENDMDL
MODEL 7
REMARK VINA RESULT:      -7.2      2.571      4.505
REMARK  Name = 
REMARK  13 active torsions:
REMARK  status: ('A' for Active; 'I' for Inactive)
REMARK    1  A    between atoms: C_1  and  C_2
REMARK    2  A    between atoms: C_2  and  N_3
REMARK    3  A    between atoms: N_3  and  C_4
REMARK    4  A    between atoms: N_3  and  C_6
REMARK    5  A    between atoms: C_4  and  C_5
REMARK    6  A    between atoms: C_6  and  C_7
REMARK    7  A    between atoms: C_7  and  N_8
REMARK    8  A    between atoms: C_9  and  C_11
REMARK    9  A    between atoms: C_12  and  C_13
REMARK   10  A    between atoms: C_15  and  C_16
REMARK   11  A    between atoms: C_24  and  C_25
REMARK   12  A    between atoms: C_28  and  C_29
REMARK   13  A    between atoms: C_34  and  C_35
REMARK                            x       y       z     vdW  Elec       q    Type
REMARK                         _______ _______ _______ _____ _____    ______ ____
ROOT
ATOM      1  C   UNL     1      -0.830  12.828  20.082  0.00  0.00    +0.000 A 
ATOM      2  C   UNL     1       0.400  13.067  20.691  0.00  0.00    +0.000 A 
ATOM      3  C   UNL     1       0.838  14.058  21.713  0.00  0.00    +0.000 C 
ATOM      4  N   UNL     1       1.275  12.086  20.267  0.00  0.00    +0.000 N 
ATOM      5  C   UNL     1       0.646  11.193  19.434  0.00  0.00    +0.000 A 
ATOM      6  C   UNL     1      -0.659  11.633  19.277  0.00  0.00    +0.000 A 
ATOM      7  C   UNL     1      -1.728  10.967  18.478  0.00  0.00    +0.000 C 
ATOM      8  H   UNL     1       2.224  11.988  20.602  0.00  0.00    +0.000 HD
ENDROOT
BRANCH   5   9
ATOM      9  C   UNL     1       1.372  10.063  18.955  0.00  0.00    +0.000 C 
ATOM     10  C   UNL     1       1.532   8.934  19.672  0.00  0.00    +0.000 C 
ATOM     11  C   UNL     1       1.022   8.705  21.073  0.00  0.00    +0.000 C 
ATOM     12  O   UNL     1       0.512   9.500  21.846  0.00  0.00    +0.000 OA
ATOM     13  N   UNL     1       1.300   7.381  21.353  0.00  0.00    +0.000 N 
ATOM     14  C   UNL     1       1.994   6.778  20.319  0.00  0.00    +0.000 A 
ATOM     15  C   UNL     1       2.475   5.485  20.317  0.00  0.00    +0.000 A 
ATOM     16  C   UNL     1       3.209   5.082  19.201  0.00  0.00    +0.000 A 
ATOM     17  C   UNL     1       3.457   5.952  18.110  0.00  0.00    +0.000 A 
ATOM     18  C   UNL     1       2.912   7.267  18.154  0.00  0.00    +0.000 A 
ATOM     19  C   UNL     1       2.187   7.672  19.259  0.00  0.00    +0.000 A 
ATOM     20  H   UNL     1       1.081   6.961  22.241  0.00  0.00    +0.000 HD
BRANCH  17  21
ATOM     21  C   UNL     1       4.288   5.488  16.976  0.00  0.00    +0.000 A 
ATOM     22  C   UNL     1       4.949   6.363  16.121  0.00  0.00    +0.000 A 
ATOM     23  C   UNL     1       5.711   5.854  15.069  0.00  0.00    +0.000 A 
ATOM     24  C   UNL     1       5.800   4.479  14.881  0.00  0.00    +0.000 A 
ATOM     25  C   UNL     1       6.584   3.893  13.753  0.00  0.00    +0.000 C 
ATOM     26  C   UNL     1       5.116   3.671  15.781  0.00  0.00    +0.000 A 
ATOM     27  N   UNL     1       4.367   4.139  16.806  0.00  0.00    +0.000 NA
ENDBRANCH  17  21
ENDBRANCH   5   9
BRANCH   1  29
ATOM     28  N   UNL     1      -3.223  12.785  20.512  0.00  0.00    +0.000 N 
ATOM     29  C   UNL     1      -2.095  13.555  20.286  0.00  0.00    +0.000 C 
ATOM     30  O   UNL     1      -2.143  14.783  20.282  0.00  0.00    +0.000 OA
ATOM     31  H   UNL     1      -3.104  11.820  20.784  0.00  0.00    +0.000 HD
BRANCH  28  32
ATOM     32  C   UNL     1      -4.499  13.421  20.763  0.00  0.00    +0.000 C 
BRANCH  32  33
ATOM     33  C   UNL     1      -5.417  12.680  21.766  0.00  0.00    +0.000 C 
BRANCH  33  34
ATOM     34  N   UNL     1      -6.067  13.530  22.797  0.00  0.00    +0.000 NA
BRANCH  34  36
ATOM     35  C   UNL     1      -4.610  12.433  24.577  0.00  0.00    +0.000 C 
ATOM     36  C   UNL     1      -5.994  12.874  24.118  0.00  0.00    +0.000 C 
ENDBRANCH  34  36
BRANCH  34  37
ATOM     37  C   UNL     1      -5.509  14.900  22.797  0.00  0.00    +0.000 C 
ATOM     38  C   UNL     1      -6.488  16.055  23.016  0.00  0.00    +0.000 C 
ENDBRANCH  34  37
ENDBRANCH  33  34
ENDBRANCH  32  33
ENDBRANCH  28  32
ENDBRANCH   1  29
TORSDOF 8
ENDMDL
MODEL 8
REMARK VINA RESULT:      -7.2      1.011      1.518
REMARK  Name = 
REMARK  13 active torsions:
REMARK  status: ('A' for Active; 'I' for Inactive)
REMARK    1  A    between atoms: C_1  and  C_2
REMARK    2  A    between atoms: C_2  and  N_3
REMARK    3  A    between atoms: N_3  and  C_4
REMARK    4  A    between atoms: N_3  and  C_6
REMARK    5  A    between atoms: C_4  and  C_5
REMARK    6  A    between atoms: C_6  and  C_7
REMARK    7  A    between atoms: C_7  and  N_8
REMARK    8  A    between atoms: C_9  and  C_11
REMARK    9  A    between atoms: C_12  and  C_13
REMARK   10  A    between atoms: C_15  and  C_16
REMARK   11  A    between atoms: C_24  and  C_25
REMARK   12  A    between atoms: C_28  and  C_29
REMARK   13  A    between atoms: C_34  and  C_35
REMARK                            x       y       z     vdW  Elec       q    Type
REMARK                         _______ _______ _______ _____ _____    ______ ____
ROOT
ATOM      1  C   UNL     1      -0.425  12.586  19.327  0.00  0.00    +0.000 A 
ATOM      2  C   UNL     1      -1.374  11.605  19.051  0.00  0.00    +0.000 A 
ATOM      3  C   UNL     1      -2.862  11.636  18.991  0.00  0.00    +0.000 C 
ATOM      4  N   UNL     1      -0.696  10.458  18.684  0.00  0.00    +0.000 N 
ATOM      5  C   UNL     1       0.661  10.672  18.674  0.00  0.00    +0.000 A 
ATOM      6  C   UNL     1       0.870  11.977  19.089  0.00  0.00    +0.000 A 
ATOM      7  C   UNL     1       2.187  12.668  19.211  0.00  0.00    +0.000 C 
ATOM      8  H   UNL     1      -1.146   9.608  18.375  0.00  0.00    +0.000 HD
ENDROOT
BRANCH   5   9
ATOM      9  C   UNL     1       1.524   9.621  18.245  0.00  0.00    +0.000 C 
ATOM     10  C   UNL     1       1.837   8.564  19.018  0.00  0.00    +0.000 C 
ATOM     11  C   UNL     1       1.372   8.347  20.437  0.00  0.00    +0.000 C 
ATOM     12  O   UNL     1       0.768   9.110  21.174  0.00  0.00    +0.000 OA
ATOM     13  N   UNL     1       1.823   7.088  20.784  0.00  0.00    +0.000 N 
ATOM     14  C   UNL     1       2.583   6.525  19.773  0.00  0.00    +0.000 A 
ATOM     15  C   UNL     1       3.229   5.308  19.833  0.00  0.00    +0.000 A 
ATOM     16  C   UNL     1       4.000   4.943  18.729  0.00  0.00    +0.000 A 
ATOM     17  C   UNL     1       4.124   5.778  17.589  0.00  0.00    +0.000 A 
ATOM     18  C   UNL     1       3.412   7.010  17.571  0.00  0.00    +0.000 A 
ATOM     19  C   UNL     1       2.649   7.377  18.664  0.00  0.00    +0.000 A 
ATOM     20  H   UNL     1       1.667   6.692  21.696  0.00  0.00    +0.000 HD
BRANCH  17  21
ATOM     21  C   UNL     1       5.000   5.365  16.470  0.00  0.00    +0.000 A 
ATOM     22  C   UNL     1       6.265   5.906  16.266  0.00  0.00    +0.000 A 
ATOM     23  C   UNL     1       7.033   5.471  15.186  0.00  0.00    +0.000 A 
ATOM     24  C   UNL     1       6.528   4.507  14.320  0.00  0.00    +0.000 A 
ATOM     25  C   UNL     1       7.307   4.033  13.137  0.00  0.00    +0.000 C 
ATOM     26  C   UNL     1       5.259   4.011  14.594  0.00  0.00    +0.000 A 
ATOM     27  N   UNL     1       4.492   4.418  15.632  0.00  0.00    +0.000 NA
ENDBRANCH  17  21
ENDBRANCH   5   9
BRANCH   1  29
ATOM     28  N   UNL     1      -0.442  14.930  18.680  0.00  0.00    +0.000 N 
ATOM     29  C   UNL     1      -0.662  13.997  19.679  0.00  0.00    +0.000 C 
ATOM     30  O   UNL     1      -1.060  14.328  20.793  0.00  0.00    +0.000 OA
ATOM     31  H   UNL     1      -0.392  14.611  17.722  0.00  0.00    +0.000 HD
BRANCH  28  32
ATOM     32  C   UNL     1      -0.690  16.335  18.928  0.00  0.00    +0.000 C 
BRANCH  32  33
ATOM     33  C   UNL     1       0.501  17.115  19.536  0.00  0.00    +0.000 C 
BRANCH  33  34
ATOM     34  N   UNL     1       1.393  17.795  18.562  0.00  0.00    +0.000 NA
BRANCH  34  36
ATOM     35  C   UNL     1       3.652  16.619  18.478  0.00  0.00    +0.000 C 
ATOM     36  C   UNL     1       2.259  16.807  17.889  0.00  0.00    +0.000 C 
ENDBRANCH  34  36
BRANCH  34  37
ATOM     37  C   UNL     1       0.621  18.631  17.616  0.00  0.00    +0.000 C 
ATOM     38  C   UNL     1       0.851  18.391  16.123  0.00  0.00    +0.000 C 
ENDBRANCH  34  37
ENDBRANCH  33  34
ENDBRANCH  32  33
ENDBRANCH  28  32
ENDBRANCH   1  29
TORSDOF 8
ENDMDL
MODEL 9
REMARK VINA RESULT:      -7.1      2.738      4.356
REMARK  Name = 
REMARK  13 active torsions:
REMARK  status: ('A' for Active; 'I' for Inactive)
REMARK    1  A    between atoms: C_1  and  C_2
REMARK    2  A    between atoms: C_2  and  N_3
REMARK    3  A    between atoms: N_3  and  C_4
REMARK    4  A    between atoms: N_3  and  C_6
REMARK    5  A    between atoms: C_4  and  C_5
REMARK    6  A    between atoms: C_6  and  C_7
REMARK    7  A    between atoms: C_7  and  N_8
REMARK    8  A    between atoms: C_9  and  C_11
REMARK    9  A    between atoms: C_12  and  C_13
REMARK   10  A    between atoms: C_15  and  C_16
REMARK   11  A    between atoms: C_24  and  C_25
REMARK   12  A    between atoms: C_28  and  C_29
REMARK   13  A    between atoms: C_34  and  C_35
REMARK                            x       y       z     vdW  Elec       q    Type
REMARK                         _______ _______ _______ _____ _____    ______ ____
ROOT
ATOM      1  C   UNL     1      -1.088  11.749  19.586  0.00  0.00    +0.000 A 
ATOM      2  C   UNL     1       0.116  12.201  20.122  0.00  0.00    +0.000 A 
ATOM      3  C   UNL     1       0.438  13.282  21.095  0.00  0.00    +0.000 C 
ATOM      4  N   UNL     1       1.115  11.359  19.675  0.00  0.00    +0.000 N 
ATOM      5  C   UNL     1       0.598  10.351  18.899  0.00  0.00    +0.000 A 
ATOM      6  C   UNL     1      -0.766  10.571  18.802  0.00  0.00    +0.000 A 
ATOM      7  C   UNL     1      -1.753   9.718  18.078  0.00  0.00    +0.000 C 
ATOM      8  H   UNL     1       2.083  11.425  19.961  0.00  0.00    +0.000 HD
ENDROOT
BRANCH   5   9
ATOM      9  C   UNL     1       1.472   9.336  18.409  0.00  0.00    +0.000 C 
ATOM     10  C   UNL     1       1.854   8.276  19.147  0.00  0.00    +0.000 C 
ATOM     11  C   UNL     1       1.467   8.020  20.583  0.00  0.00    +0.000 C 
ATOM     12  O   UNL     1       0.877   8.751  21.362  0.00  0.00    +0.000 OA
ATOM     13  N   UNL     1       1.974   6.771  20.883  0.00  0.00    +0.000 N 
ATOM     14  C   UNL     1       2.699   6.250  19.827  0.00  0.00    +0.000 A 
ATOM     15  C   UNL     1       3.385   5.052  19.832  0.00  0.00    +0.000 A 
ATOM     16  C   UNL     1       4.112   4.732  18.685  0.00  0.00    +0.000 A 
ATOM     17  C   UNL     1       4.154   5.589  17.557  0.00  0.00    +0.000 A 
ATOM     18  C   UNL     1       3.404   6.798  17.596  0.00  0.00    +0.000 A 
ATOM     19  C   UNL     1       2.684   7.122  18.732  0.00  0.00    +0.000 A 
ATOM     20  H   UNL     1       1.875   6.355  21.794  0.00  0.00    +0.000 HD
BRANCH  17  21
ATOM     21  C   UNL     1       4.986   5.223  16.388  0.00  0.00    +0.000 A 
ATOM     22  C   UNL     1       5.071   3.922  15.904  0.00  0.00    +0.000 A 
ATOM     23  C   UNL     1       5.880   3.651  14.800  0.00  0.00    +0.000 A 
ATOM     24  C   UNL     1       6.597   4.679  14.197  0.00  0.00    +0.000 A 
ATOM     25  C   UNL     1       7.494   4.427  13.029  0.00  0.00    +0.000 C 
ATOM     26  C   UNL     1       6.454   5.951  14.735  0.00  0.00    +0.000 A 
ATOM     27  N   UNL     1       5.680   6.241  15.807  0.00  0.00    +0.000 NA
ENDBRANCH  17  21
ENDBRANCH   5   9
BRANCH   1  29
ATOM     28  N   UNL     1      -2.733  12.630  21.145  0.00  0.00    +0.000 N 
ATOM     29  C   UNL     1      -2.442  12.272  19.840  0.00  0.00    +0.000 C 
ATOM     30  O   UNL     1      -3.262  12.410  18.935  0.00  0.00    +0.000 OA
ATOM     31  H   UNL     1      -1.970  12.767  21.792  0.00  0.00    +0.000 HD
BRANCH  28  32
ATOM     32  C   UNL     1      -4.027  13.190  21.474  0.00  0.00    +0.000 C 
BRANCH  32  33
ATOM     33  C   UNL     1      -3.985  14.521  22.266  0.00  0.00    +0.000 C 
BRANCH  33  34
ATOM     34  N   UNL     1      -4.721  14.528  23.557  0.00  0.00    +0.000 NA
BRANCH  34  36
ATOM     35  C   UNL     1      -5.470  16.781  24.484  0.00  0.00    +0.000 C 
ATOM     36  C   UNL     1      -5.736  15.601  23.558  0.00  0.00    +0.000 C 
ENDBRANCH  34  36
BRANCH  34  37
ATOM     37  C   UNL     1      -5.285  13.195  23.864  0.00  0.00    +0.000 C 
ATOM     38  C   UNL     1      -4.528  12.332  24.876  0.00  0.00    +0.000 C 
ENDBRANCH  34  37
ENDBRANCH  33  34
ENDBRANCH  32  33
ENDBRANCH  28  32
ENDBRANCH   1  29
TORSDOF 8
ENDMDL
