MODEL 1
REMARK VINA RESULT:      -6.3      0.000      0.000
REMARK  Name = 
REMARK  6 active torsions:
REMARK  status: ('A' for Active; 'I' for Inactive)
REMARK    1  A    between atoms: C_1  and  N_2
REMARK    2  A    between atoms: N_2  and  C_3
REMARK    3  A    between atoms: C_4  and  C_6
REMARK    4  A    between atoms: C_7  and  N_8
REMARK    5  A    between atoms: C_12  and  N_13
REMARK    6  A    between atoms: C_17  and  N_18
REMARK                            x       y       z     vdW  Elec       q    Type
REMARK                         _______ _______ _______ _____ _____    ______ ____
ROOT
ATOM      1  C   UNL     1       3.402   4.498  19.654  0.00  0.00    +0.000 A 
ATOM      2  C   UNL     1       3.776   5.662  18.971  0.00  0.00    +0.000 A 
ATOM      3  C   UNL     1       3.173   6.911  19.220  0.00  0.00    +0.000 A 
ATOM      4  C   UNL     1       2.107   7.000  20.118  0.00  0.00    +0.000 A 
ATOM      5  C   UNL     1       1.647   5.850  20.767  0.00  0.00    +0.000 A 
ATOM      6  C   UNL     1       2.305   4.622  20.531  0.00  0.00    +0.000 A 
ENDROOT
BRANCH   1  10
ATOM      7  C   UNL     1       4.092   0.979  18.322  0.00  0.00    +0.000 C 
ATOM      8  N   UNL     1       3.404   2.252  18.504  0.00  0.00    +0.000 N 
ATOM      9  C   UNL     1       2.290   2.494  17.595  0.00  0.00    +0.000 C 
ATOM     10  C   UNL     1       3.983   3.158  19.393  0.00  0.00    +0.000 C 
ATOM     11  O   UNL     1       5.020   2.917  20.008  0.00  0.00    +0.000 OA
ENDBRANCH   1  10
BRANCH   2  12
ATOM     12  N   UNL     1       4.709   5.637  17.862  0.00  0.00    +0.000 N 
ATOM     13  O   UNL     1       4.249   5.428  16.740  0.00  0.00    +0.000 OA
ATOM     14  O   UNL     1       5.894   5.882  18.131  0.00  0.00    +0.000 OA
ENDBRANCH   2  12
BRANCH   4  15
ATOM     15  N   UNL     1       1.467   8.305  20.362  0.00  0.00    +0.000 N 
ATOM     16  O   UNL     1       1.138   8.567  21.528  0.00  0.00    +0.000 OA
ATOM     17  O   UNL     1       1.314   9.052  19.388  0.00  0.00    +0.000 OA
ENDBRANCH   4  15
BRANCH   6  18
ATOM     18  N   UNL     1       1.808   3.477  21.276  0.00  0.00    +0.000 N 
ATOM     19  O   UNL     1       2.331   3.270  22.377  0.00  0.00    +0.000 OA
ATOM     20  O   UNL     1       0.819   2.894  20.808  0.00  0.00    +0.000 OA
ENDBRANCH   6  18
TORSDOF 4
ENDMDL
MODEL 2
REMARK VINA RESULT:      -6.3      0.065      1.209
REMARK  Name = 
REMARK  6 active torsions:
REMARK  status: ('A' for Active; 'I' for Inactive)
REMARK    1  A    between atoms: C_1  and  N_2
REMARK    2  A    between atoms: N_2  and  C_3
REMARK    3  A    between atoms: C_4  and  C_6
REMARK    4  A    between atoms: C_7  and  N_8
REMARK    5  A    between atoms: C_12  and  N_13
REMARK    6  A    between atoms: C_17  and  N_18
REMARK                            x       y       z     vdW  Elec       q    Type
REMARK                         _______ _______ _______ _____ _____    ______ ____
ROOT
ATOM      1  C   UNL     1       3.379   4.524  19.679  0.00  0.00    +0.000 A 
ATOM      2  C   UNL     1       3.772   5.682  18.996  0.00  0.00    +0.000 A 
ATOM      3  C   UNL     1       3.182   6.939  19.236  0.00  0.00    +0.000 A 
ATOM      4  C   UNL     1       2.109   7.043  20.124  0.00  0.00    +0.000 A 
ATOM      5  C   UNL     1       1.630   5.901  20.771  0.00  0.00    +0.000 A 
ATOM      6  C   UNL     1       2.275   4.665  20.545  0.00  0.00    +0.000 A 
ENDROOT
BRANCH   1  10
ATOM      7  C   UNL     1       4.050   1.001  18.349  0.00  0.00    +0.000 C 
ATOM      8  N   UNL     1       3.377   2.284  18.519  0.00  0.00    +0.000 N 
ATOM      9  C   UNL     1       2.291   2.547  17.582  0.00  0.00    +0.000 C 
ATOM     10  C   UNL     1       3.946   3.178  19.427  0.00  0.00    +0.000 C 
ATOM     11  O   UNL     1       4.963   2.918  20.068  0.00  0.00    +0.000 OA
ENDBRANCH   1  10
BRANCH   2  12
ATOM     12  N   UNL     1       4.715   5.643  17.896  0.00  0.00    +0.000 N 
ATOM     13  O   UNL     1       5.908   5.780  18.168  0.00  0.00    +0.000 OA
ATOM     14  O   UNL     1       4.244   5.422  16.771  0.00  0.00    +0.000 OA
ENDBRANCH   2  12
BRANCH   4  15
ATOM     15  N   UNL     1       1.482   8.357  20.357  0.00  0.00    +0.000 N 
ATOM     16  O   UNL     1       1.244   9.057  19.362  0.00  0.00    +0.000 OA
ATOM     17  O   UNL     1       1.228   8.663  21.529  0.00  0.00    +0.000 OA
ENDBRANCH   4  15
BRANCH   6  18
ATOM     18  N   UNL     1       1.758   3.527  21.289  0.00  0.00    +0.000 N 
ATOM     19  O   UNL     1       0.849   2.886  20.749  0.00  0.00    +0.000 OA
ATOM     20  O   UNL     1       2.360   3.221  22.329  0.00  0.00    +0.000 OA
ENDBRANCH   6  18
TORSDOF 4
ENDMDL
MODEL 3
REMARK VINA RESULT:      -6.2      1.105      1.278
REMARK  Name = 
REMARK  6 active torsions:
REMARK  status: ('A' for Active; 'I' for Inactive)
REMARK    1  A    between atoms: C_1  and  N_2
REMARK    2  A    between atoms: N_2  and  C_3
REMARK    3  A    between atoms: C_4  and  C_6
REMARK    4  A    between atoms: C_7  and  N_8
REMARK    5  A    between atoms: C_12  and  N_13
REMARK    6  A    between atoms: C_17  and  N_18
REMARK                            x       y       z     vdW  Elec       q    Type
REMARK                         _______ _______ _______ _____ _____    ______ ____
ROOT
ATOM      1  C   UNL     1       3.629   4.838  18.908  0.00  0.00    +0.000 A 
ATOM      2  C   UNL     1       4.127   5.745  17.963  0.00  0.00    +0.000 A 
ATOM      3  C   UNL     1       3.614   7.050  17.825  0.00  0.00    +0.000 A 
ATOM      4  C   UNL     1       2.515   7.448  18.589  0.00  0.00    +0.000 A 
ATOM      5  C   UNL     1       1.935   6.551  19.491  0.00  0.00    +0.000 A 
ATOM      6  C   UNL     1       2.504   5.267  19.641  0.00  0.00    +0.000 A 
ENDROOT
BRANCH   1  10
ATOM      7  C   UNL     1       4.062   1.044  18.678  0.00  0.00    +0.000 C 
ATOM      8  N   UNL     1       3.465   2.359  18.470  0.00  0.00    +0.000 N 
ATOM      9  C   UNL     1       2.361   2.399  17.518  0.00  0.00    +0.000 C 
ATOM     10  C   UNL     1       4.114   3.444  19.058  0.00  0.00    +0.000 C 
ATOM     11  O   UNL     1       5.138   3.324  19.728  0.00  0.00    +0.000 OA
ENDBRANCH   1  10
BRANCH   2  12
ATOM     12  N   UNL     1       5.109   5.358  16.970  0.00  0.00    +0.000 N 
ATOM     13  O   UNL     1       4.700   4.774  15.966  0.00  0.00    +0.000 OA
ATOM     14  O   UNL     1       6.281   5.696  17.190  0.00  0.00    +0.000 OA
ENDBRANCH   2  12
BRANCH   4  15
ATOM     15  N   UNL     1       1.970   8.808  18.427  0.00  0.00    +0.000 N 
ATOM     16  O   UNL     1       1.352   9.289  19.388  0.00  0.00    +0.000 OA
ATOM     17  O   UNL     1       2.177   9.376  17.348  0.00  0.00    +0.000 OA
ENDBRANCH   4  15
BRANCH   6  18
ATOM     18  N   UNL     1       1.881   4.403  20.631  0.00  0.00    +0.000 N 
ATOM     19  O   UNL     1       2.440   4.339  21.732  0.00  0.00    +0.000 OA
ATOM     20  O   UNL     1       0.780   3.917  20.333  0.00  0.00    +0.000 OA
ENDBRANCH   6  18
TORSDOF 4
ENDMDL
MODEL 4
REMARK VINA RESULT:      -6.1      0.143      3.510
REMARK  Name = 
REMARK  6 active torsions:
REMARK  status: ('A' for Active; 'I' for Inactive)
REMARK    1  A    between atoms: C_1  and  N_2
REMARK    2  A    between atoms: N_2  and  C_3
REMARK    3  A    between atoms: C_4  and  C_6
REMARK    4  A    between atoms: C_7  and  N_8
REMARK    5  A    between atoms: C_12  and  N_13
REMARK    6  A    between atoms: C_17  and  N_18
REMARK                            x       y       z     vdW  Elec       q    Type
REMARK                         _______ _______ _______ _____ _____    ______ ____
ROOT
ATOM      1  C   UNL     1       3.251   4.433  19.546  0.00  0.00    +0.000 A 
ATOM      2  C   UNL     1       2.230   4.604  20.490  0.00  0.00    +0.000 A 
ATOM      3  C   UNL     1       1.631   5.855  20.738  0.00  0.00    +0.000 A 
ATOM      4  C   UNL     1       2.113   6.995  20.091  0.00  0.00    +0.000 A 
ATOM      5  C   UNL     1       3.184   6.887  19.198  0.00  0.00    +0.000 A 
ATOM      6  C   UNL     1       3.729   5.611  18.934  0.00  0.00    +0.000 A 
ENDROOT
BRANCH   1  10
ATOM      7  C   UNL     1       4.179   0.953  18.259  0.00  0.00    +0.000 C 
ATOM      8  N   UNL     1       3.392   2.166  18.448  0.00  0.00    +0.000 N 
ATOM      9  C   UNL     1       2.217   2.287  17.593  0.00  0.00    +0.000 C 
ATOM     10  C   UNL     1       3.934   3.143  19.284  0.00  0.00    +0.000 C 
ATOM     11  O   UNL     1       5.017   3.009  19.850  0.00  0.00    +0.000 OA
ENDBRANCH   1  10
BRANCH   2  12
ATOM     12  N   UNL     1       1.815   3.534  21.375  0.00  0.00    +0.000 N 
ATOM     13  O   UNL     1       2.426   3.407  22.436  0.00  0.00    +0.000 OA
ATOM     14  O   UNL     1       0.838   2.864  21.011  0.00  0.00    +0.000 OA
ENDBRANCH   2  12
BRANCH   4  15
ATOM     15  N   UNL     1       1.496   8.305  20.368  0.00  0.00    +0.000 N 
ATOM     16  O   UNL     1       1.288   9.050  19.399  0.00  0.00    +0.000 OA
ATOM     17  O   UNL     1       1.220   8.564  21.546  0.00  0.00    +0.000 OA
ENDBRANCH   4  15
BRANCH   6  18
ATOM     18  N   UNL     1       4.805   5.564  17.959  0.00  0.00    +0.000 N 
ATOM     19  O   UNL     1       4.474   5.363  16.785  0.00  0.00    +0.000 OA
ATOM     20  O   UNL     1       5.939   5.864  18.364  0.00  0.00    +0.000 OA
ENDBRANCH   6  18
TORSDOF 4
ENDMDL
MODEL 5
REMARK VINA RESULT:      -6.0      0.157      3.281
REMARK  Name = 
REMARK  6 active torsions:
REMARK  status: ('A' for Active; 'I' for Inactive)
REMARK    1  A    between atoms: C_1  and  N_2
REMARK    2  A    between atoms: N_2  and  C_3
REMARK    3  A    between atoms: C_4  and  C_6
REMARK    4  A    between atoms: C_7  and  N_8
REMARK    5  A    between atoms: C_12  and  N_13
REMARK    6  A    between atoms: C_17  and  N_18
REMARK                            x       y       z     vdW  Elec       q    Type
REMARK                         _______ _______ _______ _____ _____    ______ ____
ROOT
ATOM      1  C   UNL     1       3.224   4.438  19.551  0.00  0.00    +0.000 A 
ATOM      2  C   UNL     1       2.206   4.604  20.498  0.00  0.00    +0.000 A 
ATOM      3  C   UNL     1       1.605   5.853  20.751  0.00  0.00    +0.000 A 
ATOM      4  C   UNL     1       2.082   6.996  20.105  0.00  0.00    +0.000 A 
ATOM      5  C   UNL     1       3.150   6.892  19.208  0.00  0.00    +0.000 A 
ATOM      6  C   UNL     1       3.697   5.618  18.940  0.00  0.00    +0.000 A 
ENDROOT
BRANCH   1  10
ATOM      7  C   UNL     1       4.160   0.966  18.246  0.00  0.00    +0.000 C 
ATOM      8  N   UNL     1       3.372   2.178  18.439  0.00  0.00    +0.000 N 
ATOM      9  C   UNL     1       2.201   2.303  17.580  0.00  0.00    +0.000 C 
ATOM     10  C   UNL     1       3.909   3.149  19.284  0.00  0.00    +0.000 C 
ATOM     11  O   UNL     1       4.990   3.012  19.854  0.00  0.00    +0.000 OA
ENDBRANCH   1  10
BRANCH   2  12
ATOM     12  N   UNL     1       1.796   3.532  21.383  0.00  0.00    +0.000 N 
ATOM     13  O   UNL     1       0.868   2.814  21.010  0.00  0.00    +0.000 OA
ATOM     14  O   UNL     1       2.453   3.393  22.424  0.00  0.00    +0.000 OA
ENDBRANCH   2  12
BRANCH   4  15
ATOM     15  N   UNL     1       1.463   8.304  20.386  0.00  0.00    +0.000 N 
ATOM     16  O   UNL     1       1.139   8.537  21.560  0.00  0.00    +0.000 OA
ATOM     17  O   UNL     1       1.321   9.081  19.434  0.00  0.00    +0.000 OA
ENDBRANCH   4  15
BRANCH   6  18
ATOM     18  N   UNL     1       4.770   5.575  17.960  0.00  0.00    +0.000 N 
ATOM     19  O   UNL     1       5.910   5.799  18.384  0.00  0.00    +0.000 OA
ATOM     20  O   UNL     1       4.470   5.188  16.821  0.00  0.00    +0.000 OA
ENDBRANCH   6  18
TORSDOF 4
ENDMDL
MODEL 6
REMARK VINA RESULT:      -6.0      2.240      4.476
REMARK  Name = 
REMARK  6 active torsions:
REMARK  status: ('A' for Active; 'I' for Inactive)
REMARK    1  A    between atoms: C_1  and  N_2
REMARK    2  A    between atoms: N_2  and  C_3
REMARK    3  A    between atoms: C_4  and  C_6
REMARK    4  A    between atoms: C_7  and  N_8
REMARK    5  A    between atoms: C_12  and  N_13
REMARK    6  A    between atoms: C_17  and  N_18
REMARK                            x       y       z     vdW  Elec       q    Type
REMARK                         _______ _______ _______ _____ _____    ______ ____
ROOT
ATOM      1  C   UNL     1       3.363   4.897  18.337  0.00  0.00    +0.000 A 
ATOM      2  C   UNL     1       3.571   6.270  18.151  0.00  0.00    +0.000 A 
ATOM      3  C   UNL     1       4.836   6.808  17.842  0.00  0.00    +0.000 A 
ATOM      4  C   UNL     1       5.953   5.970  17.797  0.00  0.00    +0.000 A 
ATOM      5  C   UNL     1       5.808   4.603  18.053  0.00  0.00    +0.000 A 
ATOM      6  C   UNL     1       4.518   4.089  18.311  0.00  0.00    +0.000 A 
ENDROOT
BRANCH   1  10
ATOM      7  C   UNL     1       0.380   3.448  20.244  0.00  0.00    +0.000 C 
ATOM      8  N   UNL     1       1.705   4.015  20.023  0.00  0.00    +0.000 N 
ATOM      9  C   UNL     1       2.433   4.388  21.230  0.00  0.00    +0.000 C 
ATOM     10  C   UNL     1       2.056   4.298  18.702  0.00  0.00    +0.000 C 
ATOM     11  O   UNL     1       1.304   4.083  17.753  0.00  0.00    +0.000 OA
ENDBRANCH   1  10
BRANCH   2  12
ATOM     12  N   UNL     1       2.529   7.247  18.400  0.00  0.00    +0.000 N 
ATOM     13  O   UNL     1       2.275   7.517  19.573  0.00  0.00    +0.000 OA
ATOM     14  O   UNL     1       2.014   7.771  17.402  0.00  0.00    +0.000 OA
ENDBRANCH   2  12
BRANCH   4  15
ATOM     15  N   UNL     1       7.278   6.540  17.493  0.00  0.00    +0.000 N 
ATOM     16  O   UNL     1       7.632   6.550  16.304  0.00  0.00    +0.000 OA
ATOM     17  O   UNL     1       7.939   6.977  18.442  0.00  0.00    +0.000 OA
ENDBRANCH   4  15
BRANCH   6  18
ATOM     18  N   UNL     1       4.431   2.653  18.519  0.00  0.00    +0.000 N 
ATOM     19  O   UNL     1       4.769   2.238  19.633  0.00  0.00    +0.000 OA
ATOM     20  O   UNL     1       3.902   1.990  17.614  0.00  0.00    +0.000 OA
ENDBRANCH   6  18
TORSDOF 4
ENDMDL
MODEL 7
REMARK VINA RESULT:      -6.0      2.950      5.309
REMARK  Name = 
REMARK  6 active torsions:
REMARK  status: ('A' for Active; 'I' for Inactive)
REMARK    1  A    between atoms: C_1  and  N_2
REMARK    2  A    between atoms: N_2  and  C_3
REMARK    3  A    between atoms: C_4  and  C_6
REMARK    4  A    between atoms: C_7  and  N_8
REMARK    5  A    between atoms: C_12  and  N_13
REMARK    6  A    between atoms: C_17  and  N_18
REMARK                            x       y       z     vdW  Elec       q    Type
REMARK                         _______ _______ _______ _____ _____    ______ ____
ROOT
ATOM      1  C   UNL     1       4.973   4.138  18.108  0.00  0.00    +0.000 A 
ATOM      2  C   UNL     1       6.226   4.740  17.934  0.00  0.00    +0.000 A 
ATOM      3  C   UNL     1       6.811   4.914  16.664  0.00  0.00    +0.000 A 
ATOM      4  C   UNL     1       6.173   4.403  15.531  0.00  0.00    +0.000 A 
ATOM      5  C   UNL     1       4.957   3.725  15.664  0.00  0.00    +0.000 A 
ATOM      6  C   UNL     1       4.375   3.611  16.945  0.00  0.00    +0.000 A 
ENDROOT
BRANCH   1  10
ATOM      7  C   UNL     1       2.799   4.374  21.247  0.00  0.00    +0.000 C 
ATOM      8  N   UNL     1       3.351   4.737  19.947  0.00  0.00    +0.000 N 
ATOM      9  C   UNL     1       2.670   5.828  19.262  0.00  0.00    +0.000 C 
ATOM     10  C   UNL     1       4.342   3.901  19.430  0.00  0.00    +0.000 C 
ATOM     11  O   UNL     1       4.750   2.905  20.024  0.00  0.00    +0.000 OA
ENDBRANCH   1  10
BRANCH   2  12
ATOM     12  N   UNL     1       7.070   5.098  19.056  0.00  0.00    +0.000 N 
ATOM     13  O   UNL     1       8.246   4.738  19.018  0.00  0.00    +0.000 OA
ATOM     14  O   UNL     1       6.547   5.788  19.943  0.00  0.00    +0.000 OA
ENDBRANCH   2  12
BRANCH   4  15
ATOM     15  N   UNL     1       6.798   4.571  14.206  0.00  0.00    +0.000 N 
ATOM     16  O   UNL     1       6.381   3.850  13.287  0.00  0.00    +0.000 OA
ATOM     17  O   UNL     1       7.685   5.426  14.102  0.00  0.00    +0.000 OA
ENDBRANCH   4  15
BRANCH   6  18
ATOM     18  N   UNL     1       3.087   2.940  17.005  0.00  0.00    +0.000 N 
ATOM     19  O   UNL     1       3.091   1.782  17.438  0.00  0.00    +0.000 OA
ATOM     20  O   UNL     1       2.087   3.627  16.747  0.00  0.00    +0.000 OA
ENDBRANCH   6  18
TORSDOF 4
ENDMDL
MODEL 8
REMARK VINA RESULT:      -6.0      1.133      3.616
REMARK  Name = 
REMARK  6 active torsions:
REMARK  status: ('A' for Active; 'I' for Inactive)
REMARK    1  A    between atoms: C_1  and  N_2
REMARK    2  A    between atoms: N_2  and  C_3
REMARK    3  A    between atoms: C_4  and  C_6
REMARK    4  A    between atoms: C_7  and  N_8
REMARK    5  A    between atoms: C_12  and  N_13
REMARK    6  A    between atoms: C_17  and  N_18
REMARK                            x       y       z     vdW  Elec       q    Type
REMARK                         _______ _______ _______ _____ _____    ______ ____
ROOT
ATOM      1  C   UNL     1       3.465   4.826  18.796  0.00  0.00    +0.000 A 
ATOM      2  C   UNL     1       2.401   5.303  19.573  0.00  0.00    +0.000 A 
ATOM      3  C   UNL     1       1.886   6.607  19.429  0.00  0.00    +0.000 A 
ATOM      4  C   UNL     1       2.495   7.500  18.545  0.00  0.00    +0.000 A 
ATOM      5  C   UNL     1       3.610   7.094  17.804  0.00  0.00    +0.000 A 
ATOM      6  C   UNL     1       4.070   5.765  17.935  0.00  0.00    +0.000 A 
ENDROOT
BRANCH   1  10
ATOM      7  C   UNL     1       4.159   1.068  18.627  0.00  0.00    +0.000 C 
ATOM      8  N   UNL     1       3.453   2.329  18.431  0.00  0.00    +0.000 N 
ATOM      9  C   UNL     1       2.284   2.261  17.564  0.00  0.00    +0.000 C 
ATOM     10  C   UNL     1       4.061   3.476  18.944  0.00  0.00    +0.000 C 
ATOM     11  O   UNL     1       5.137   3.450  19.539  0.00  0.00    +0.000 OA
ENDBRANCH   1  10
BRANCH   2  12
ATOM     12  N   UNL     1       1.849   4.539  20.673  0.00  0.00    +0.000 N 
ATOM     13  O   UNL     1       0.788   3.946  20.474  0.00  0.00    +0.000 OA
ATOM     14  O   UNL     1       2.521   4.503  21.714  0.00  0.00    +0.000 OA
ENDBRANCH   2  12
BRANCH   4  15
ATOM     15  N   UNL     1       1.965   8.869  18.412  0.00  0.00    +0.000 N 
ATOM     16  O   UNL     1       2.216   9.475  17.360  0.00  0.00    +0.000 OA
ATOM     17  O   UNL     1       1.298   9.313  19.355  0.00  0.00    +0.000 OA
ENDBRANCH   4  15
BRANCH   6  18
ATOM     18  N   UNL     1       5.201   5.394  17.099  0.00  0.00    +0.000 N 
ATOM     19  O   UNL     1       4.933   4.828  16.033  0.00  0.00    +0.000 OA
ATOM     20  O   UNL     1       6.317   5.797  17.461  0.00  0.00    +0.000 OA
ENDBRANCH   6  18
TORSDOF 4
ENDMDL
MODEL 9
REMARK VINA RESULT:      -5.9      1.146      3.547
REMARK  Name = 
REMARK  6 active torsions:
REMARK  status: ('A' for Active; 'I' for Inactive)
REMARK    1  A    between atoms: C_1  and  N_2
REMARK    2  A    between atoms: N_2  and  C_3
REMARK    3  A    between atoms: C_4  and  C_6
REMARK    4  A    between atoms: C_7  and  N_8
REMARK    5  A    between atoms: C_12  and  N_13
REMARK    6  A    between atoms: C_17  and  N_18
REMARK                            x       y       z     vdW  Elec       q    Type
REMARK                         _______ _______ _______ _____ _____    ______ ____
ROOT
ATOM      1  C   UNL     1       3.453   4.850  18.773  0.00  0.00    +0.000 A 
ATOM      2  C   UNL     1       2.399   5.326  19.563  0.00  0.00    +0.000 A 
ATOM      3  C   UNL     1       1.882   6.630  19.428  0.00  0.00    +0.000 A 
ATOM      4  C   UNL     1       2.481   7.525  18.539  0.00  0.00    +0.000 A 
ATOM      5  C   UNL     1       3.587   7.120  17.785  0.00  0.00    +0.000 A 
ATOM      6  C   UNL     1       4.049   5.790  17.908  0.00  0.00    +0.000 A 
ENDROOT
BRANCH   1  10
ATOM      7  C   UNL     1       4.148   1.093  18.584  0.00  0.00    +0.000 C 
ATOM      8  N   UNL     1       3.440   2.355  18.398  0.00  0.00    +0.000 N 
ATOM      9  C   UNL     1       2.265   2.290  17.538  0.00  0.00    +0.000 C 
ATOM     10  C   UNL     1       4.051   3.499  18.912  0.00  0.00    +0.000 C 
ATOM     11  O   UNL     1       5.131   3.471  19.499  0.00  0.00    +0.000 OA
ENDBRANCH   1  10
BRANCH   2  12
ATOM     12  N   UNL     1       1.858   4.559  20.667  0.00  0.00    +0.000 N 
ATOM     13  O   UNL     1       2.497   4.553  21.719  0.00  0.00    +0.000 OA
ATOM     14  O   UNL     1       0.763   4.010  20.476  0.00  0.00    +0.000 OA
ENDBRANCH   2  12
BRANCH   4  15
ATOM     15  N   UNL     1       1.950   8.894  18.415  0.00  0.00    +0.000 N 
ATOM     16  O   UNL     1       1.304   9.341  19.375  0.00  0.00    +0.000 OA
ATOM     17  O   UNL     1       2.193   9.504  17.367  0.00  0.00    +0.000 OA
ENDBRANCH   4  15
BRANCH   6  18
ATOM     18  N   UNL     1       5.170   5.422  17.058  0.00  0.00    +0.000 N 
ATOM     19  O   UNL     1       6.293   5.749  17.459  0.00  0.00    +0.000 OA
ATOM     20  O   UNL     1       4.916   4.698  16.083  0.00  0.00    +0.000 OA
ENDBRANCH   6  18
TORSDOF 4
ENDMDL
