MODEL 1
REMARK VINA RESULT:      -6.4      0.000      0.000
REMARK  Name = 
REMARK  4 active torsions:
REMARK  status: ('A' for Active; 'I' for Inactive)
REMARK    1  A    between atoms: N_5  and  C_6
REMARK    2  A    between atoms: C_6  and  C_7
REMARK    3  A    between atoms: C_7  and  C_8
REMARK    4  A    between atoms: C_8  and  C_9
REMARK                            x       y       z     vdW  Elec       q    Type
REMARK                         _______ _______ _______ _____ _____    ______ ____
ROOT
ATOM      1  O   UNL     1       2.980   8.640  17.390  0.00  0.00    +0.000 OA
ATOM      2  C   UNL     1       3.094   7.603  18.004  0.00  0.00    +0.000 C 
ATOM      3  C   UNL     1       2.385   7.202  19.306  0.00  0.00    +0.000 C 
ATOM      4  O   UNL     1       1.598   7.911  19.884  0.00  0.00    +0.000 OA
ATOM      5  N   UNL     1       2.862   5.919  19.612  0.00  0.00    +0.000 N 
ATOM      6  C   UNL     1       3.792   5.480  18.624  0.00  0.00    +0.000 A 
ATOM      7  C   UNL     1       4.527   4.312  18.462  0.00  0.00    +0.000 A 
ATOM      8 BR   UNL     1       4.505   2.821  19.628  0.00  0.00    +0.000 Br
ATOM      9  C   UNL     1       5.382   4.193  17.341  0.00  0.00    +0.000 A 
ATOM     10  C   UNL     1       5.498   5.225  16.399  0.00  0.00    +0.000 A 
ATOM     11 BR   UNL     1       6.655   5.025  14.917  0.00  0.00    +0.000 Br
ATOM     12  C   UNL     1       4.772   6.394  16.544  0.00  0.00    +0.000 A 
ATOM     13  C   UNL     1       3.946   6.478  17.649  0.00  0.00    +0.000 A 
ENDROOT
BRANCH   5  14
ATOM     14  C   UNL     1       2.426   5.173  20.783  0.00  0.00    +0.000 C 
BRANCH  14  15
ATOM     15  C   UNL     1       1.084   4.446  20.636  0.00  0.00    +0.000 C 
BRANCH  15  16
ATOM     16  C   UNL     1       1.192   2.942  20.381  0.00  0.00    +0.000 C 
BRANCH  16  17
ATOM     17  C   UNL     1       0.591   2.579  19.023  0.00  0.00    +0.000 C 
ATOM     18 CL   UNL     1       1.246   3.617  17.725  0.00  0.00    +0.000 Cl
ENDBRANCH  16  17
ENDBRANCH  15  16
ENDBRANCH  14  15
ENDBRANCH   5  14
TORSDOF 4
ENDMDL
MODEL 2
REMARK VINA RESULT:      -6.2      2.856      3.872
REMARK  Name = 
REMARK  4 active torsions:
REMARK  status: ('A' for Active; 'I' for Inactive)
REMARK    1  A    between atoms: N_5  and  C_6
REMARK    2  A    between atoms: C_6  and  C_7
REMARK    3  A    between atoms: C_7  and  C_8
REMARK    4  A    between atoms: C_8  and  C_9
REMARK                            x       y       z     vdW  Elec       q    Type
REMARK                         _______ _______ _______ _____ _____    ______ ____
ROOT
ATOM      1  O   UNL     1       5.341   6.778  15.650  0.00  0.00    +0.000 OA
ATOM      2  C   UNL     1       4.914   6.229  16.641  0.00  0.00    +0.000 C 
ATOM      3  C   UNL     1       5.320   4.856  17.199  0.00  0.00    +0.000 C 
ATOM      4  O   UNL     1       6.148   4.145  16.687  0.00  0.00    +0.000 OA
ATOM      5  N   UNL     1       4.534   4.672  18.346  0.00  0.00    +0.000 N 
ATOM      6  C   UNL     1       3.687   5.799  18.561  0.00  0.00    +0.000 A 
ATOM      7  C   UNL     1       2.746   6.110  19.535  0.00  0.00    +0.000 A 
ATOM      8 BR   UNL     1       2.270   5.014  21.003  0.00  0.00    +0.000 Br
ATOM      9  C   UNL     1       2.060   7.345  19.453  0.00  0.00    +0.000 A 
ATOM     10  C   UNL     1       2.312   8.252  18.414  0.00  0.00    +0.000 A 
ATOM     11 BR   UNL     1       1.371   9.890  18.341  0.00  0.00    +0.000 Br
ATOM     12  C   UNL     1       3.246   7.959  17.436  0.00  0.00    +0.000 A 
ATOM     13  C   UNL     1       3.899   6.745  17.547  0.00  0.00    +0.000 A 
ENDROOT
BRANCH   5  14
ATOM     14  C   UNL     1       4.619   3.482  19.180  0.00  0.00    +0.000 C 
BRANCH  14  15
ATOM     15  C   UNL     1       3.754   2.300  18.726  0.00  0.00    +0.000 C 
BRANCH  15  16
ATOM     16  C   UNL     1       2.655   2.655  17.723  0.00  0.00    +0.000 C 
BRANCH  16  17
ATOM     17  C   UNL     1       1.277   2.577  18.382  0.00  0.00    +0.000 C 
ATOM     18 CL   UNL     1       1.389   1.950  20.051  0.00  0.00    +0.000 Cl
ENDBRANCH  16  17
ENDBRANCH  15  16
ENDBRANCH  14  15
ENDBRANCH   5  14
TORSDOF 4
ENDMDL
MODEL 3
REMARK VINA RESULT:      -5.8      3.458      5.552
REMARK  Name = 
REMARK  4 active torsions:
REMARK  status: ('A' for Active; 'I' for Inactive)
REMARK    1  A    between atoms: N_5  and  C_6
REMARK    2  A    between atoms: C_6  and  C_7
REMARK    3  A    between atoms: C_7  and  C_8
REMARK    4  A    between atoms: C_8  and  C_9
REMARK                            x       y       z     vdW  Elec       q    Type
REMARK                         _______ _______ _______ _____ _____    ______ ____
ROOT
ATOM      1  O   UNL     1       1.896   2.621  20.712  0.00  0.00    +0.000 OA
ATOM      2  C   UNL     1       2.407   3.286  19.839  0.00  0.00    +0.000 C 
ATOM      3  C   UNL     1       3.226   2.787  18.638  0.00  0.00    +0.000 C 
ATOM      4  O   UNL     1       3.457   1.623  18.425  0.00  0.00    +0.000 OA
ATOM      5  N   UNL     1       3.600   3.941  17.935  0.00  0.00    +0.000 N 
ATOM      6  C   UNL     1       3.087   5.108  18.575  0.00  0.00    +0.000 A 
ATOM      7  C   UNL     1       3.167   6.464  18.285  0.00  0.00    +0.000 A 
ATOM      8 BR   UNL     1       4.072   7.229  16.809  0.00  0.00    +0.000 Br
ATOM      9  C   UNL     1       2.530   7.386  19.149  0.00  0.00    +0.000 A 
ATOM     10  C   UNL     1       1.827   6.957  20.284  0.00  0.00    +0.000 A 
ATOM     11 BR   UNL     1       0.993   8.223  21.414  0.00  0.00    +0.000 Br
ATOM     12  C   UNL     1       1.737   5.610  20.587  0.00  0.00    +0.000 A 
ATOM     13  C   UNL     1       2.369   4.736  19.722  0.00  0.00    +0.000 A 
ENDROOT
BRANCH   5  14
ATOM     14  C   UNL     1       4.392   3.900  16.714  0.00  0.00    +0.000 C 
BRANCH  14  15
ATOM     15  C   UNL     1       5.896   4.136  16.899  0.00  0.00    +0.000 C 
BRANCH  15  16
ATOM     16  C   UNL     1       6.309   4.574  18.306  0.00  0.00    +0.000 C 
BRANCH  16  17
ATOM     17  C   UNL     1       7.710   5.189  18.290  0.00  0.00    +0.000 C 
ATOM     18 CL   UNL     1       7.642   6.950  18.001  0.00  0.00    +0.000 Cl
ENDBRANCH  16  17
ENDBRANCH  15  16
ENDBRANCH  14  15
ENDBRANCH   5  14
TORSDOF 4
ENDMDL
MODEL 4
REMARK VINA RESULT:      -5.8      3.376      5.523
REMARK  Name = 
REMARK  4 active torsions:
REMARK  status: ('A' for Active; 'I' for Inactive)
REMARK    1  A    between atoms: N_5  and  C_6
REMARK    2  A    between atoms: C_6  and  C_7
REMARK    3  A    between atoms: C_7  and  C_8
REMARK    4  A    between atoms: C_8  and  C_9
REMARK                            x       y       z     vdW  Elec       q    Type
REMARK                         _______ _______ _______ _____ _____    ______ ____
ROOT
ATOM      1  O   UNL     1       1.256   3.058  21.218  0.00  0.00    +0.000 OA
ATOM      2  C   UNL     1       1.890   3.625  20.355  0.00  0.00    +0.000 C 
ATOM      3  C   UNL     1       2.777   2.989  19.274  0.00  0.00    +0.000 C 
ATOM      4  O   UNL     1       2.944   1.800  19.162  0.00  0.00    +0.000 OA
ATOM      5  N   UNL     1       3.293   4.063  18.535  0.00  0.00    +0.000 N 
ATOM      6  C   UNL     1       2.807   5.304  19.045  0.00  0.00    +0.000 A 
ATOM      7  C   UNL     1       3.007   6.628  18.675  0.00  0.00    +0.000 A 
ATOM      8 BR   UNL     1       4.094   7.225  17.245  0.00  0.00    +0.000 Br
ATOM      9  C   UNL     1       2.361   7.648  19.412  0.00  0.00    +0.000 A 
ATOM     10  C   UNL     1       1.530   7.348  20.500  0.00  0.00    +0.000 A 
ATOM     11 BR   UNL     1       0.687   8.742  21.460  0.00  0.00    +0.000 Br
ATOM     12  C   UNL     1       1.318   6.034  20.882  0.00  0.00    +0.000 A 
ATOM     13  C   UNL     1       1.963   5.062  20.140  0.00  0.00    +0.000 A 
ENDROOT
BRANCH   5  14
ATOM     14  C   UNL     1       4.188   3.885  17.401  0.00  0.00    +0.000 C 
BRANCH  14  15
ATOM     15  C   UNL     1       5.678   4.083  17.703  0.00  0.00    +0.000 C 
BRANCH  15  16
ATOM     16  C   UNL     1       6.539   4.431  16.486  0.00  0.00    +0.000 C 
BRANCH  16  17
ATOM     17  C   UNL     1       5.943   3.828  15.213  0.00  0.00    +0.000 C 
ATOM     18 CL   UNL     1       6.712   4.508  13.752  0.00  0.00    +0.000 Cl
ENDBRANCH  16  17
ENDBRANCH  15  16
ENDBRANCH  14  15
ENDBRANCH   5  14
TORSDOF 4
ENDMDL
MODEL 5
REMARK VINA RESULT:      -5.8      3.466      5.575
REMARK  Name = 
REMARK  4 active torsions:
REMARK  status: ('A' for Active; 'I' for Inactive)
REMARK    1  A    between atoms: N_5  and  C_6
REMARK    2  A    between atoms: C_6  and  C_7
REMARK    3  A    between atoms: C_7  and  C_8
REMARK    4  A    between atoms: C_8  and  C_9
REMARK                            x       y       z     vdW  Elec       q    Type
REMARK                         _______ _______ _______ _____ _____    ______ ____
ROOT
ATOM      1  O   UNL     1       2.321   2.820  21.579  0.00  0.00    +0.000 OA
ATOM      2  C   UNL     1       2.888   3.430  20.700  0.00  0.00    +0.000 C 
ATOM      3  C   UNL     1       4.004   2.920  19.776  0.00  0.00    +0.000 C 
ATOM      4  O   UNL     1       4.456   1.803  19.827  0.00  0.00    +0.000 OA
ATOM      5  N   UNL     1       4.326   4.004  18.946  0.00  0.00    +0.000 N 
ATOM      6  C   UNL     1       3.514   5.134  19.259  0.00  0.00    +0.000 A 
ATOM      7  C   UNL     1       3.435   6.421  18.739  0.00  0.00    +0.000 A 
ATOM      8 BR   UNL     1       4.491   7.111  17.328  0.00  0.00    +0.000 Br
ATOM      9  C   UNL     1       2.496   7.324  19.292  0.00  0.00    +0.000 A 
ATOM     10  C   UNL     1       1.653   6.945  20.346  0.00  0.00    +0.000 A 
ATOM     11 BR   UNL     1       0.415   8.185  21.057  0.00  0.00    +0.000 Br
ATOM     12  C   UNL     1       1.717   5.668  20.874  0.00  0.00    +0.000 A 
ATOM     13  C   UNL     1       2.644   4.810  20.311  0.00  0.00    +0.000 A 
ENDROOT
BRANCH   5  14
ATOM     14  C   UNL     1       5.348   3.931  17.912  0.00  0.00    +0.000 C 
BRANCH  14  15
ATOM     15  C   UNL     1       4.825   3.701  16.489  0.00  0.00    +0.000 C 
BRANCH  15  16
ATOM     16  C   UNL     1       5.908   3.633  15.411  0.00  0.00    +0.000 C 
BRANCH  16  17
ATOM     17  C   UNL     1       5.444   4.334  14.133  0.00  0.00    +0.000 C 
ATOM     18 CL   UNL     1       6.197   3.611  12.684  0.00  0.00    +0.000 Cl
ENDBRANCH  16  17
ENDBRANCH  15  16
ENDBRANCH  14  15
ENDBRANCH   5  14
TORSDOF 4
ENDMDL
MODEL 6
REMARK VINA RESULT:      -5.7      3.704      5.747
REMARK  Name = 
REMARK  4 active torsions:
REMARK  status: ('A' for Active; 'I' for Inactive)
REMARK    1  A    between atoms: N_5  and  C_6
REMARK    2  A    between atoms: C_6  and  C_7
REMARK    3  A    between atoms: C_7  and  C_8
REMARK    4  A    between atoms: C_8  and  C_9
REMARK                            x       y       z     vdW  Elec       q    Type
REMARK                         _______ _______ _______ _____ _____    ______ ____
ROOT
ATOM      1  O   UNL     1       1.736   2.323  19.878  0.00  0.00    +0.000 OA
ATOM      2  C   UNL     1       2.524   2.986  19.241  0.00  0.00    +0.000 C 
ATOM      3  C   UNL     1       3.588   2.484  18.254  0.00  0.00    +0.000 C 
ATOM      4  O   UNL     1       3.760   1.319  17.993  0.00  0.00    +0.000 OA
ATOM      5  N   UNL     1       4.245   3.635  17.794  0.00  0.00    +0.000 N 
ATOM      6  C   UNL     1       3.687   4.804  18.392  0.00  0.00    +0.000 A 
ATOM      7  C   UNL     1       3.967   6.159  18.271  0.00  0.00    +0.000 A 
ATOM      8 BR   UNL     1       5.306   6.919  17.169  0.00  0.00    +0.000 Br
ATOM      9  C   UNL     1       3.207   7.084  19.027  0.00  0.00    +0.000 A 
ATOM     10  C   UNL     1       2.186   6.658  19.888  0.00  0.00    +0.000 A 
ATOM     11 BR   UNL     1       1.197   7.926  20.881  0.00  0.00    +0.000 Br
ATOM     12  C   UNL     1       1.893   5.311  20.019  0.00  0.00    +0.000 A 
ATOM     13  C   UNL     1       2.653   4.435  19.266  0.00  0.00    +0.000 A 
ENDROOT
BRANCH   5  14
ATOM     14  C   UNL     1       5.331   3.592  16.826  0.00  0.00    +0.000 C 
BRANCH  14  15
ATOM     15  C   UNL     1       4.946   3.971  15.391  0.00  0.00    +0.000 C 
BRANCH  15  16
ATOM     16  C   UNL     1       6.128   4.293  14.474  0.00  0.00    +0.000 C 
BRANCH  16  17
ATOM     17  C   UNL     1       5.955   3.617  13.113  0.00  0.00    +0.000 C 
ATOM     18 CL   UNL     1       7.176   4.193  11.943  0.00  0.00    +0.000 Cl
ENDBRANCH  16  17
ENDBRANCH  15  16
ENDBRANCH  14  15
ENDBRANCH   5  14
TORSDOF 4
ENDMDL
MODEL 7
REMARK VINA RESULT:      -5.7      3.536      5.322
REMARK  Name = 
REMARK  4 active torsions:
REMARK  status: ('A' for Active; 'I' for Inactive)
REMARK    1  A    between atoms: N_5  and  C_6
REMARK    2  A    between atoms: C_6  and  C_7
REMARK    3  A    between atoms: C_7  and  C_8
REMARK    4  A    between atoms: C_8  and  C_9
REMARK                            x       y       z     vdW  Elec       q    Type
REMARK                         _______ _______ _______ _____ _____    ______ ____
ROOT
ATOM      1  O   UNL     1       1.227   3.609  17.894  0.00  0.00    +0.000 OA
ATOM      2  C   UNL     1       2.344   4.049  17.737  0.00  0.00    +0.000 C 
ATOM      3  C   UNL     1       3.637   3.257  17.485  0.00  0.00    +0.000 C 
ATOM      4  O   UNL     1       3.679   2.054  17.410  0.00  0.00    +0.000 OA
ATOM      5  N   UNL     1       4.652   4.220  17.385  0.00  0.00    +0.000 N 
ATOM      6  C   UNL     1       4.116   5.532  17.541  0.00  0.00    +0.000 A 
ATOM      7  C   UNL     1       4.685   6.800  17.521  0.00  0.00    +0.000 A 
ATOM      8 BR   UNL     1       6.519   7.185  17.255  0.00  0.00    +0.000 Br
ATOM      9  C   UNL     1       3.851   7.926  17.717  0.00  0.00    +0.000 A 
ATOM     10  C   UNL     1       2.473   7.785  17.930  0.00  0.00    +0.000 A 
ATOM     11 BR   UNL     1       1.395   9.317  18.190  0.00  0.00    +0.000 Br
ATOM     12  C   UNL     1       1.889   6.530  17.951  0.00  0.00    +0.000 A 
ATOM     13  C   UNL     1       2.732   5.452  17.755  0.00  0.00    +0.000 A 
ENDROOT
BRANCH   5  14
ATOM     14  C   UNL     1       6.044   3.876  17.138  0.00  0.00    +0.000 C 
BRANCH  14  15
ATOM     15  C   UNL     1       6.558   4.190  15.728  0.00  0.00    +0.000 C 
BRANCH  15  16
ATOM     16  C   UNL     1       5.538   3.971  14.609  0.00  0.00    +0.000 C 
BRANCH  16  17
ATOM     17  C   UNL     1       6.235   3.888  13.250  0.00  0.00    +0.000 C 
ATOM     18 CL   UNL     1       5.161   3.180  12.011  0.00  0.00    +0.000 Cl
ENDBRANCH  16  17
ENDBRANCH  15  16
ENDBRANCH  14  15
ENDBRANCH   5  14
TORSDOF 4
ENDMDL
MODEL 8
REMARK VINA RESULT:      -5.6      3.512      5.540
REMARK  Name = 
REMARK  4 active torsions:
REMARK  status: ('A' for Active; 'I' for Inactive)
REMARK    1  A    between atoms: N_5  and  C_6
REMARK    2  A    between atoms: C_6  and  C_7
REMARK    3  A    between atoms: C_7  and  C_8
REMARK    4  A    between atoms: C_8  and  C_9
REMARK                            x       y       z     vdW  Elec       q    Type
REMARK                         _______ _______ _______ _____ _____    ______ ____
ROOT
ATOM      1  O   UNL     1       6.766   8.022  17.279  0.00  0.00    +0.000 OA
ATOM      2  C   UNL     1       6.201   6.971  17.069  0.00  0.00    +0.000 C 
ATOM      3  C   UNL     1       6.668   5.821  16.164  0.00  0.00    +0.000 C 
ATOM      4  O   UNL     1       7.698   5.840  15.536  0.00  0.00    +0.000 OA
ATOM      5  N   UNL     1       5.665   4.845  16.252  0.00  0.00    +0.000 N 
ATOM      6  C   UNL     1       4.625   5.272  17.130  0.00  0.00    +0.000 A 
ATOM      7  C   UNL     1       3.438   4.687  17.553  0.00  0.00    +0.000 A 
ATOM      8 BR   UNL     1       2.795   2.984  17.031  0.00  0.00    +0.000 Br
ATOM      9  C   UNL     1       2.607   5.399  18.451  0.00  0.00    +0.000 A 
ATOM     10  C   UNL     1       2.960   6.673  18.916  0.00  0.00    +0.000 A 
ATOM     11 BR   UNL     1       1.820   7.591  20.114  0.00  0.00    +0.000 Br
ATOM     12  C   UNL     1       4.139   7.270  18.507  0.00  0.00    +0.000 A 
ATOM     13  C   UNL     1       4.928   6.547  17.630  0.00  0.00    +0.000 A 
ENDROOT
BRANCH   5  14
ATOM     14  C   UNL     1       5.729   3.579  15.538  0.00  0.00    +0.000 C 
BRANCH  14  15
ATOM     15  C   UNL     1       5.251   3.621  14.082  0.00  0.00    +0.000 C 
BRANCH  15  16
ATOM     16  C   UNL     1       6.370   3.643  13.039  0.00  0.00    +0.000 C 
BRANCH  16  17
ATOM     17  C   UNL     1       5.927   2.935  11.757  0.00  0.00    +0.000 C 
ATOM     18 CL   UNL     1       4.190   3.197  11.438  0.00  0.00    +0.000 Cl
ENDBRANCH  16  17
ENDBRANCH  15  16
ENDBRANCH  14  15
ENDBRANCH   5  14
TORSDOF 4
ENDMDL
MODEL 9
REMARK VINA RESULT:      -5.6      3.367      4.364
REMARK  Name = 
REMARK  4 active torsions:
REMARK  status: ('A' for Active; 'I' for Inactive)
REMARK    1  A    between atoms: N_5  and  C_6
REMARK    2  A    between atoms: C_6  and  C_7
REMARK    3  A    between atoms: C_7  and  C_8
REMARK    4  A    between atoms: C_8  and  C_9
REMARK                            x       y       z     vdW  Elec       q    Type
REMARK                         _______ _______ _______ _____ _____    ______ ____
ROOT
ATOM      1  O   UNL     1       4.172   2.232  20.324  0.00  0.00    +0.000 OA
ATOM      2  C   UNL     1       3.685   3.303  20.038  0.00  0.00    +0.000 C 
ATOM      3  C   UNL     1       2.484   3.994  20.703  0.00  0.00    +0.000 C 
ATOM      4  O   UNL     1       1.870   3.522  21.627  0.00  0.00    +0.000 OA
ATOM      5  N   UNL     1       2.312   5.198  20.005  0.00  0.00    +0.000 N 
ATOM      6  C   UNL     1       3.292   5.327  18.977  0.00  0.00    +0.000 A 
ATOM      7  C   UNL     1       3.554   6.311  18.031  0.00  0.00    +0.000 A 
ATOM      8 BR   UNL     1       2.584   7.922  17.813  0.00  0.00    +0.000 Br
ATOM      9  C   UNL     1       4.631   6.125  17.132  0.00  0.00    +0.000 A 
ATOM     10  C   UNL     1       5.430   4.974  17.180  0.00  0.00    +0.000 A 
ATOM     11 BR   UNL     1       6.858   4.764  15.957  0.00  0.00    +0.000 Br
ATOM     12  C   UNL     1       5.185   3.985  18.116  0.00  0.00    +0.000 A 
ATOM     13  C   UNL     1       4.126   4.199  18.980  0.00  0.00    +0.000 A 
ENDROOT
BRANCH   5  14
ATOM     14  C   UNL     1       1.268   6.158  20.332  0.00  0.00    +0.000 C 
BRANCH  14  15
ATOM     15  C   UNL     1       1.721   7.358  21.173  0.00  0.00    +0.000 C 
BRANCH  15  16
ATOM     16  C   UNL     1       0.826   8.594  21.063  0.00  0.00    +0.000 C 
BRANCH  16  17
ATOM     17  C   UNL     1       1.112   9.571  22.204  0.00  0.00    +0.000 C 
ATOM     18 CL   UNL     1      -0.162   9.501  23.454  0.00  0.00    +0.000 Cl
ENDBRANCH  16  17
ENDBRANCH  15  16
ENDBRANCH  14  15
ENDBRANCH   5  14
TORSDOF 4
ENDMDL
