MODEL 1
REMARK VINA RESULT:      -8.8      0.000      0.000
REMARK  Name = 
REMARK  5 active torsions:
REMARK  status: ('A' for Active; 'I' for Inactive)
REMARK    1  A    between atoms: C_1  and  N_2
REMARK    2  A    between atoms: C_5  and  C_6
REMARK    3  A    between atoms: C_13  and  C_15
REMARK    4  A    between atoms: C_17  and  C_18
REMARK    5  A    between atoms: C_18  and  C_19
REMARK                            x       y       z     vdW  Elec       q    Type
REMARK                         _______ _______ _______ _____ _____    ______ ____
ROOT
ATOM      1  C   UNL     1       0.346  11.747  19.246  0.00  0.00    +0.000 A 
ATOM      2  C   UNL     1       1.411  10.838  19.113  0.00  0.00    +0.000 A 
ATOM      3  C   UNL     1       1.261   9.663  18.346  0.00  0.00    +0.000 A 
ATOM      4  C   UNL     1       0.009   9.353  17.800  0.00  0.00    +0.000 A 
ATOM      5  C   UNL     1      -1.021  10.273  17.875  0.00  0.00    +0.000 A 
ATOM      6  C   UNL     1      -0.810  11.484  18.521  0.00  0.00    +0.000 A 
ATOM      7  F   UNL     1      -1.742  12.417  18.348  0.00  0.00    +0.000 F 
ENDROOT
BRANCH   1  15
ATOM      8  C   UNL     1      -3.545  13.691  23.831  0.00  0.00    +0.000 C 
ATOM      9  O   UNL     1      -3.883  12.665  24.426  0.00  0.00    +0.000 OA
ATOM     10  N   UNL     1      -2.631  13.654  22.773  0.00  0.00    +0.000 N 
ATOM     11  C   UNL     1      -2.285  14.781  21.901  0.00  0.00    +0.000 C 
ATOM     12  C   UNL     1      -0.910  15.353  22.215  0.00  0.00    +0.000 C 
ATOM     13  C   UNL     1       0.262  14.376  22.085  0.00  0.00    +0.000 C 
ATOM     14  N   UNL     1      -0.016  13.139  21.343  0.00  0.00    +0.000 N 
ATOM     15  C   UNL     1       0.530  12.989  20.053  0.00  0.00    +0.000 C 
ATOM     16  O   UNL     1       1.238  13.862  19.544  0.00  0.00    +0.000 OA
ATOM     17  C   UNL     1      -0.735  12.113  22.121  0.00  0.00    +0.000 C 
ATOM     18  C   UNL     1      -2.250  12.339  22.272  0.00  0.00    +0.000 C 
BRANCH   8  23
ATOM     19  C   UNL     1      -6.625  17.554  23.794  0.00  0.00    +0.000 C 
ATOM     20  N   UNL     1      -5.553  16.658  24.139  0.00  0.00    +0.000 N 
ATOM     21  C   UNL     1      -4.524  16.922  24.983  0.00  0.00    +0.000 A 
ATOM     22  N   UNL     1      -3.680  15.917  25.047  0.00  0.00    +0.000 NA
ATOM     23  C   UNL     1      -4.180  14.965  24.171  0.00  0.00    +0.000 A 
ATOM     24  C   UNL     1      -5.376  15.406  23.638  0.00  0.00    +0.000 A 
ENDBRANCH   8  23
ENDBRANCH   1  15
BRANCH   3  25
ATOM     25  C   UNL     1       2.426   8.748  18.052  0.00  0.00    +0.000 C 
BRANCH  25  26
ATOM     26  C   UNL     1       2.456   7.500  18.920  0.00  0.00    +0.000 A 
ATOM     27  N   UNL     1       1.787   7.542  20.034  0.00  0.00    +0.000 NA
ATOM     28  N   UNL     1       1.788   6.426  20.807  0.00  0.00    +0.000 N 
ATOM     29  C   UNL     1       2.432   5.252  20.524  0.00  0.00    +0.000 A 
ATOM     30  O   UNL     1       2.421   4.297  21.292  0.00  0.00    +0.000 OA
ATOM     31  C   UNL     1       3.142   5.202  19.222  0.00  0.00    +0.000 A 
ATOM     32  C   UNL     1       3.189   6.291  18.434  0.00  0.00    +0.000 A 
ATOM     33  C   UNL     1       3.917   6.304  17.120  0.00  0.00    +0.000 C 
ATOM     34  C   UNL     1       4.820   5.086  16.911  0.00  0.00    +0.000 C 
ATOM     35  C   UNL     1       4.125   3.808  17.360  0.00  0.00    +0.000 C 
ATOM     36  C   UNL     1       3.764   3.887  18.845  0.00  0.00    +0.000 C 
ATOM     37  H   UNL     1       1.290   6.480  21.690  0.00  0.00    +0.000 HD
ENDBRANCH  25  26
ENDBRANCH   3  25
TORSDOF 4
ENDMDL
MODEL 2
REMARK VINA RESULT:      -8.7      2.303      3.052
REMARK  Name = 
REMARK  5 active torsions:
REMARK  status: ('A' for Active; 'I' for Inactive)
REMARK    1  A    between atoms: C_1  and  N_2
REMARK    2  A    between atoms: C_5  and  C_6
REMARK    3  A    between atoms: C_13  and  C_15
REMARK    4  A    between atoms: C_17  and  C_18
REMARK    5  A    between atoms: C_18  and  C_19
REMARK                            x       y       z     vdW  Elec       q    Type
REMARK                         _______ _______ _______ _____ _____    ______ ____
ROOT
ATOM      1  C   UNL     1       0.660   9.362  19.302  0.00  0.00    +0.000 A 
ATOM      2  C   UNL     1       1.608   8.784  18.439  0.00  0.00    +0.000 A 
ATOM      3  C   UNL     1       2.421   7.716  18.875  0.00  0.00    +0.000 A 
ATOM      4  C   UNL     1       2.351   7.300  20.210  0.00  0.00    +0.000 A 
ATOM      5  C   UNL     1       1.377   7.822  21.044  0.00  0.00    +0.000 A 
ATOM      6  C   UNL     1       0.499   8.779  20.552  0.00  0.00    +0.000 A 
ATOM      7  F   UNL     1      -0.557   9.058  21.313  0.00  0.00    +0.000 F 
ENDROOT
BRANCH   1  15
ATOM      8  C   UNL     1      -1.560  14.048  22.916  0.00  0.00    +0.000 C 
ATOM      9  O   UNL     1      -0.641  14.322  23.692  0.00  0.00    +0.000 OA
ATOM     10  N   UNL     1      -1.409  13.078  21.919  0.00  0.00    +0.000 N 
ATOM     11  C   UNL     1      -2.478  12.565  21.055  0.00  0.00    +0.000 C 
ATOM     12  C   UNL     1      -2.383  13.107  19.636  0.00  0.00    +0.000 C 
ATOM     13  C   UNL     1      -1.083  12.793  18.889  0.00  0.00    +0.000 C 
ATOM     14  N   UNL     1      -0.254  11.729  19.471  0.00  0.00    +0.000 N 
ATOM     15  C   UNL     1      -0.196  10.484  18.815  0.00  0.00    +0.000 C 
ATOM     16  O   UNL     1      -0.815  10.274  17.769  0.00  0.00    +0.000 OA
ATOM     17  C   UNL     1       0.558  12.156  20.626  0.00  0.00    +0.000 C 
ATOM     18  C   UNL     1      -0.199  12.267  21.961  0.00  0.00    +0.000 C 
BRANCH   8  23
ATOM     19  C   UNL     1      -5.265  17.310  22.708  0.00  0.00    +0.000 C 
ATOM     20  N   UNL     1      -4.491  16.130  22.988  0.00  0.00    +0.000 N 
ATOM     21  C   UNL     1      -4.836  15.122  23.829  0.00  0.00    +0.000 A 
ATOM     22  N   UNL     1      -3.892  14.212  23.909  0.00  0.00    +0.000 NA
ATOM     23  C   UNL     1      -2.869  14.677  23.096  0.00  0.00    +0.000 A 
ATOM     24  C   UNL     1      -3.260  15.851  22.482  0.00  0.00    +0.000 A 
ENDBRANCH   8  23
ENDBRANCH   1  15
BRANCH   3  25
ATOM     25  C   UNL     1       3.333   6.970  17.932  0.00  0.00    +0.000 C 
BRANCH  25  26
ATOM     26  C   UNL     1       3.819   5.637  18.477  0.00  0.00    +0.000 A 
ATOM     27  N   UNL     1       5.037   5.595  18.931  0.00  0.00    +0.000 NA
ATOM     28  N   UNL     1       5.474   4.415  19.442  0.00  0.00    +0.000 N 
ATOM     29  C   UNL     1       4.749   3.257  19.525  0.00  0.00    +0.000 A 
ATOM     30  O   UNL     1       5.226   2.216  19.963  0.00  0.00    +0.000 OA
ATOM     31  C   UNL     1       3.344   3.339  19.058  0.00  0.00    +0.000 A 
ATOM     32  C   UNL     1       2.874   4.479  18.521  0.00  0.00    +0.000 A 
ATOM     33  C   UNL     1       1.468   4.608  18.006  0.00  0.00    +0.000 C 
ATOM     34  C   UNL     1       0.737   3.269  17.885  0.00  0.00    +0.000 C 
ATOM     35  C   UNL     1       1.003   2.390  19.101  0.00  0.00    +0.000 C 
ATOM     36  C   UNL     1       2.501   2.108  19.241  0.00  0.00    +0.000 C 
ATOM     37  H   UNL     1       6.436   4.384  19.762  0.00  0.00    +0.000 HD
ENDBRANCH  25  26
ENDBRANCH   3  25
TORSDOF 4
ENDMDL
MODEL 3
REMARK VINA RESULT:      -8.7      3.512      5.903
REMARK  Name = 
REMARK  5 active torsions:
REMARK  status: ('A' for Active; 'I' for Inactive)
REMARK    1  A    between atoms: C_1  and  N_2
REMARK    2  A    between atoms: C_5  and  C_6
REMARK    3  A    between atoms: C_13  and  C_15
REMARK    4  A    between atoms: C_17  and  C_18
REMARK    5  A    between atoms: C_18  and  C_19
REMARK                            x       y       z     vdW  Elec       q    Type
REMARK                         _______ _______ _______ _____ _____    ______ ____
ROOT
ATOM      1  C   UNL     1       0.278  11.492  19.719  0.00  0.00    +0.000 A 
ATOM      2  C   UNL     1       1.354  10.675  19.327  0.00  0.00    +0.000 A 
ATOM      3  C   UNL     1       1.176   9.668  18.354  0.00  0.00    +0.000 A 
ATOM      4  C   UNL     1      -0.107   9.416  17.852  0.00  0.00    +0.000 A 
ATOM      5  C   UNL     1      -1.154  10.257  18.187  0.00  0.00    +0.000 A 
ATOM      6  C   UNL     1      -0.925  11.325  19.044  0.00  0.00    +0.000 A 
ATOM      7  F   UNL     1      -1.895  12.232  19.132  0.00  0.00    +0.000 F 
ENDROOT
BRANCH   1  15
ATOM      8  C   UNL     1       3.755  16.696  18.843  0.00  0.00    +0.000 C 
ATOM      9  O   UNL     1       3.521  17.051  17.686  0.00  0.00    +0.000 OA
ATOM     10  N   UNL     1       3.110  15.592  19.413  0.00  0.00    +0.000 N 
ATOM     11  C   UNL     1       3.428  14.993  20.714  0.00  0.00    +0.000 C 
ATOM     12  C   UNL     1       2.388  15.328  21.773  0.00  0.00    +0.000 C 
ATOM     13  C   UNL     1       0.956  14.877  21.466  0.00  0.00    +0.000 C 
ATOM     14  N   UNL     1       0.816  13.883  20.394  0.00  0.00    +0.000 N 
ATOM     15  C   UNL     1       0.493  12.557  20.742  0.00  0.00    +0.000 C 
ATOM     16  O   UNL     1       0.317  12.220  21.915  0.00  0.00    +0.000 OA
ATOM     17  C   UNL     1       0.890  14.445  19.032  0.00  0.00    +0.000 C 
ATOM     18  C   UNL     1       2.307  14.762  18.524  0.00  0.00    +0.000 C 
BRANCH   8  23
ATOM     19  C   UNL     1       8.147  17.895  20.762  0.00  0.00    +0.000 C 
ATOM     20  N   UNL     1       6.744  17.894  20.444  0.00  0.00    +0.000 N 
ATOM     21  C   UNL     1       5.779  18.626  21.057  0.00  0.00    +0.000 A 
ATOM     22  N   UNL     1       4.588  18.360  20.571  0.00  0.00    +0.000 NA
ATOM     23  C   UNL     1       4.795  17.380  19.613  0.00  0.00    +0.000 A 
ATOM     24  C   UNL     1       6.147  17.120  19.498  0.00  0.00    +0.000 A 
ENDBRANCH   8  23
ENDBRANCH   1  15
BRANCH   3  25
ATOM     25  C   UNL     1       2.338   8.882  17.797  0.00  0.00    +0.000 C 
BRANCH  25  26
ATOM     26  C   UNL     1       2.604   7.580  18.534  0.00  0.00    +0.000 A 
ATOM     27  N   UNL     1       1.927   7.373  19.625  0.00  0.00    +0.000 NA
ATOM     28  N   UNL     1       2.139   6.202  20.280  0.00  0.00    +0.000 N 
ATOM     29  C   UNL     1       3.004   5.212  19.900  0.00  0.00    +0.000 A 
ATOM     30  O   UNL     1       3.173   4.197  20.566  0.00  0.00    +0.000 OA
ATOM     31  C   UNL     1       3.724   5.439  18.622  0.00  0.00    +0.000 A 
ATOM     32  C   UNL     1       3.565   6.594  17.951  0.00  0.00    +0.000 A 
ATOM     33  C   UNL     1       4.291   6.887  16.669  0.00  0.00    +0.000 C 
ATOM     34  C   UNL     1       5.418   5.897  16.365  0.00  0.00    +0.000 C 
ATOM     35  C   UNL     1       4.983   4.467  16.660  0.00  0.00    +0.000 C 
ATOM     36  C   UNL     1       4.596   4.317  18.133  0.00  0.00    +0.000 C 
ATOM     37  H   UNL     1       1.631   6.065  21.148  0.00  0.00    +0.000 HD
ENDBRANCH  25  26
ENDBRANCH   3  25
TORSDOF 4
ENDMDL
MODEL 4
REMARK VINA RESULT:      -8.6      2.576      3.656
REMARK  Name = 
REMARK  5 active torsions:
REMARK  status: ('A' for Active; 'I' for Inactive)
REMARK    1  A    between atoms: C_1  and  N_2
REMARK    2  A    between atoms: C_5  and  C_6
REMARK    3  A    between atoms: C_13  and  C_15
REMARK    4  A    between atoms: C_17  and  C_18
REMARK    5  A    between atoms: C_18  and  C_19
REMARK                            x       y       z     vdW  Elec       q    Type
REMARK                         _______ _______ _______ _____ _____    ______ ____
ROOT
ATOM      1  C   UNL     1       0.851   9.504  19.179  0.00  0.00    +0.000 A 
ATOM      2  C   UNL     1       1.746   8.842  18.319  0.00  0.00    +0.000 A 
ATOM      3  C   UNL     1       2.456   7.704  18.757  0.00  0.00    +0.000 A 
ATOM      4  C   UNL     1       2.344   7.295  20.092  0.00  0.00    +0.000 A 
ATOM      5  C   UNL     1       1.419   7.904  20.922  0.00  0.00    +0.000 A 
ATOM      6  C   UNL     1       0.633   8.937  20.428  0.00  0.00    +0.000 A 
ATOM      7  F   UNL     1      -0.396   9.311  21.185  0.00  0.00    +0.000 F 
ENDROOT
BRANCH   1  15
ATOM      8  C   UNL     1       0.729  15.124  22.068  0.00  0.00    +0.000 C 
ATOM      9  O   UNL     1       1.874  15.297  22.489  0.00  0.00    +0.000 OA
ATOM     10  N   UNL     1       0.389  13.992  21.318  0.00  0.00    +0.000 N 
ATOM     11  C   UNL     1      -0.967  13.612  20.908  0.00  0.00    +0.000 C 
ATOM     12  C   UNL     1      -1.217  13.869  19.430  0.00  0.00    +0.000 C 
ATOM     13  C   UNL     1      -0.288  13.132  18.460  0.00  0.00    +0.000 C 
ATOM     14  N   UNL     1       0.475  12.014  19.032  0.00  0.00    +0.000 N 
ATOM     15  C   UNL     1       0.103  10.699  18.690  0.00  0.00    +0.000 C 
ATOM     16  O   UNL     1      -0.834  10.470  17.921  0.00  0.00    +0.000 OA
ATOM     17  C   UNL     1       1.665  12.423  19.801  0.00  0.00    +0.000 C 
ATOM     18  C   UNL     1       1.387  12.935  21.225  0.00  0.00    +0.000 C 
BRANCH   8  23
ATOM     19  C   UNL     1      -2.994  17.288  24.489  0.00  0.00    +0.000 C 
ATOM     20  N   UNL     1      -1.966  17.009  23.523  0.00  0.00    +0.000 N 
ATOM     21  C   UNL     1      -1.784  17.642  22.336  0.00  0.00    +0.000 A 
ATOM     22  N   UNL     1      -0.790  17.117  21.655  0.00  0.00    +0.000 NA
ATOM     23  C   UNL     1      -0.327  16.069  22.436  0.00  0.00    +0.000 A 
ATOM     24  C   UNL     1      -1.029  16.028  23.624  0.00  0.00    +0.000 A 
ENDBRANCH   8  23
ENDBRANCH   1  15
BRANCH   3  25
ATOM     25  C   UNL     1       3.301   6.878  17.817  0.00  0.00    +0.000 C 
BRANCH  25  26
ATOM     26  C   UNL     1       3.789   5.572  18.421  0.00  0.00    +0.000 A 
ATOM     27  N   UNL     1       5.022   5.540  18.834  0.00  0.00    +0.000 NA
ATOM     28  N   UNL     1       5.464   4.386  19.397  0.00  0.00    +0.000 N 
ATOM     29  C   UNL     1       4.729   3.244  19.572  0.00  0.00    +0.000 A 
ATOM     30  O   UNL     1       5.209   2.224  20.053  0.00  0.00    +0.000 OA
ATOM     31  C   UNL     1       3.309   3.318  19.150  0.00  0.00    +0.000 A 
ATOM     32  C   UNL     1       2.834   4.432  18.565  0.00  0.00    +0.000 A 
ATOM     33  C   UNL     1       1.412   4.550  18.093  0.00  0.00    +0.000 C 
ATOM     34  C   UNL     1       0.662   3.216  18.075  0.00  0.00    +0.000 C 
ATOM     35  C   UNL     1       0.961   2.405  19.330  0.00  0.00    +0.000 C 
ATOM     36  C   UNL     1       2.459   2.111  19.434  0.00  0.00    +0.000 C 
ATOM     37  H   UNL     1       6.437   4.360  19.685  0.00  0.00    +0.000 HD
ENDBRANCH  25  26
ENDBRANCH   3  25
TORSDOF 4
ENDMDL
MODEL 5
REMARK VINA RESULT:      -8.6      2.330      3.057
REMARK  Name = 
REMARK  5 active torsions:
REMARK  status: ('A' for Active; 'I' for Inactive)
REMARK    1  A    between atoms: C_1  and  N_2
REMARK    2  A    between atoms: C_5  and  C_6
REMARK    3  A    between atoms: C_13  and  C_15
REMARK    4  A    between atoms: C_17  and  C_18
REMARK    5  A    between atoms: C_18  and  C_19
REMARK                            x       y       z     vdW  Elec       q    Type
REMARK                         _______ _______ _______ _____ _____    ______ ____
ROOT
ATOM      1  C   UNL     1       0.182   9.631  19.310  0.00  0.00    +0.000 A 
ATOM      2  C   UNL     1       0.978   9.231  18.222  0.00  0.00    +0.000 A 
ATOM      3  C   UNL     1       2.008   8.282  18.394  0.00  0.00    +0.000 A 
ATOM      4  C   UNL     1       2.304   7.814  19.681  0.00  0.00    +0.000 A 
ATOM      5  C   UNL     1       1.484   8.156  20.742  0.00  0.00    +0.000 A 
ATOM      6  C   UNL     1       0.393   8.986  20.523  0.00  0.00    +0.000 A 
ATOM      7  F   UNL     1      -0.490   9.078  21.515  0.00  0.00    +0.000 F 
ENDROOT
BRANCH   1  15
ATOM      8  C   UNL     1      -0.805  14.719  22.927  0.00  0.00    +0.000 C 
ATOM      9  O   UNL     1       0.319  15.147  23.198  0.00  0.00    +0.000 OA
ATOM     10  N   UNL     1      -0.983  13.614  22.086  0.00  0.00    +0.000 N 
ATOM     11  C   UNL     1      -2.256  12.931  21.828  0.00  0.00    +0.000 C 
ATOM     12  C   UNL     1      -2.814  13.252  20.450  0.00  0.00    +0.000 C 
ATOM     13  C   UNL     1      -1.917  12.882  19.265  0.00  0.00    +0.000 C 
ATOM     14  N   UNL     1      -0.817  11.955  19.563  0.00  0.00    +0.000 N 
ATOM     15  C   UNL     1      -0.909  10.627  19.102  0.00  0.00    +0.000 C 
ATOM     16  O   UNL     1      -1.881  10.234  18.452  0.00  0.00    +0.000 OA
ATOM     17  C   UNL     1       0.353  12.588  20.201  0.00  0.00    +0.000 C 
ATOM     18  C   UNL     1       0.211  12.871  21.707  0.00  0.00    +0.000 C 
BRANCH   8  23
ATOM     19  C   UNL     1      -4.726  17.600  23.788  0.00  0.00    +0.000 C 
ATOM     20  N   UNL     1      -3.708  16.593  23.926  0.00  0.00    +0.000 N 
ATOM     21  C   UNL     1      -3.439  15.868  25.041  0.00  0.00    +0.000 A 
ATOM     22  N   UNL     1      -2.412  15.067  24.862  0.00  0.00    +0.000 NA
ATOM     23  C   UNL     1      -1.979  15.314  23.568  0.00  0.00    +0.000 A 
ATOM     24  C   UNL     1      -2.815  16.232  22.965  0.00  0.00    +0.000 A 
ENDBRANCH   8  23
ENDBRANCH   1  15
BRANCH   3  25
ATOM     25  C   UNL     1       2.775   7.715  17.224  0.00  0.00    +0.000 C 
BRANCH  25  26
ATOM     26  C   UNL     1       3.840   6.706  17.623  0.00  0.00    +0.000 A 
ATOM     27  N   UNL     1       5.060   7.146  17.721  0.00  0.00    +0.000 NA
ATOM     28  N   UNL     1       6.016   6.259  18.099  0.00  0.00    +0.000 N 
ATOM     29  C   UNL     1       5.818   4.936  18.388  0.00  0.00    +0.000 A 
ATOM     30  O   UNL     1       6.740   4.185  18.684  0.00  0.00    +0.000 OA
ATOM     31  C   UNL     1       4.412   4.466  18.329  0.00  0.00    +0.000 A 
ATOM     32  C   UNL     1       3.434   5.302  17.936  0.00  0.00    +0.000 A 
ATOM     33  C   UNL     1       1.999   4.869  17.831  0.00  0.00    +0.000 C 
ATOM     34  C   UNL     1       1.809   3.354  17.927  0.00  0.00    +0.000 C 
ATOM     35  C   UNL     1       2.682   2.764  19.027  0.00  0.00    +0.000 C 
ATOM     36  C   UNL     1       4.160   3.045  18.748  0.00  0.00    +0.000 C 
ATOM     37  H   UNL     1       6.970   6.605  18.139  0.00  0.00    +0.000 HD
ENDBRANCH  25  26
ENDBRANCH   3  25
TORSDOF 4
ENDMDL
MODEL 6
REMARK VINA RESULT:      -8.5      2.224      2.898
REMARK  Name = 
REMARK  5 active torsions:
REMARK  status: ('A' for Active; 'I' for Inactive)
REMARK    1  A    between atoms: C_1  and  N_2
REMARK    2  A    between atoms: C_5  and  C_6
REMARK    3  A    between atoms: C_13  and  C_15
REMARK    4  A    between atoms: C_17  and  C_18
REMARK    5  A    between atoms: C_18  and  C_19
REMARK                            x       y       z     vdW  Elec       q    Type
REMARK                         _______ _______ _______ _____ _____    ______ ____
ROOT
ATOM      1  C   UNL     1       0.121   9.612  19.607  0.00  0.00    +0.000 A 
ATOM      2  C   UNL     1       1.060   9.284  18.612  0.00  0.00    +0.000 A 
ATOM      3  C   UNL     1       2.073   8.334  18.863  0.00  0.00    +0.000 A 
ATOM      4  C   UNL     1       2.204   7.793  20.148  0.00  0.00    +0.000 A 
ATOM      5  C   UNL     1       1.246   8.064  21.110  0.00  0.00    +0.000 A 
ATOM      6  C   UNL     1       0.181   8.898  20.797  0.00  0.00    +0.000 A 
ATOM      7  F   UNL     1      -0.825   8.924  21.667  0.00  0.00    +0.000 F 
ENDROOT
BRANCH   1  15
ATOM      8  C   UNL     1      -1.015  14.798  23.036  0.00  0.00    +0.000 C 
ATOM      9  O   UNL     1       0.096  15.224  23.357  0.00  0.00    +0.000 OA
ATOM     10  N   UNL     1      -1.157  13.674  22.214  0.00  0.00    +0.000 N 
ATOM     11  C   UNL     1      -2.419  12.994  21.904  0.00  0.00    +0.000 C 
ATOM     12  C   UNL     1      -2.899  13.284  20.490  0.00  0.00    +0.000 C 
ATOM     13  C   UNL     1      -1.942  12.877  19.366  0.00  0.00    +0.000 C 
ATOM     14  N   UNL     1      -0.868  11.950  19.746  0.00  0.00    +0.000 N 
ATOM     15  C   UNL     1      -0.947  10.612  19.314  0.00  0.00    +0.000 C 
ATOM     16  O   UNL     1      -1.886  10.209  18.622  0.00  0.00    +0.000 OA
ATOM     17  C   UNL     1       0.271  12.590  20.432  0.00  0.00    +0.000 C 
ATOM     18  C   UNL     1       0.050  12.912  21.920  0.00  0.00    +0.000 C 
BRANCH   8  23
ATOM     19  C   UNL     1      -4.827  17.865  23.725  0.00  0.00    +0.000 C 
ATOM     20  N   UNL     1      -3.894  16.781  23.880  0.00  0.00    +0.000 N 
ATOM     21  C   UNL     1      -3.799  15.947  24.947  0.00  0.00    +0.000 A 
ATOM     22  N   UNL     1      -2.810  15.094  24.808  0.00  0.00    +0.000 NA
ATOM     23  C   UNL     1      -2.217  15.418  23.598  0.00  0.00    +0.000 A 
ATOM     24  C   UNL     1      -2.921  16.440  22.993  0.00  0.00    +0.000 A 
ENDBRANCH   8  23
ENDBRANCH   1  15
BRANCH   3  25
ATOM     25  C   UNL     1       2.995   7.844  17.774  0.00  0.00    +0.000 C 
BRANCH  25  26
ATOM     26  C   UNL     1       3.089   6.329  17.689  0.00  0.00    +0.000 A 
ATOM     27  N   UNL     1       2.047   5.653  18.075  0.00  0.00    +0.000 NA
ATOM     28  N   UNL     1       2.110   4.299  17.983  0.00  0.00    +0.000 N 
ATOM     29  C   UNL     1       3.174   3.573  17.518  0.00  0.00    +0.000 A 
ATOM     30  O   UNL     1       3.173   2.348  17.502  0.00  0.00    +0.000 OA
ATOM     31  C   UNL     1       4.330   4.363  17.026  0.00  0.00    +0.000 A 
ATOM     32  C   UNL     1       4.323   5.704  17.121  0.00  0.00    +0.000 A 
ATOM     33  C   UNL     1       5.478   6.550  16.665  0.00  0.00    +0.000 C 
ATOM     34  C   UNL     1       6.744   5.743  16.365  0.00  0.00    +0.000 C 
ATOM     35  C   UNL     1       6.410   4.470  15.599  0.00  0.00    +0.000 C 
ATOM     36  C   UNL     1       5.461   3.587  16.413  0.00  0.00    +0.000 C 
ATOM     37  H   UNL     1       1.305   3.780  18.318  0.00  0.00    +0.000 HD
ENDBRANCH  25  26
ENDBRANCH   3  25
TORSDOF 4
ENDMDL
MODEL 7
REMARK VINA RESULT:      -8.3      4.956      9.274
REMARK  Name = 
REMARK  5 active torsions:
REMARK  status: ('A' for Active; 'I' for Inactive)
REMARK    1  A    between atoms: C_1  and  N_2
REMARK    2  A    between atoms: C_5  and  C_6
REMARK    3  A    between atoms: C_13  and  C_15
REMARK    4  A    between atoms: C_17  and  C_18
REMARK    5  A    between atoms: C_18  and  C_19
REMARK                            x       y       z     vdW  Elec       q    Type
REMARK                         _______ _______ _______ _____ _____    ______ ____
ROOT
ATOM      1  C   UNL     1      -2.240  11.051  18.330  0.00  0.00    +0.000 A 
ATOM      2  C   UNL     1      -3.535  11.586  18.455  0.00  0.00    +0.000 A 
ATOM      3  C   UNL     1      -4.468  11.465  17.404  0.00  0.00    +0.000 A 
ATOM      4  C   UNL     1      -4.065  10.897  16.189  0.00  0.00    +0.000 A 
ATOM      5  C   UNL     1      -2.815  10.314  16.083  0.00  0.00    +0.000 A 
ATOM      6  C   UNL     1      -1.960  10.327  17.178  0.00  0.00    +0.000 A 
ATOM      7  F   UNL     1      -0.887   9.545  17.099  0.00  0.00    +0.000 F 
ENDROOT
BRANCH   1  15
ATOM      8  C   UNL     1       2.395  15.336  18.644  0.00  0.00    +0.000 C 
ATOM      9  O   UNL     1       1.912  16.371  18.180  0.00  0.00    +0.000 OA
ATOM     10  N   UNL     1       1.631  14.172  18.785  0.00  0.00    +0.000 N 
ATOM     11  C   UNL     1       2.143  12.853  19.173  0.00  0.00    +0.000 C 
ATOM     12  C   UNL     1       1.778  12.490  20.604  0.00  0.00    +0.000 C 
ATOM     13  C   UNL     1       0.280  12.442  20.917  0.00  0.00    +0.000 C 
ATOM     14  N   UNL     1      -0.614  12.392  19.753  0.00  0.00    +0.000 N 
ATOM     15  C   UNL     1      -1.274  11.182  19.460  0.00  0.00    +0.000 C 
ATOM     16  O   UNL     1      -1.124  10.177  20.159  0.00  0.00    +0.000 OA
ATOM     17  C   UNL     1      -0.832  13.696  19.099  0.00  0.00    +0.000 C 
ATOM     18  C   UNL     1       0.306  14.172  18.179  0.00  0.00    +0.000 C 
BRANCH   8  23
ATOM     19  C   UNL     1       7.278  14.695  18.244  0.00  0.00    +0.000 C 
ATOM     20  N   UNL     1       5.974  15.001  18.769  0.00  0.00    +0.000 N 
ATOM     21  C   UNL     1       5.664  15.236  20.069  0.00  0.00    +0.000 A 
ATOM     22  N   UNL     1       4.375  15.433  20.232  0.00  0.00    +0.000 NA
ATOM     23  C   UNL     1       3.822  15.287  18.969  0.00  0.00    +0.000 A 
ATOM     24  C   UNL     1       4.823  15.063  18.045  0.00  0.00    +0.000 A 
ENDBRANCH   8  23
ENDBRANCH   1  15
BRANCH   3  25
ATOM     25  C   UNL     1      -5.910  11.886  17.563  0.00  0.00    +0.000 C 
BRANCH  25  26
ATOM     26  C   UNL     1      -6.466  11.644  18.956  0.00  0.00    +0.000 A 
ATOM     27  N   UNL     1      -6.762  10.415  19.266  0.00  0.00    +0.000 NA
ATOM     28  N   UNL     1      -7.238  10.183  20.517  0.00  0.00    +0.000 N 
ATOM     29  C   UNL     1      -7.439  11.126  21.489  0.00  0.00    +0.000 A 
ATOM     30  O   UNL     1      -7.912  10.846  22.585  0.00  0.00    +0.000 OA
ATOM     31  C   UNL     1      -7.041  12.511  21.138  0.00  0.00    +0.000 A 
ATOM     32  C   UNL     1      -6.588  12.793  19.904  0.00  0.00    +0.000 A 
ATOM     33  C   UNL     1      -6.198  14.184  19.488  0.00  0.00    +0.000 C 
ATOM     34  C   UNL     1      -6.633  15.263  20.481  0.00  0.00    +0.000 C 
ATOM     35  C   UNL     1      -6.376  14.820  21.916  0.00  0.00    +0.000 C 
ATOM     36  C   UNL     1      -7.153  13.539  22.229  0.00  0.00    +0.000 C 
ATOM     37  H   UNL     1      -7.497   9.227  20.737  0.00  0.00    +0.000 HD
ENDBRANCH  25  26
ENDBRANCH   3  25
TORSDOF 4
ENDMDL
MODEL 8
REMARK VINA RESULT:      -8.2      2.639      3.804
REMARK  Name = 
REMARK  5 active torsions:
REMARK  status: ('A' for Active; 'I' for Inactive)
REMARK    1  A    between atoms: C_1  and  N_2
REMARK    2  A    between atoms: C_5  and  C_6
REMARK    3  A    between atoms: C_13  and  C_15
REMARK    4  A    between atoms: C_17  and  C_18
REMARK    5  A    between atoms: C_18  and  C_19
REMARK                            x       y       z     vdW  Elec       q    Type
REMARK                         _______ _______ _______ _____ _____    ______ ____
ROOT
ATOM      1  C   UNL     1       1.544   8.445  20.026  0.00  0.00    +0.000 A 
ATOM      2  C   UNL     1       1.910   7.089  19.942  0.00  0.00    +0.000 A 
ATOM      3  C   UNL     1       2.435   6.558  18.745  0.00  0.00    +0.000 A 
ATOM      4  C   UNL     1       2.496   7.366  17.603  0.00  0.00    +0.000 A 
ATOM      5  C   UNL     1       2.198   8.714  17.697  0.00  0.00    +0.000 A 
ATOM      6  C   UNL     1       1.811   9.244  18.921  0.00  0.00    +0.000 A 
ATOM      7  F   UNL     1       1.779  10.572  19.007  0.00  0.00    +0.000 F 
ENDROOT
BRANCH   1  15
ATOM      8  C   UNL     1      -2.867  12.950  20.460  0.00  0.00    +0.000 C 
ATOM      9  O   UNL     1      -3.667  12.709  19.553  0.00  0.00    +0.000 OA
ATOM     10  N   UNL     1      -1.770  12.117  20.707  0.00  0.00    +0.000 N 
ATOM     11  C   UNL     1      -0.679  12.395  21.647  0.00  0.00    +0.000 C 
ATOM     12  C   UNL     1      -0.778  11.555  22.912  0.00  0.00    +0.000 C 
ATOM     13  C   UNL     1      -0.749  10.037  22.706  0.00  0.00    +0.000 C 
ATOM     14  N   UNL     1      -0.274   9.580  21.394  0.00  0.00    +0.000 N 
ATOM     15  C   UNL     1       1.001   8.987  21.306  0.00  0.00    +0.000 C 
ATOM     16  O   UNL     1       1.715   8.838  22.300  0.00  0.00    +0.000 OA
ATOM     17  C   UNL     1      -1.282   9.667  20.320  0.00  0.00    +0.000 C 
ATOM     18  C   UNL     1      -1.499  11.071  19.730  0.00  0.00    +0.000 C 
BRANCH   8  23
ATOM     19  C   UNL     1      -4.375  16.211  23.851  0.00  0.00    +0.000 C 
ATOM     20  N   UNL     1      -3.683  15.604  22.746  0.00  0.00    +0.000 N 
ATOM     21  C   UNL     1      -2.902  16.241  21.837  0.00  0.00    +0.000 A 
ATOM     22  N   UNL     1      -2.456  15.414  20.918  0.00  0.00    +0.000 NA
ATOM     23  C   UNL     1      -3.006  14.182  21.238  0.00  0.00    +0.000 A 
ATOM     24  C   UNL     1      -3.735  14.288  22.406  0.00  0.00    +0.000 A 
ENDBRANCH   8  23
ENDBRANCH   1  15
BRANCH   3  25
ATOM     25  C   UNL     1       2.983   5.154  18.668  0.00  0.00    +0.000 C 
BRANCH  25  26
ATOM     26  C   UNL     1       4.501   5.092  18.606  0.00  0.00    +0.000 A 
ATOM     27  N   UNL     1       5.141   5.236  19.729  0.00  0.00    +0.000 NA
ATOM     28  N   UNL     1       6.496   5.160  19.690  0.00  0.00    +0.000 N 
ATOM     29  C   UNL     1       7.259   4.946  18.574  0.00  0.00    +0.000 A 
ATOM     30  O   UNL     1       8.484   4.930  18.610  0.00  0.00    +0.000 OA
ATOM     31  C   UNL     1       6.509   4.725  17.312  0.00  0.00    +0.000 A 
ATOM     32  C   UNL     1       5.167   4.816  17.297  0.00  0.00    +0.000 A 
ATOM     33  C   UNL     1       4.362   4.630  16.043  0.00  0.00    +0.000 C 
ATOM     34  C   UNL     1       5.209   4.622  14.768  0.00  0.00    +0.000 C 
ATOM     35  C   UNL     1       6.478   3.801  14.962  0.00  0.00    +0.000 C 
ATOM     36  C   UNL     1       7.324   4.382  16.097  0.00  0.00    +0.000 C 
ATOM     37  H   UNL     1       6.988   5.306  20.566  0.00  0.00    +0.000 HD
ENDBRANCH  25  26
ENDBRANCH   3  25
TORSDOF 4
ENDMDL
MODEL 9
REMARK VINA RESULT:      -8.2      2.825      3.597
REMARK  Name = 
REMARK  5 active torsions:
REMARK  status: ('A' for Active; 'I' for Inactive)
REMARK    1  A    between atoms: C_1  and  N_2
REMARK    2  A    between atoms: C_5  and  C_6
REMARK    3  A    between atoms: C_13  and  C_15
REMARK    4  A    between atoms: C_17  and  C_18
REMARK    5  A    between atoms: C_18  and  C_19
REMARK                            x       y       z     vdW  Elec       q    Type
REMARK                         _______ _______ _______ _____ _____    ______ ____
ROOT
ATOM      1  C   UNL     1       0.606  10.139  19.276  0.00  0.00    +0.000 A 
ATOM      2  C   UNL     1       1.293   9.391  18.302  0.00  0.00    +0.000 A 
ATOM      3  C   UNL     1       1.926   8.176  18.642  0.00  0.00    +0.000 A 
ATOM      4  C   UNL     1       1.955   7.768  19.981  0.00  0.00    +0.000 A 
ATOM      5  C   UNL     1       1.227   8.465  20.930  0.00  0.00    +0.000 A 
ATOM      6  C   UNL     1       0.501   9.585  20.545  0.00  0.00    +0.000 A 
ATOM      7  F   UNL     1      -0.365  10.062  21.436  0.00  0.00    +0.000 F 
ENDROOT
BRANCH   1  15
ATOM      8  C   UNL     1       1.310  15.647  22.294  0.00  0.00    +0.000 C 
ATOM      9  O   UNL     1       2.502  15.696  22.605  0.00  0.00    +0.000 OA
ATOM     10  N   UNL     1       0.791  14.578  21.554  0.00  0.00    +0.000 N 
ATOM     11  C   UNL     1      -0.629  14.342  21.271  0.00  0.00    +0.000 C 
ATOM     12  C   UNL     1      -0.992  14.670  19.830  0.00  0.00    +0.000 C 
ATOM     13  C   UNL     1      -0.236  13.880  18.757  0.00  0.00    +0.000 C 
ATOM     14  N   UNL     1       0.464  12.677  19.225  0.00  0.00    +0.000 N 
ATOM     15  C   UNL     1      -0.065  11.415  18.890  0.00  0.00    +0.000 C 
ATOM     16  O   UNL     1      -1.089  11.302  18.212  0.00  0.00    +0.000 OA
ATOM     17  C   UNL     1       1.757  12.945  19.884  0.00  0.00    +0.000 C 
ATOM     18  C   UNL     1       1.668  13.434  21.340  0.00  0.00    +0.000 C 
BRANCH   8  23
ATOM     19  C   UNL     1      -1.912  18.089  25.134  0.00  0.00    +0.000 C 
ATOM     20  N   UNL     1      -1.026  17.737  24.057  0.00  0.00    +0.000 N 
ATOM     21  C   UNL     1      -0.917  18.374  22.863  0.00  0.00    +0.000 A 
ATOM     22  N   UNL     1      -0.056  17.776  22.072  0.00  0.00    +0.000 NA
ATOM     23  C   UNL     1       0.392  16.675  22.786  0.00  0.00    +0.000 A 
ATOM     24  C   UNL     1      -0.177  16.674  24.044  0.00  0.00    +0.000 A 
ENDBRANCH   8  23
ENDBRANCH   1  15
BRANCH   3  25
ATOM     25  C   UNL     1       2.534   7.273  17.597  0.00  0.00    +0.000 C 
BRANCH  25  26
ATOM     26  C   UNL     1       3.271   6.077  18.177  0.00  0.00    +0.000 A 
ATOM     27  N   UNL     1       2.548   5.169  18.764  0.00  0.00    +0.000 NA
ATOM     28  N   UNL     1       3.193   4.084  19.266  0.00  0.00    +0.000 N 
ATOM     29  C   UNL     1       4.541   3.854  19.213  0.00  0.00    +0.000 A 
ATOM     30  O   UNL     1       5.058   2.867  19.726  0.00  0.00    +0.000 OA
ATOM     31  C   UNL     1       5.343   4.870  18.488  0.00  0.00    +0.000 A 
ATOM     32  C   UNL     1       4.752   5.973  17.996  0.00  0.00    +0.000 A 
ATOM     33  C   UNL     1       5.520   7.047  17.279  0.00  0.00    +0.000 C 
ATOM     34  C   UNL     1       7.038   6.909  17.419  0.00  0.00    +0.000 C 
ATOM     35  C   UNL     1       7.470   5.457  17.260  0.00  0.00    +0.000 C 
ATOM     36  C   UNL     1       6.808   4.580  18.326  0.00  0.00    +0.000 C 
ATOM     37  H   UNL     1       2.624   3.398  19.751  0.00  0.00    +0.000 HD
ENDBRANCH  25  26
ENDBRANCH   3  25
TORSDOF 4
ENDMDL
