MODEL 1
REMARK VINA RESULT:      -7.5      0.000      0.000
REMARK  Name = 
REMARK  5 active torsions:
REMARK  status: ('A' for Active; 'I' for Inactive)
REMARK    1  A    between atoms: C_1  and  N_2
REMARK    2  A    between atoms: C_3  and  C_4
REMARK    3  A    between atoms: N_13  and  C_14
REMARK    4  A    between atoms: C_14  and  C_15
REMARK    5  A    between atoms: C_19  and  N_20
REMARK                            x       y       z     vdW  Elec       q    Type
REMARK                         _______ _______ _______ _____ _____    ______ ____
ROOT
ATOM      1  C   UNL     1       1.258   8.078  21.308  0.00  0.00    +0.000 C 
ATOM      2  N   UNL     1       1.631   8.292  19.928  0.00  0.00    +0.000 N 
ATOM      3  C   UNL     1       1.243   9.358  19.131  0.00  0.00    +0.000 A 
ATOM      4  C   UNL     1       1.760   9.041  17.886  0.00  0.00    +0.000 A 
ATOM      5  N   UNL     1       2.448   7.857  17.910  0.00  0.00    +0.000 NA
ATOM      6  C   UNL     1       2.380   7.434  19.145  0.00  0.00    +0.000 A 
ATOM      7  N   UNL     1       2.952   6.308  19.645  0.00  0.00    +0.000 N 
ATOM      8  H   UNL     1       3.061   6.152  20.632  0.00  0.00    +0.000 HD
ENDROOT
BRANCH   3   9
ATOM      9  C   UNL     1       0.459  10.528  19.540  0.00  0.00    +0.000 A 
ATOM     10  C   UNL     1      -0.923  10.593  19.304  0.00  0.00    +0.000 A 
ATOM     11  C   UNL     1      -1.660  11.735  19.634  0.00  0.00    +0.000 A 
ATOM     12  C   UNL     1      -1.031  12.790  20.267  0.00  0.00    +0.000 A 
ATOM     13  C   UNL     1       0.333  12.725  20.562  0.00  0.00    +0.000 A 
ATOM     14  C   UNL     1       1.073  11.605  20.188  0.00  0.00    +0.000 A 
ENDBRANCH   3   9
BRANCH   7  15
ATOM     15  C   UNL     1       3.255   5.181  18.777  0.00  0.00    +0.000 C 
BRANCH  15  16
ATOM     16  C   UNL     1       4.717   5.145  18.393  0.00  0.00    +0.000 A 
ATOM     17  C   UNL     1       5.703   5.349  19.375  0.00  0.00    +0.000 A 
ATOM     18  C   UNL     1       7.059   5.352  19.045  0.00  0.00    +0.000 A 
ATOM     19  C   UNL     1       7.461   5.170  17.719  0.00  0.00    +0.000 A 
ATOM     20  C   UNL     1       6.487   4.980  16.731  0.00  0.00    +0.000 A 
ATOM     21  C   UNL     1       5.121   4.968  17.058  0.00  0.00    +0.000 A 
BRANCH  20  22
ATOM     22  N   UNL     1       6.902   4.783  15.333  0.00  0.00    +0.000 N 
ATOM     23  O   UNL     1       7.727   5.573  14.858  0.00  0.00    +0.000 OA
ATOM     24  O   UNL     1       6.405   3.828  14.713  0.00  0.00    +0.000 OA
ENDBRANCH  20  22
ENDBRANCH  15  16
ENDBRANCH   7  15
TORSDOF 4
ENDMDL
MODEL 2
REMARK VINA RESULT:      -7.4      1.885      2.199
REMARK  Name = 
REMARK  5 active torsions:
REMARK  status: ('A' for Active; 'I' for Inactive)
REMARK    1  A    between atoms: C_1  and  N_2
REMARK    2  A    between atoms: C_3  and  C_4
REMARK    3  A    between atoms: N_13  and  C_14
REMARK    4  A    between atoms: C_14  and  C_15
REMARK    5  A    between atoms: C_19  and  N_20
REMARK                            x       y       z     vdW  Elec       q    Type
REMARK                         _______ _______ _______ _____ _____    ______ ____
ROOT
ATOM      1  C   UNL     1       0.945   8.700  21.156  0.00  0.00    +0.000 C 
ATOM      2  N   UNL     1       1.450   8.571  19.807  0.00  0.00    +0.000 N 
ATOM      3  C   UNL     1       1.300   9.495  18.784  0.00  0.00    +0.000 A 
ATOM      4  C   UNL     1       1.851   8.857  17.685  0.00  0.00    +0.000 A 
ATOM      5  N   UNL     1       2.334   7.617  18.008  0.00  0.00    +0.000 NA
ATOM      6  C   UNL     1       2.106   7.471  19.286  0.00  0.00    +0.000 A 
ATOM      7  N   UNL     1       2.448   6.402  20.051  0.00  0.00    +0.000 N 
ATOM      8  H   UNL     1       2.457   6.438  21.055  0.00  0.00    +0.000 HD
ENDROOT
BRANCH   3   9
ATOM      9  C   UNL     1       0.688  10.824  18.877  0.00  0.00    +0.000 A 
ATOM     10  C   UNL     1      -0.706  10.981  18.872  0.00  0.00    +0.000 A 
ATOM     11  C   UNL     1      -1.291  12.252  18.894  0.00  0.00    +0.000 A 
ATOM     12  C   UNL     1      -0.483  13.369  18.991  0.00  0.00    +0.000 A 
ATOM     13  C   UNL     1       0.905  13.234  19.053  0.00  0.00    +0.000 A 
ATOM     14  C   UNL     1       1.485  11.969  18.983  0.00  0.00    +0.000 A 
ENDBRANCH   3   9
BRANCH   7  15
ATOM     15  C   UNL     1       2.629   5.089  19.452  0.00  0.00    +0.000 C 
BRANCH  15  16
ATOM     16  C   UNL     1       3.971   4.964  18.767  0.00  0.00    +0.000 A 
ATOM     17  C   UNL     1       4.061   4.325  17.518  0.00  0.00    +0.000 A 
ATOM     18  C   UNL     1       5.291   4.168  16.876  0.00  0.00    +0.000 A 
ATOM     19  C   UNL     1       6.463   4.632  17.479  0.00  0.00    +0.000 A 
ATOM     20  C   UNL     1       6.387   5.258  18.728  0.00  0.00    +0.000 A 
ATOM     21  C   UNL     1       5.152   5.425  19.376  0.00  0.00    +0.000 A 
BRANCH  20  22
ATOM     22  N   UNL     1       7.616   5.752  19.367  0.00  0.00    +0.000 N 
ATOM     23  O   UNL     1       8.232   6.668  18.807  0.00  0.00    +0.000 OA
ATOM     24  O   UNL     1       7.962   5.225  20.437  0.00  0.00    +0.000 OA
ENDBRANCH  20  22
ENDBRANCH  15  16
ENDBRANCH   7  15
TORSDOF 4
ENDMDL
MODEL 3
REMARK VINA RESULT:      -7.4      1.831      2.400
REMARK  Name = 
REMARK  5 active torsions:
REMARK  status: ('A' for Active; 'I' for Inactive)
REMARK    1  A    between atoms: C_1  and  N_2
REMARK    2  A    between atoms: C_3  and  C_4
REMARK    3  A    between atoms: N_13  and  C_14
REMARK    4  A    between atoms: C_14  and  C_15
REMARK    5  A    between atoms: C_19  and  N_20
REMARK                            x       y       z     vdW  Elec       q    Type
REMARK                         _______ _______ _______ _____ _____    ______ ____
ROOT
ATOM      1  C   UNL     1       1.090   8.568  21.115  0.00  0.00    +0.000 C 
ATOM      2  N   UNL     1       1.601   8.400  19.772  0.00  0.00    +0.000 N 
ATOM      3  C   UNL     1       1.414   9.270  18.710  0.00  0.00    +0.000 A 
ATOM      4  C   UNL     1       1.991   8.608  17.639  0.00  0.00    +0.000 A 
ATOM      5  N   UNL     1       2.525   7.404  18.016  0.00  0.00    +0.000 NA
ATOM      6  C   UNL     1       2.302   7.306  19.300  0.00  0.00    +0.000 A 
ATOM      7  N   UNL     1       2.689   6.287  20.111  0.00  0.00    +0.000 N 
ATOM      8  H   UNL     1       2.696   6.368  21.113  0.00  0.00    +0.000 HD
ENDROOT
BRANCH   3   9
ATOM      9  C   UNL     1       0.747  10.576  18.744  0.00  0.00    +0.000 A 
ATOM     10  C   UNL     1       1.480  11.759  18.921  0.00  0.00    +0.000 A 
ATOM     11  C   UNL     1       0.840  12.998  19.019  0.00  0.00    +0.000 A 
ATOM     12  C   UNL     1      -0.532  13.068  18.870  0.00  0.00    +0.000 A 
ATOM     13  C   UNL     1      -1.277  11.909  18.638  0.00  0.00    +0.000 A 
ATOM     14  C   UNL     1      -0.640  10.671  18.588  0.00  0.00    +0.000 A 
ENDBRANCH   3   9
BRANCH   7  15
ATOM     15  C   UNL     1       2.924   4.957  19.571  0.00  0.00    +0.000 C 
BRANCH  15  16
ATOM     16  C   UNL     1       4.216   4.890  18.787  0.00  0.00    +0.000 A 
ATOM     17  C   UNL     1       4.238   4.264  17.529  0.00  0.00    +0.000 A 
ATOM     18  C   UNL     1       5.422   4.160  16.796  0.00  0.00    +0.000 A 
ATOM     19  C   UNL     1       6.616   4.665  17.315  0.00  0.00    +0.000 A 
ATOM     20  C   UNL     1       6.609   5.279  18.573  0.00  0.00    +0.000 A 
ATOM     21  C   UNL     1       5.420   5.393  19.311  0.00  0.00    +0.000 A 
BRANCH  20  22
ATOM     22  N   UNL     1       7.862   5.817  19.124  0.00  0.00    +0.000 N 
ATOM     23  O   UNL     1       8.465   5.136  19.963  0.00  0.00    +0.000 OA
ATOM     24  O   UNL     1       8.246   6.923  18.709  0.00  0.00    +0.000 OA
ENDBRANCH  20  22
ENDBRANCH  15  16
ENDBRANCH   7  15
TORSDOF 4
ENDMDL
MODEL 4
REMARK VINA RESULT:      -7.4      5.004      6.536
REMARK  Name = 
REMARK  5 active torsions:
REMARK  status: ('A' for Active; 'I' for Inactive)
REMARK    1  A    between atoms: C_1  and  N_2
REMARK    2  A    between atoms: C_3  and  C_4
REMARK    3  A    between atoms: N_13  and  C_14
REMARK    4  A    between atoms: C_14  and  C_15
REMARK    5  A    between atoms: C_19  and  N_20
REMARK                            x       y       z     vdW  Elec       q    Type
REMARK                         _______ _______ _______ _____ _____    ______ ____
ROOT
ATOM      1  C   UNL     1       4.102   2.481  17.264  0.00  0.00    +0.000 C 
ATOM      2  N   UNL     1       4.677   3.626  17.934  0.00  0.00    +0.000 N 
ATOM      3  C   UNL     1       4.207   4.215  19.097  0.00  0.00    +0.000 A 
ATOM      4  C   UNL     1       5.021   5.324  19.254  0.00  0.00    +0.000 A 
ATOM      5  N   UNL     1       5.958   5.410  18.259  0.00  0.00    +0.000 NA
ATOM      6  C   UNL     1       5.752   4.373  17.490  0.00  0.00    +0.000 A 
ATOM      7  N   UNL     1       6.470   4.028  16.389  0.00  0.00    +0.000 N 
ATOM      8  H   UNL     1       6.417   3.114  15.976  0.00  0.00    +0.000 HD
ENDROOT
BRANCH   3   9
ATOM      9  C   UNL     1       3.097   3.752  19.936  0.00  0.00    +0.000 A 
ATOM     10  C   UNL     1       1.789   4.217  19.729  0.00  0.00    +0.000 A 
ATOM     11  C   UNL     1       0.742   3.827  20.570  0.00  0.00    +0.000 A 
ATOM     12  C   UNL     1       0.984   2.914  21.578  0.00  0.00    +0.000 A 
ATOM     13  C   UNL     1       2.267   2.395  21.768  0.00  0.00    +0.000 A 
ATOM     14  C   UNL     1       3.317   2.823  20.959  0.00  0.00    +0.000 A 
ENDBRANCH   3   9
BRANCH   7  15
ATOM     15  C   UNL     1       7.204   5.034  15.637  0.00  0.00    +0.000 C 
BRANCH  15  16
ATOM     16  C   UNL     1       7.148   4.773  14.149  0.00  0.00    +0.000 A 
ATOM     17  C   UNL     1       7.960   5.520  13.278  0.00  0.00    +0.000 A 
ATOM     18  C   UNL     1       7.909   5.323  11.896  0.00  0.00    +0.000 A 
ATOM     19  C   UNL     1       7.027   4.385  11.353  0.00  0.00    +0.000 A 
ATOM     20  C   UNL     1       6.203   3.645  12.210  0.00  0.00    +0.000 A 
ATOM     21  C   UNL     1       6.257   3.834  13.601  0.00  0.00    +0.000 A 
BRANCH  20  22
ATOM     22  N   UNL     1       5.276   2.652  11.646  0.00  0.00    +0.000 N 
ATOM     23  O   UNL     1       5.707   1.512  11.433  0.00  0.00    +0.000 OA
ATOM     24  O   UNL     1       4.110   3.016  11.421  0.00  0.00    +0.000 OA
ENDBRANCH  20  22
ENDBRANCH  15  16
ENDBRANCH   7  15
TORSDOF 4
ENDMDL
MODEL 5
REMARK VINA RESULT:      -7.3      4.966      6.559
REMARK  Name = 
REMARK  5 active torsions:
REMARK  status: ('A' for Active; 'I' for Inactive)
REMARK    1  A    between atoms: C_1  and  N_2
REMARK    2  A    between atoms: C_3  and  C_4
REMARK    3  A    between atoms: N_13  and  C_14
REMARK    4  A    between atoms: C_14  and  C_15
REMARK    5  A    between atoms: C_19  and  N_20
REMARK                            x       y       z     vdW  Elec       q    Type
REMARK                         _______ _______ _______ _____ _____    ______ ____
ROOT
ATOM      1  C   UNL     1       4.098   2.491  17.269  0.00  0.00    +0.000 C 
ATOM      2  N   UNL     1       4.658   3.659  17.912  0.00  0.00    +0.000 N 
ATOM      3  C   UNL     1       4.179   4.271  19.060  0.00  0.00    +0.000 A 
ATOM      4  C   UNL     1       4.981   5.392  19.192  0.00  0.00    +0.000 A 
ATOM      5  N   UNL     1       5.919   5.464  18.196  0.00  0.00    +0.000 NA
ATOM      6  C   UNL     1       5.725   4.407  17.453  0.00  0.00    +0.000 A 
ATOM      7  N   UNL     1       6.450   4.043  16.362  0.00  0.00    +0.000 N 
ATOM      8  H   UNL     1       6.408   3.119  15.971  0.00  0.00    +0.000 HD
ENDROOT
BRANCH   3   9
ATOM      9  C   UNL     1       3.072   3.816  19.908  0.00  0.00    +0.000 A 
ATOM     10  C   UNL     1       3.290   2.915  20.962  0.00  0.00    +0.000 A 
ATOM     11  C   UNL     1       2.227   2.429  21.729  0.00  0.00    +0.000 A 
ATOM     12  C   UNL     1       0.949   2.898  21.492  0.00  0.00    +0.000 A 
ATOM     13  C   UNL     1       0.716   3.837  20.485  0.00  0.00    +0.000 A 
ATOM     14  C   UNL     1       1.772   4.282  19.692  0.00  0.00    +0.000 A 
ENDBRANCH   3   9
BRANCH   7  15
ATOM     15  C   UNL     1       7.174   5.039  15.587  0.00  0.00    +0.000 C 
BRANCH  15  16
ATOM     16  C   UNL     1       7.105   4.754  14.103  0.00  0.00    +0.000 A 
ATOM     17  C   UNL     1       7.889   5.505  13.211  0.00  0.00    +0.000 A 
ATOM     18  C   UNL     1       7.824   5.286  11.833  0.00  0.00    +0.000 A 
ATOM     19  C   UNL     1       6.956   4.320  11.316  0.00  0.00    +0.000 A 
ATOM     20  C   UNL     1       6.161   3.576  12.195  0.00  0.00    +0.000 A 
ATOM     21  C   UNL     1       6.228   3.787  13.581  0.00  0.00    +0.000 A 
BRANCH  20  22
ATOM     22  N   UNL     1       5.248   2.554  11.657  0.00  0.00    +0.000 N 
ATOM     23  O   UNL     1       5.706   1.425  11.441  0.00  0.00    +0.000 OA
ATOM     24  O   UNL     1       4.068   2.884  11.457  0.00  0.00    +0.000 OA
ENDBRANCH  20  22
ENDBRANCH  15  16
ENDBRANCH   7  15
TORSDOF 4
ENDMDL
MODEL 6
REMARK VINA RESULT:      -7.2      0.418      1.078
REMARK  Name = 
REMARK  5 active torsions:
REMARK  status: ('A' for Active; 'I' for Inactive)
REMARK    1  A    between atoms: C_1  and  N_2
REMARK    2  A    between atoms: C_3  and  C_4
REMARK    3  A    between atoms: N_13  and  C_14
REMARK    4  A    between atoms: C_14  and  C_15
REMARK    5  A    between atoms: C_19  and  N_20
REMARK                            x       y       z     vdW  Elec       q    Type
REMARK                         _______ _______ _______ _____ _____    ______ ____
ROOT
ATOM      1  C   UNL     1       1.308   8.410  21.199  0.00  0.00    +0.000 C 
ATOM      2  N   UNL     1       1.692   8.435  19.805  0.00  0.00    +0.000 N 
ATOM      3  C   UNL     1       1.337   9.399  18.874  0.00  0.00    +0.000 A 
ATOM      4  C   UNL     1       1.850   8.910  17.684  0.00  0.00    +0.000 A 
ATOM      5  N   UNL     1       2.504   7.721  17.866  0.00  0.00    +0.000 NA
ATOM      6  C   UNL     1       2.419   7.463  19.144  0.00  0.00    +0.000 A 
ATOM      7  N   UNL     1       2.958   6.395  19.790  0.00  0.00    +0.000 N 
ATOM      8  H   UNL     1       3.059   6.365  20.789  0.00  0.00    +0.000 HD
ENDROOT
BRANCH   3   9
ATOM      9  C   UNL     1       0.585  10.633  19.124  0.00  0.00    +0.000 A 
ATOM     10  C   UNL     1       1.242  11.829  19.452  0.00  0.00    +0.000 A 
ATOM     11  C   UNL     1       0.523  12.990  19.754  0.00  0.00    +0.000 A 
ATOM     12  C   UNL     1      -0.855  12.979  19.661  0.00  0.00    +0.000 A 
ATOM     13  C   UNL     1      -1.528  11.815  19.282  0.00  0.00    +0.000 A 
ATOM     14  C   UNL     1      -0.811  10.648  19.028  0.00  0.00    +0.000 A 
ENDBRANCH   3   9
BRANCH   7  15
ATOM     15  C   UNL     1       3.232   5.158  19.077  0.00  0.00    +0.000 C 
BRANCH  15  16
ATOM     16  C   UNL     1       4.643   5.125  18.533  0.00  0.00    +0.000 A 
ATOM     17  C   UNL     1       5.729   5.376  19.389  0.00  0.00    +0.000 A 
ATOM     18  C   UNL     1       7.040   5.382  18.910  0.00  0.00    +0.000 A 
ATOM     19  C   UNL     1       7.293   5.156  17.555  0.00  0.00    +0.000 A 
ATOM     20  C   UNL     1       6.219   4.918  16.689  0.00  0.00    +0.000 A 
ATOM     21  C   UNL     1       4.899   4.903  17.168  0.00  0.00    +0.000 A 
BRANCH  20  22
ATOM     22  N   UNL     1       6.479   4.674  15.262  0.00  0.00    +0.000 N 
ATOM     23  O   UNL     1       6.900   5.618  14.581  0.00  0.00    +0.000 OA
ATOM     24  O   UNL     1       6.265   3.532  14.824  0.00  0.00    +0.000 OA
ENDBRANCH  20  22
ENDBRANCH  15  16
ENDBRANCH   7  15
TORSDOF 4
ENDMDL
MODEL 7
REMARK VINA RESULT:      -7.1      1.467      2.079
REMARK  Name = 
REMARK  5 active torsions:
REMARK  status: ('A' for Active; 'I' for Inactive)
REMARK    1  A    between atoms: C_1  and  N_2
REMARK    2  A    between atoms: C_3  and  C_4
REMARK    3  A    between atoms: N_13  and  C_14
REMARK    4  A    between atoms: C_14  and  C_15
REMARK    5  A    between atoms: C_19  and  N_20
REMARK                            x       y       z     vdW  Elec       q    Type
REMARK                         _______ _______ _______ _____ _____    ______ ____
ROOT
ATOM      1  C   UNL     1       1.608   5.618  20.934  0.00  0.00    +0.000 C 
ATOM      2  N   UNL     1       2.097   6.386  19.811  0.00  0.00    +0.000 N 
ATOM      3  C   UNL     1       1.855   7.729  19.568  0.00  0.00    +0.000 A 
ATOM      4  C   UNL     1       2.436   7.948  18.330  0.00  0.00    +0.000 A 
ATOM      5  N   UNL     1       3.025   6.813  17.839  0.00  0.00    +0.000 NA
ATOM      6  C   UNL     1       2.832   5.894  18.748  0.00  0.00    +0.000 A 
ATOM      7  N   UNL     1       3.275   4.610  18.705  0.00  0.00    +0.000 N 
ATOM      8  H   UNL     1       3.298   4.021  19.518  0.00  0.00    +0.000 HD
ENDROOT
BRANCH   3   9
ATOM      9  C   UNL     1       1.138   8.668  20.437  0.00  0.00    +0.000 A 
ATOM     10  C   UNL     1       0.413   9.743  19.899  0.00  0.00    +0.000 A 
ATOM     11  C   UNL     1      -0.217  10.677  20.728  0.00  0.00    +0.000 A 
ATOM     12  C   UNL     1      -0.184  10.501  22.098  0.00  0.00    +0.000 A 
ATOM     13  C   UNL     1       0.485   9.407  22.653  0.00  0.00    +0.000 A 
ATOM     14  C   UNL     1       1.151   8.506  21.826  0.00  0.00    +0.000 A 
ENDBRANCH   3   9
BRANCH   7  15
ATOM     15  C   UNL     1       3.551   3.964  17.432  0.00  0.00    +0.000 C 
BRANCH  15  16
ATOM     16  C   UNL     1       4.971   4.210  16.973  0.00  0.00    +0.000 A 
ATOM     17  C   UNL     1       5.990   4.394  17.924  0.00  0.00    +0.000 A 
ATOM     18  C   UNL     1       7.305   4.653  17.531  0.00  0.00    +0.000 A 
ATOM     19  C   UNL     1       7.626   4.753  16.175  0.00  0.00    +0.000 A 
ATOM     20  C   UNL     1       6.617   4.585  15.220  0.00  0.00    +0.000 A 
ATOM     21  C   UNL     1       5.294   4.317  15.609  0.00  0.00    +0.000 A 
BRANCH  20  22
ATOM     22  N   UNL     1       6.949   4.684  13.790  0.00  0.00    +0.000 N 
ATOM     23  O   UNL     1       7.799   5.516  13.450  0.00  0.00    +0.000 OA
ATOM     24  O   UNL     1       6.360   3.921  13.007  0.00  0.00    +0.000 OA
ENDBRANCH  20  22
ENDBRANCH  15  16
ENDBRANCH   7  15
TORSDOF 4
ENDMDL
MODEL 8
REMARK VINA RESULT:      -7.1      0.662      1.356
REMARK  Name = 
REMARK  5 active torsions:
REMARK  status: ('A' for Active; 'I' for Inactive)
REMARK    1  A    between atoms: C_1  and  N_2
REMARK    2  A    between atoms: C_3  and  C_4
REMARK    3  A    between atoms: N_13  and  C_14
REMARK    4  A    between atoms: C_14  and  C_15
REMARK    5  A    between atoms: C_19  and  N_20
REMARK                            x       y       z     vdW  Elec       q    Type
REMARK                         _______ _______ _______ _____ _____    ______ ____
ROOT
ATOM      1  C   UNL     1       2.101   9.177  17.800  0.00  0.00    +0.000 C 
ATOM      2  N   UNL     1       1.749   8.574  19.067  0.00  0.00    +0.000 N 
ATOM      3  C   UNL     1       1.000   9.163  20.074  0.00  0.00    +0.000 A 
ATOM      4  C   UNL     1       1.047   8.236  21.101  0.00  0.00    +0.000 A 
ATOM      5  N   UNL     1       1.765   7.124  20.748  0.00  0.00    +0.000 NA
ATOM      6  C   UNL     1       2.159   7.335  19.520  0.00  0.00    +0.000 A 
ATOM      7  N   UNL     1       2.877   6.480  18.744  0.00  0.00    +0.000 N 
ATOM      8  H   UNL     1       2.954   6.591  17.749  0.00  0.00    +0.000 HD
ENDROOT
BRANCH   3   9
ATOM      9  C   UNL     1       0.335  10.470  20.032  0.00  0.00    +0.000 A 
ATOM     10  C   UNL     1      -0.928  10.621  19.438  0.00  0.00    +0.000 A 
ATOM     11  C   UNL     1      -1.534  11.877  19.338  0.00  0.00    +0.000 A 
ATOM     12  C   UNL     1      -0.912  12.978  19.896  0.00  0.00    +0.000 A 
ATOM     13  C   UNL     1       0.319  12.841  20.541  0.00  0.00    +0.000 A 
ATOM     14  C   UNL     1       0.942  11.596  20.595  0.00  0.00    +0.000 A 
ENDBRANCH   3   9
BRANCH   7  15
ATOM     15  C   UNL     1       3.735   5.474  19.349  0.00  0.00    +0.000 C 
BRANCH  15  16
ATOM     16  C   UNL     1       5.054   5.349  18.619  0.00  0.00    +0.000 A 
ATOM     17  C   UNL     1       6.260   5.425  19.337  0.00  0.00    +0.000 A 
ATOM     18  C   UNL     1       7.493   5.344  18.687  0.00  0.00    +0.000 A 
ATOM     19  C   UNL     1       7.547   5.203  17.298  0.00  0.00    +0.000 A 
ATOM     20  C   UNL     1       6.352   5.140  16.571  0.00  0.00    +0.000 A 
ATOM     21  C   UNL     1       5.109   5.213  17.221  0.00  0.00    +0.000 A 
BRANCH  20  22
ATOM     22  N   UNL     1       6.401   4.987  15.109  0.00  0.00    +0.000 N 
ATOM     23  O   UNL     1       7.419   5.374  14.520  0.00  0.00    +0.000 OA
ATOM     24  O   UNL     1       5.419   4.471  14.549  0.00  0.00    +0.000 OA
ENDBRANCH  20  22
ENDBRANCH  15  16
ENDBRANCH   7  15
TORSDOF 4
ENDMDL
MODEL 9
REMARK VINA RESULT:      -7.1      3.564      4.335
REMARK  Name = 
REMARK  5 active torsions:
REMARK  status: ('A' for Active; 'I' for Inactive)
REMARK    1  A    between atoms: C_1  and  N_2
REMARK    2  A    between atoms: C_3  and  C_4
REMARK    3  A    between atoms: N_13  and  C_14
REMARK    4  A    between atoms: C_14  and  C_15
REMARK    5  A    between atoms: C_19  and  N_20
REMARK                            x       y       z     vdW  Elec       q    Type
REMARK                         _______ _______ _______ _____ _____    ______ ____
ROOT
ATOM      1  C   UNL     1       0.464   8.543  21.275  0.00  0.00    +0.000 C 
ATOM      2  N   UNL     1       0.969   9.089  20.035  0.00  0.00    +0.000 N 
ATOM      3  C   UNL     1       0.608  10.301  19.466  0.00  0.00    +0.000 A 
ATOM      4  C   UNL     1       1.272  10.303  18.251  0.00  0.00    +0.000 A 
ATOM      5  N   UNL     1       2.020   9.168  18.081  0.00  0.00    +0.000 NA
ATOM      6  C   UNL     1       1.844   8.464  19.167  0.00  0.00    +0.000 A 
ATOM      7  N   UNL     1       2.423   7.269  19.457  0.00  0.00    +0.000 N 
ATOM      8  H   UNL     1       2.436   6.888  20.387  0.00  0.00    +0.000 HD
ENDROOT
BRANCH   3   9
ATOM      9  C   UNL     1      -0.281  11.316  20.040  0.00  0.00    +0.000 A 
ATOM     10  C   UNL     1       0.125  12.101  21.130  0.00  0.00    +0.000 A 
ATOM     11  C   UNL     1      -0.745  13.024  21.721  0.00  0.00    +0.000 A 
ATOM     12  C   UNL     1      -2.000  13.217  21.178  0.00  0.00    +0.000 A 
ATOM     13  C   UNL     1      -2.406  12.487  20.058  0.00  0.00    +0.000 A 
ATOM     14  C   UNL     1      -1.554  11.534  19.503  0.00  0.00    +0.000 A 
ENDBRANCH   3   9
BRANCH   7  15
ATOM     15  C   UNL     1       2.881   6.389  18.394  0.00  0.00    +0.000 C 
BRANCH  15  16
ATOM     16  C   UNL     1       2.544   4.942  18.678  0.00  0.00    +0.000 A 
ATOM     17  C   UNL     1       2.164   4.093  17.625  0.00  0.00    +0.000 A 
ATOM     18  C   UNL     1       1.818   2.761  17.860  0.00  0.00    +0.000 A 
ATOM     19  C   UNL     1       1.826   2.253  19.162  0.00  0.00    +0.000 A 
ATOM     20  C   UNL     1       2.189   3.093  20.221  0.00  0.00    +0.000 A 
ATOM     21  C   UNL     1       2.546   4.432  19.988  0.00  0.00    +0.000 A 
BRANCH  20  22
ATOM     22  N   UNL     1       2.204   2.564  21.594  0.00  0.00    +0.000 N 
ATOM     23  O   UNL     1       1.151   2.609  22.243  0.00  0.00    +0.000 OA
ATOM     24  O   UNL     1       3.273   2.096  22.019  0.00  0.00    +0.000 OA
ENDBRANCH  20  22
ENDBRANCH  15  16
ENDBRANCH   7  15
TORSDOF 4
ENDMDL
