MODEL 1
REMARK VINA RESULT:      -7.2      0.000      0.000
REMARK  Name = 
REMARK  5 active torsions:
REMARK  status: ('A' for Active; 'I' for Inactive)
REMARK    1  A    between atoms: C_1  and  C_2
REMARK    2  A    between atoms: C_2  and  C_3
REMARK    3  A    between atoms: C_2  and  O_4
REMARK    4  A    between atoms: C_2  and  C_5
REMARK    5  A    between atoms: C_19  and  O_20
REMARK                            x       y       z     vdW  Elec       q    Type
REMARK                         _______ _______ _______ _____ _____    ______ ____
ROOT
ATOM      1  C   UNL     1       6.361   5.557  16.892  0.00  0.00    +0.000 C 
ATOM      2  O   UNL     1       5.069   6.188  17.153  0.00  0.00    +0.000 OA
ATOM      3  C   UNL     1       4.433   5.324  18.036  0.00  0.00    +0.000 C 
ATOM      4  C   UNL     1       5.171   4.324  18.495  0.00  0.00    +0.000 C 
ATOM      5  C   UNL     1       4.672   3.331  19.446  0.00  0.00    +0.000 C 
ATOM      6  O   UNL     1       5.360   2.397  19.828  0.00  0.00    +0.000 OA
ATOM      7  C   UNL     1       3.284   3.523  19.937  0.00  0.00    +0.000 A 
ATOM      8  C   UNL     1       2.770   2.663  20.915  0.00  0.00    +0.000 A 
ATOM      9  C   UNL     1       1.456   2.823  21.366  0.00  0.00    +0.000 A 
ATOM     10  C   UNL     1       0.649   3.829  20.836  0.00  0.00    +0.000 A 
ATOM     11  C   UNL     1       1.164   4.695  19.868  0.00  0.00    +0.000 A 
ATOM     12  C   UNL     1       2.483   4.554  19.426  0.00  0.00    +0.000 A 
ATOM     13  C   UNL     1       3.023   5.514  18.436  0.00  0.00    +0.000 C 
ATOM     14  O   UNL     1       2.333   6.420  17.989  0.00  0.00    +0.000 OA
ATOM     15  C   UNL     1       6.501   4.355  17.863  0.00  0.00    +0.000 C 
ENDROOT
BRANCH   1  17
ATOM     16  C   UNL     1       5.389   5.926  14.557  0.00  0.00    +0.000 C 
ATOM     17  C   UNL     1       6.466   5.213  15.380  0.00  0.00    +0.000 C 
ATOM     18  C   UNL     1       6.332   3.695  15.173  0.00  0.00    +0.000 C 
BRANCH  17  19
ATOM     19  O   UNL     1       7.740   5.633  14.878  0.00  0.00    +0.000 OA
ATOM     20  H   UNL     1       7.598   6.047  14.008  0.00  0.00    +0.000 HD
ENDBRANCH  17  19
ENDBRANCH   1  17
BRANCH  15  21
ATOM     21  O   UNL     1       7.519   4.632  18.825  0.00  0.00    +0.000 OA
ATOM     22  H   UNL     1       7.436   3.997  19.556  0.00  0.00    +0.000 HD
ENDBRANCH  15  21
TORSDOF 3
ENDMDL
MODEL 2
REMARK VINA RESULT:      -7.1      1.658      2.859
REMARK  Name = 
REMARK  5 active torsions:
REMARK  status: ('A' for Active; 'I' for Inactive)
REMARK    1  A    between atoms: C_1  and  C_2
REMARK    2  A    between atoms: C_2  and  C_3
REMARK    3  A    between atoms: C_2  and  O_4
REMARK    4  A    between atoms: C_2  and  C_5
REMARK    5  A    between atoms: C_19  and  O_20
REMARK                            x       y       z     vdW  Elec       q    Type
REMARK                         _______ _______ _______ _____ _____    ______ ____
ROOT
ATOM      1  C   UNL     1       5.531   5.888  16.255  0.00  0.00    +0.000 C 
ATOM      2  O   UNL     1       5.054   4.507  16.277  0.00  0.00    +0.000 OA
ATOM      3  C   UNL     1       4.181   4.458  17.356  0.00  0.00    +0.000 C 
ATOM      4  C   UNL     1       3.911   5.620  17.932  0.00  0.00    +0.000 C 
ATOM      5  C   UNL     1       3.000   5.759  19.067  0.00  0.00    +0.000 C 
ATOM      6  O   UNL     1       2.793   6.837  19.604  0.00  0.00    +0.000 OA
ATOM      7  C   UNL     1       2.323   4.522  19.530  0.00  0.00    +0.000 A 
ATOM      8  C   UNL     1       1.371   4.593  20.554  0.00  0.00    +0.000 A 
ATOM      9  C   UNL     1       0.747   3.428  21.011  0.00  0.00    +0.000 A 
ATOM     10  C   UNL     1       1.078   2.191  20.459  0.00  0.00    +0.000 A 
ATOM     11  C   UNL     1       2.020   2.119  19.430  0.00  0.00    +0.000 A 
ATOM     12  C   UNL     1       2.634   3.281  18.953  0.00  0.00    +0.000 A 
ATOM     13  C   UNL     1       3.592   3.187  17.829  0.00  0.00    +0.000 C 
ATOM     14  O   UNL     1       3.865   2.110  17.316  0.00  0.00    +0.000 OA
ATOM     15  C   UNL     1       4.699   6.688  17.293  0.00  0.00    +0.000 C 
ENDROOT
BRANCH   1  17
ATOM     16  C   UNL     1       7.535   4.708  17.317  0.00  0.00    +0.000 C 
ATOM     17  C   UNL     1       7.069   5.902  16.477  0.00  0.00    +0.000 C 
ATOM     18  C   UNL     1       7.490   7.204  17.179  0.00  0.00    +0.000 C 
BRANCH  17  19
ATOM     19  O   UNL     1       7.738   5.826  15.213  0.00  0.00    +0.000 OA
ATOM     20  H   UNL     1       8.640   5.494  15.370  0.00  0.00    +0.000 HD
ENDBRANCH  17  19
ENDBRANCH   1  17
BRANCH  15  21
ATOM     21  O   UNL     1       3.849   7.614  16.614  0.00  0.00    +0.000 OA
ATOM     22  H   UNL     1       4.273   7.868  15.777  0.00  0.00    +0.000 HD
ENDBRANCH  15  21
TORSDOF 3
ENDMDL
MODEL 3
REMARK VINA RESULT:      -6.8      1.951      5.769
REMARK  Name = 
REMARK  5 active torsions:
REMARK  status: ('A' for Active; 'I' for Inactive)
REMARK    1  A    between atoms: C_1  and  C_2
REMARK    2  A    between atoms: C_2  and  C_3
REMARK    3  A    between atoms: C_2  and  O_4
REMARK    4  A    between atoms: C_2  and  C_5
REMARK    5  A    between atoms: C_19  and  O_20
REMARK                            x       y       z     vdW  Elec       q    Type
REMARK                         _______ _______ _______ _____ _____    ______ ____
ROOT
ATOM      1  C   UNL     1       2.679   2.442  20.179  0.00  0.00    +0.000 C 
ATOM      2  O   UNL     1       2.467   2.389  18.734  0.00  0.00    +0.000 OA
ATOM      3  C   UNL     1       3.540   3.091  18.199  0.00  0.00    +0.000 C 
ATOM      4  C   UNL     1       4.480   3.451  19.062  0.00  0.00    +0.000 C 
ATOM      5  C   UNL     1       5.688   4.177  18.673  0.00  0.00    +0.000 C 
ATOM      6  O   UNL     1       6.524   4.529  19.492  0.00  0.00    +0.000 OA
ATOM      7  C   UNL     1       5.857   4.456  17.225  0.00  0.00    +0.000 A 
ATOM      8  C   UNL     1       7.030   5.069  16.769  0.00  0.00    +0.000 A 
ATOM      9  C   UNL     1       7.186   5.356  15.409  0.00  0.00    +0.000 A 
ATOM     10  C   UNL     1       6.172   5.045  14.505  0.00  0.00    +0.000 A 
ATOM     11  C   UNL     1       5.005   4.423  14.957  0.00  0.00    +0.000 A 
ATOM     12  C   UNL     1       4.849   4.115  16.311  0.00  0.00    +0.000 A 
ATOM     13  C   UNL     1       3.625   3.412  16.759  0.00  0.00    +0.000 C 
ATOM     14  O   UNL     1       2.744   3.105  15.968  0.00  0.00    +0.000 OA
ATOM     15  C   UNL     1       4.081   3.059  20.425  0.00  0.00    +0.000 C 
ENDROOT
BRANCH   1  17
ATOM     16  C   UNL     1       1.773   4.691  20.987  0.00  0.00    +0.000 C 
ATOM     17  C   UNL     1       1.491   3.192  20.844  0.00  0.00    +0.000 C 
ATOM     18  C   UNL     1       1.204   2.600  22.234  0.00  0.00    +0.000 C 
BRANCH  17  19
ATOM     19  O   UNL     1       0.319   3.050  20.034  0.00  0.00    +0.000 OA
ATOM     20  H   UNL     1      -0.296   2.452  20.498  0.00  0.00    +0.000 HD
ENDBRANCH  17  19
ENDBRANCH   1  17
BRANCH  15  21
ATOM     21  O   UNL     1       4.959   2.061  20.947  0.00  0.00    +0.000 OA
ATOM     22  H   UNL     1       4.479   1.543  21.614  0.00  0.00    +0.000 HD
ENDBRANCH  15  21
TORSDOF 3
ENDMDL
MODEL 4
REMARK VINA RESULT:      -6.7      1.611      2.625
REMARK  Name = 
REMARK  5 active torsions:
REMARK  status: ('A' for Active; 'I' for Inactive)
REMARK    1  A    between atoms: C_1  and  C_2
REMARK    2  A    between atoms: C_2  and  C_3
REMARK    3  A    between atoms: C_2  and  O_4
REMARK    4  A    between atoms: C_2  and  C_5
REMARK    5  A    between atoms: C_19  and  O_20
REMARK                            x       y       z     vdW  Elec       q    Type
REMARK                         _______ _______ _______ _____ _____    ______ ____
ROOT
ATOM      1  C   UNL     1       5.384   5.506  15.970  0.00  0.00    +0.000 C 
ATOM      2  O   UNL     1       4.811   4.169  16.112  0.00  0.00    +0.000 OA
ATOM      3  C   UNL     1       4.119   4.213  17.315  0.00  0.00    +0.000 C 
ATOM      4  C   UNL     1       4.033   5.406  17.887  0.00  0.00    +0.000 C 
ATOM      5  C   UNL     1       3.327   5.642  19.145  0.00  0.00    +0.000 C 
ATOM      6  O   UNL     1       3.291   6.744  19.671  0.00  0.00    +0.000 OA
ATOM      7  C   UNL     1       2.639   4.473  19.748  0.00  0.00    +0.000 A 
ATOM      8  C   UNL     1       1.869   4.643  20.906  0.00  0.00    +0.000 A 
ATOM      9  C   UNL     1       1.238   3.542  21.493  0.00  0.00    +0.000 A 
ATOM     10  C   UNL     1       1.381   2.271  20.938  0.00  0.00    +0.000 A 
ATOM     11  C   UNL     1       2.141   2.102  19.778  0.00  0.00    +0.000 A 
ATOM     12  C   UNL     1       2.759   3.200  19.173  0.00  0.00    +0.000 A 
ATOM     13  C   UNL     1       3.517   3.004  17.916  0.00  0.00    +0.000 C 
ATOM     14  O   UNL     1       3.621   1.898  17.403  0.00  0.00    +0.000 OA
ATOM     15  C   UNL     1       4.790   6.392  17.097  0.00  0.00    +0.000 C 
ENDROOT
BRANCH   1  17
ATOM     16  C   UNL     1       7.458   4.996  14.567  0.00  0.00    +0.000 C 
ATOM     17  C   UNL     1       6.934   5.400  15.949  0.00  0.00    +0.000 C 
ATOM     18  C   UNL     1       7.408   4.368  16.986  0.00  0.00    +0.000 C 
BRANCH  17  19
ATOM     19  O   UNL     1       7.508   6.671  16.272  0.00  0.00    +0.000 OA
ATOM     20  H   UNL     1       6.921   7.111  16.914  0.00  0.00    +0.000 HD
ENDBRANCH  17  19
ENDBRANCH   1  17
BRANCH  15  21
ATOM     21  O   UNL     1       3.918   7.370  16.529  0.00  0.00    +0.000 OA
ATOM     22  H   UNL     1       3.721   8.040  17.204  0.00  0.00    +0.000 HD
ENDBRANCH  15  21
TORSDOF 3
ENDMDL
MODEL 5
REMARK VINA RESULT:      -6.5      0.890      1.053
REMARK  Name = 
REMARK  5 active torsions:
REMARK  status: ('A' for Active; 'I' for Inactive)
REMARK    1  A    between atoms: C_1  and  C_2
REMARK    2  A    between atoms: C_2  and  C_3
REMARK    3  A    between atoms: C_2  and  O_4
REMARK    4  A    between atoms: C_2  and  C_5
REMARK    5  A    between atoms: C_19  and  O_20
REMARK                            x       y       z     vdW  Elec       q    Type
REMARK                         _______ _______ _______ _____ _____    ______ ____
ROOT
ATOM      1  C   UNL     1       6.070   5.168  16.716  0.00  0.00    +0.000 C 
ATOM      2  O   UNL     1       4.693   5.632  16.865  0.00  0.00    +0.000 OA
ATOM      3  C   UNL     1       4.171   4.850  17.887  0.00  0.00    +0.000 C 
ATOM      4  C   UNL     1       5.038   4.069  18.514  0.00  0.00    +0.000 C 
ATOM      5  C   UNL     1       4.669   3.194  19.626  0.00  0.00    +0.000 C 
ATOM      6  O   UNL     1       5.479   2.456  20.166  0.00  0.00    +0.000 OA
ATOM      7  C   UNL     1       3.257   3.257  20.079  0.00  0.00    +0.000 A 
ATOM      8  C   UNL     1       2.852   2.513  21.194  0.00  0.00    +0.000 A 
ATOM      9  C   UNL     1       1.518   2.549  21.612  0.00  0.00    +0.000 A 
ATOM     10  C   UNL     1       0.584   3.314  20.914  0.00  0.00    +0.000 A 
ATOM     11  C   UNL     1       0.988   4.064  19.807  0.00  0.00    +0.000 A 
ATOM     12  C   UNL     1       2.324   4.050  19.395  0.00  0.00    +0.000 A 
ATOM     13  C   UNL     1       2.738   4.892  18.250  0.00  0.00    +0.000 C 
ATOM     14  O   UNL     1       1.933   5.591  17.652  0.00  0.00    +0.000 OA
ATOM     15  C   UNL     1       6.364   4.189  17.884  0.00  0.00    +0.000 C 
ENDROOT
BRANCH   1  17
ATOM     16  C   UNL     1       7.549   5.096  14.633  0.00  0.00    +0.000 C 
ATOM     17  C   UNL     1       6.263   4.585  15.289  0.00  0.00    +0.000 C 
ATOM     18  C   UNL     1       5.064   4.956  14.399  0.00  0.00    +0.000 C 
BRANCH  17  19
ATOM     19  O   UNL     1       6.355   3.157  15.361  0.00  0.00    +0.000 OA
ATOM     20  H   UNL     1       5.855   2.863  16.143  0.00  0.00    +0.000 HD
ENDBRANCH  17  19
ENDBRANCH   1  17
BRANCH  15  21
ATOM     21  O   UNL     1       7.305   4.781  18.781  0.00  0.00    +0.000 OA
ATOM     22  H   UNL     1       6.903   4.831  19.663  0.00  0.00    +0.000 HD
ENDBRANCH  15  21
TORSDOF 3
ENDMDL
MODEL 6
REMARK VINA RESULT:      -6.5      1.345      1.653
REMARK  Name = 
REMARK  5 active torsions:
REMARK  status: ('A' for Active; 'I' for Inactive)
REMARK    1  A    between atoms: C_1  and  C_2
REMARK    2  A    between atoms: C_2  and  C_3
REMARK    3  A    between atoms: C_2  and  O_4
REMARK    4  A    between atoms: C_2  and  C_5
REMARK    5  A    between atoms: C_19  and  O_20
REMARK                            x       y       z     vdW  Elec       q    Type
REMARK                         _______ _______ _______ _____ _____    ______ ____
ROOT
ATOM      1  C   UNL     1       6.867   5.417  16.001  0.00  0.00    +0.000 C 
ATOM      2  O   UNL     1       5.962   6.490  16.403  0.00  0.00    +0.000 OA
ATOM      3  C   UNL     1       5.174   5.925  17.398  0.00  0.00    +0.000 C 
ATOM      4  C   UNL     1       5.532   4.714  17.798  0.00  0.00    +0.000 C 
ATOM      5  C   UNL     1       4.829   3.976  18.847  0.00  0.00    +0.000 C 
ATOM      6  O   UNL     1       5.157   2.846  19.175  0.00  0.00    +0.000 OA
ATOM      7  C   UNL     1       3.701   4.679  19.509  0.00  0.00    +0.000 A 
ATOM      8  C   UNL     1       3.039   4.069  20.582  0.00  0.00    +0.000 A 
ATOM      9  C   UNL     1       1.960   4.714  21.195  0.00  0.00    +0.000 A 
ATOM     10  C   UNL     1       1.532   5.959  20.734  0.00  0.00    +0.000 A 
ATOM     11  C   UNL     1       2.198   6.572  19.670  0.00  0.00    +0.000 A 
ATOM     12  C   UNL     1       3.290   5.944  19.065  0.00  0.00    +0.000 A 
ATOM     13  C   UNL     1       4.011   6.635  17.972  0.00  0.00    +0.000 C 
ATOM     14  O   UNL     1       3.663   7.742  17.582  0.00  0.00    +0.000 OA
ATOM     15  C   UNL     1       6.672   4.241  16.995  0.00  0.00    +0.000 C 
ENDROOT
BRANCH   1  17
ATOM     16  C   UNL     1       6.206   3.614  14.313  0.00  0.00    +0.000 C 
ATOM     17  C   UNL     1       6.624   5.076  14.504  0.00  0.00    +0.000 C 
ATOM     18  C   UNL     1       7.899   5.344  13.686  0.00  0.00    +0.000 C 
BRANCH  17  19
ATOM     19  O   UNL     1       5.569   5.896  13.989  0.00  0.00    +0.000 OA
ATOM     20  H   UNL     1       4.747   5.654  14.453  0.00  0.00    +0.000 HD
ENDBRANCH  17  19
ENDBRANCH   1  17
BRANCH  15  21
ATOM     21  O   UNL     1       7.842   4.097  17.802  0.00  0.00    +0.000 OA
ATOM     22  H   UNL     1       7.635   3.506  18.545  0.00  0.00    +0.000 HD
ENDBRANCH  15  21
TORSDOF 3
ENDMDL
MODEL 7
REMARK VINA RESULT:      -6.5      1.407      1.762
REMARK  Name = 
REMARK  5 active torsions:
REMARK  status: ('A' for Active; 'I' for Inactive)
REMARK    1  A    between atoms: C_1  and  C_2
REMARK    2  A    between atoms: C_2  and  C_3
REMARK    3  A    between atoms: C_2  and  O_4
REMARK    4  A    between atoms: C_2  and  C_5
REMARK    5  A    between atoms: C_19  and  O_20
REMARK                            x       y       z     vdW  Elec       q    Type
REMARK                         _______ _______ _______ _____ _____    ______ ____
ROOT
ATOM      1  C   UNL     1       6.871   5.248  15.902  0.00  0.00    +0.000 C 
ATOM      2  O   UNL     1       5.970   6.355  16.209  0.00  0.00    +0.000 OA
ATOM      3  C   UNL     1       5.183   5.884  17.253  0.00  0.00    +0.000 C 
ATOM      4  C   UNL     1       5.540   4.712  17.759  0.00  0.00    +0.000 C 
ATOM      5  C   UNL     1       4.839   4.074  18.872  0.00  0.00    +0.000 C 
ATOM      6  O   UNL     1       5.165   2.976  19.299  0.00  0.00    +0.000 OA
ATOM      7  C   UNL     1       3.715   4.835  19.472  0.00  0.00    +0.000 A 
ATOM      8  C   UNL     1       3.055   4.327  20.597  0.00  0.00    +0.000 A 
ATOM      9  C   UNL     1       1.980   5.027  21.154  0.00  0.00    +0.000 A 
ATOM     10  C   UNL     1       1.553   6.226  20.584  0.00  0.00    +0.000 A 
ATOM     11  C   UNL     1       2.217   6.740  19.467  0.00  0.00    +0.000 A 
ATOM     12  C   UNL     1       3.305   6.057  18.918  0.00  0.00    +0.000 A 
ATOM     13  C   UNL     1       4.024   6.646  17.765  0.00  0.00    +0.000 C 
ATOM     14  O   UNL     1       3.678   7.714  17.279  0.00  0.00    +0.000 OA
ATOM     15  C   UNL     1       6.677   4.167  16.997  0.00  0.00    +0.000 C 
ENDROOT
BRANCH   1  17
ATOM     16  C   UNL     1       7.757   5.195  13.505  0.00  0.00    +0.000 C 
ATOM     17  C   UNL     1       6.622   4.775  14.442  0.00  0.00    +0.000 C 
ATOM     18  C   UNL     1       5.297   5.355  13.918  0.00  0.00    +0.000 C 
BRANCH  17  19
ATOM     19  O   UNL     1       6.541   3.345  14.407  0.00  0.00    +0.000 OA
ATOM     20  H   UNL     1       7.278   2.990  14.937  0.00  0.00    +0.000 HD
ENDBRANCH  17  19
ENDBRANCH   1  17
BRANCH  15  21
ATOM     21  O   UNL     1       7.849   4.092  17.811  0.00  0.00    +0.000 OA
ATOM     22  H   UNL     1       8.365   4.905  17.685  0.00  0.00    +0.000 HD
ENDBRANCH  15  21
TORSDOF 3
ENDMDL
MODEL 8
REMARK VINA RESULT:      -6.4      3.540      5.751
REMARK  Name = 
REMARK  5 active torsions:
REMARK  status: ('A' for Active; 'I' for Inactive)
REMARK    1  A    between atoms: C_1  and  C_2
REMARK    2  A    between atoms: C_2  and  C_3
REMARK    3  A    between atoms: C_2  and  O_4
REMARK    4  A    between atoms: C_2  and  C_5
REMARK    5  A    between atoms: C_19  and  O_20
REMARK                            x       y       z     vdW  Elec       q    Type
REMARK                         _______ _______ _______ _____ _____    ______ ____
ROOT
ATOM      1  C   UNL     1       2.647   4.520  19.163  0.00  0.00    +0.000 C 
ATOM      2  O   UNL     1       3.084   5.571  18.247  0.00  0.00    +0.000 OA
ATOM      3  C   UNL     1       2.491   6.728  18.736  0.00  0.00    +0.000 C 
ATOM      4  C   UNL     1       1.871   6.608  19.901  0.00  0.00    +0.000 C 
ATOM      5  C   UNL     1       1.208   7.725  20.574  0.00  0.00    +0.000 C 
ATOM      6  O   UNL     1       0.613   7.582  21.632  0.00  0.00    +0.000 OA
ATOM      7  C   UNL     1       1.308   9.050  19.913  0.00  0.00    +0.000 A 
ATOM      8  C   UNL     1       0.774  10.181  20.544  0.00  0.00    +0.000 A 
ATOM      9  C   UNL     1       0.843  11.429  19.916  0.00  0.00    +0.000 A 
ATOM     10  C   UNL     1       1.431  11.551  18.658  0.00  0.00    +0.000 A 
ATOM     11  C   UNL     1       1.973  10.425  18.032  0.00  0.00    +0.000 A 
ATOM     12  C   UNL     1       1.926   9.178  18.661  0.00  0.00    +0.000 A 
ATOM     13  C   UNL     1       2.551   8.009  18.002  0.00  0.00    +0.000 C 
ATOM     14  O   UNL     1       3.099   8.112  16.912  0.00  0.00    +0.000 OA
ATOM     15  C   UNL     1       1.915   5.205  20.347  0.00  0.00    +0.000 C 
ENDROOT
BRANCH   1  17
ATOM     16  C   UNL     1       0.773   2.785  19.269  0.00  0.00    +0.000 C 
ATOM     17  C   UNL     1       1.812   3.471  18.377  0.00  0.00    +0.000 C 
ATOM     18  C   UNL     1       2.739   2.401  17.775  0.00  0.00    +0.000 C 
BRANCH  17  19
ATOM     19  O   UNL     1       1.106   4.117  17.312  0.00  0.00    +0.000 OA
ATOM     20  H   UNL     1       0.218   4.351  17.638  0.00  0.00    +0.000 HD
ENDBRANCH  17  19
ENDBRANCH   1  17
BRANCH  15  21
ATOM     21  O   UNL     1       2.696   5.071  21.536  0.00  0.00    +0.000 OA
ATOM     22  H   UNL     1       3.444   4.479  21.350  0.00  0.00    +0.000 HD
ENDBRANCH  15  21
TORSDOF 3
ENDMDL
MODEL 9
REMARK VINA RESULT:      -6.3      4.728      7.083
REMARK  Name = 
REMARK  5 active torsions:
REMARK  status: ('A' for Active; 'I' for Inactive)
REMARK    1  A    between atoms: C_1  and  C_2
REMARK    2  A    between atoms: C_2  and  C_3
REMARK    3  A    between atoms: C_2  and  O_4
REMARK    4  A    between atoms: C_2  and  C_5
REMARK    5  A    between atoms: C_19  and  O_20
REMARK                            x       y       z     vdW  Elec       q    Type
REMARK                         _______ _______ _______ _____ _____    ______ ____
ROOT
ATOM      1  C   UNL     1       0.349  11.441  18.998  0.00  0.00    +0.000 C 
ATOM      2  O   UNL     1       0.289  10.572  20.171  0.00  0.00    +0.000 OA
ATOM      3  C   UNL     1       0.961   9.419  19.783  0.00  0.00    +0.000 C 
ATOM      4  C   UNL     1       1.568   9.474  18.607  0.00  0.00    +0.000 C 
ATOM      5  C   UNL     1       2.337   8.363  18.049  0.00  0.00    +0.000 C 
ATOM      6  O   UNL     1       2.859   8.425  16.946  0.00  0.00    +0.000 OA
ATOM      7  C   UNL     1       2.465   7.153  18.899  0.00  0.00    +0.000 A 
ATOM      8  C   UNL     1       3.259   6.083  18.469  0.00  0.00    +0.000 A 
ATOM      9  C   UNL     1       3.366   4.931  19.254  0.00  0.00    +0.000 A 
ATOM     10  C   UNL     1       2.673   4.836  20.460  0.00  0.00    +0.000 A 
ATOM     11  C   UNL     1       1.888   5.907  20.896  0.00  0.00    +0.000 A 
ATOM     12  C   UNL     1       1.792   7.070  20.127  0.00  0.00    +0.000 A 
ATOM     13  C   UNL     1       0.994   8.210  20.633  0.00  0.00    +0.000 C 
ATOM     14  O   UNL     1       0.409   8.149  21.706  0.00  0.00    +0.000 OA
ATOM     15  C   UNL     1       1.294  10.772  17.966  0.00  0.00    +0.000 C 
ENDROOT
BRANCH   1  17
ATOM     16  C   UNL     1      -2.032  12.105  19.649  0.00  0.00    +0.000 C 
ATOM     17  C   UNL     1      -1.095  11.726  18.498  0.00  0.00    +0.000 C 
ATOM     18  C   UNL     1      -1.658  10.490  17.778  0.00  0.00    +0.000 C 
BRANCH  17  19
ATOM     19  O   UNL     1      -1.077  12.824  17.578  0.00  0.00    +0.000 OA
ATOM     20  H   UNL     1      -1.959  13.238  17.588  0.00  0.00    +0.000 HD
ENDBRANCH  17  19
ENDBRANCH   1  17
BRANCH  15  21
ATOM     21  O   UNL     1       2.490  11.543  17.840  0.00  0.00    +0.000 OA
ATOM     22  H   UNL     1       3.251  10.965  18.013  0.00  0.00    +0.000 HD
ENDBRANCH  15  21
TORSDOF 3
ENDMDL
