MODEL 1
REMARK VINA RESULT:      -7.0      0.000      0.000
REMARK  Name = 
REMARK  8 active torsions:
REMARK  status: ('A' for Active; 'I' for Inactive)
REMARK    1  A    between atoms: C_1  and  C_2
REMARK    2  A    between atoms: C_2  and  C_3
REMARK    3  A    between atoms: C_5  and  S_6
REMARK    4  A    between atoms: S_6  and  C_7
REMARK    5  A    between atoms: C_7  and  C_8
REMARK    6  A    between atoms: C_8  and  O_10
REMARK    7  A    between atoms: C_19  and  C_20
REMARK    8  A    between atoms: C_19  and  C_21
REMARK                            x       y       z     vdW  Elec       q    Type
REMARK                         _______ _______ _______ _____ _____    ______ ____
ROOT
ATOM      1  C   UNL     1       1.870   3.448  18.305  0.00  0.00    +0.000 A 
ATOM      2  N   UNL     1       1.840   4.674  18.879  0.00  0.00    +0.000 NA
ATOM      3  C   UNL     1       2.854   5.525  18.602  0.00  0.00    +0.000 A 
ATOM      4  C   UNL     1       3.942   5.112  17.813  0.00  0.00    +0.000 A 
ATOM      5  C   UNL     1       5.200   5.696  17.415  0.00  0.00    +0.000 A 
ATOM      6  C   UNL     1       5.920   4.882  16.558  0.00  0.00    +0.000 A 
ATOM      7  S   UNL     1       5.136   3.401  16.281  0.00  0.00    +0.000 S 
ATOM      8  C   UNL     1       3.828   3.834  17.289  0.00  0.00    +0.000 A 
ATOM      9  N   UNL     1       2.823   2.975  17.496  0.00  0.00    +0.000 NA
ATOM     10  C   UNL     1       7.267   5.200  15.992  0.00  0.00    +0.000 C 
ATOM     11  O   UNL     1       7.599   6.579  16.253  0.00  0.00    +0.000 OA
ATOM     12  C   UNL     1       7.302   7.056  17.582  0.00  0.00    +0.000 C 
ATOM     13  C   UNL     1       8.078   6.268  18.652  0.00  0.00    +0.000 C 
ATOM     14  C   UNL     1       7.754   8.523  17.641  0.00  0.00    +0.000 C 
ATOM     15  C   UNL     1       5.775   7.017  17.822  0.00  0.00    +0.000 C 
ENDROOT
BRANCH   1  17
ATOM     16  C   UNL     1       0.348   2.639  20.106  0.00  0.00    +0.000 C 
ATOM     17  C   UNL     1       0.750   2.500  18.647  0.00  0.00    +0.000 C 
ENDBRANCH   1  17
BRANCH   3  18
ATOM     18  S   UNL     1       2.762   7.204  19.163  0.00  0.00    +0.000 S 
BRANCH  18  19
ATOM     19  C   UNL     1       2.142   8.079  17.708  0.00  0.00    +0.000 C 
BRANCH  19  20
ATOM     20  C   UNL     1       1.517   9.407  18.056  0.00  0.00    +0.000 C 
ATOM     21  O   UNL     1       0.656   9.567  18.915  0.00  0.00    +0.000 OA
BRANCH  20  22
ATOM     22  O   UNL     1       2.006  10.441  17.327  0.00  0.00    +0.000 OA
ATOM     23  H   UNL     1       2.206  11.223  17.892  0.00  0.00    +0.000 HD
ENDBRANCH  20  22
ENDBRANCH  19  20
ENDBRANCH  18  19
ENDBRANCH   3  18
TORSDOF 5
ENDMDL
MODEL 2
REMARK VINA RESULT:      -6.7      1.204      1.455
REMARK  Name = 
REMARK  8 active torsions:
REMARK  status: ('A' for Active; 'I' for Inactive)
REMARK    1  A    between atoms: C_1  and  C_2
REMARK    2  A    between atoms: C_2  and  C_3
REMARK    3  A    between atoms: C_5  and  S_6
REMARK    4  A    between atoms: S_6  and  C_7
REMARK    5  A    between atoms: C_7  and  C_8
REMARK    6  A    between atoms: C_8  and  O_10
REMARK    7  A    between atoms: C_19  and  C_20
REMARK    8  A    between atoms: C_19  and  C_21
REMARK                            x       y       z     vdW  Elec       q    Type
REMARK                         _______ _______ _______ _____ _____    ______ ____
ROOT
ATOM      1  C   UNL     1       1.867   3.528  18.192  0.00  0.00    +0.000 A 
ATOM      2  N   UNL     1       1.797   4.781  18.700  0.00  0.00    +0.000 NA
ATOM      3  C   UNL     1       2.815   5.630  18.430  0.00  0.00    +0.000 A 
ATOM      4  C   UNL     1       3.944   5.192  17.718  0.00  0.00    +0.000 A 
ATOM      5  C   UNL     1       5.214   5.772  17.352  0.00  0.00    +0.000 A 
ATOM      6  C   UNL     1       5.983   4.925  16.574  0.00  0.00    +0.000 A 
ATOM      7  S   UNL     1       5.229   3.422  16.334  0.00  0.00    +0.000 S 
ATOM      8  C   UNL     1       3.869   3.888  17.254  0.00  0.00    +0.000 A 
ATOM      9  N   UNL     1       2.864   3.028  17.455  0.00  0.00    +0.000 NA
ATOM     10  C   UNL     1       7.353   5.231  16.058  0.00  0.00    +0.000 C 
ATOM     11  O   UNL     1       7.659   6.626  16.265  0.00  0.00    +0.000 OA
ATOM     12  C   UNL     1       7.291   7.165  17.553  0.00  0.00    +0.000 C 
ATOM     13  C   UNL     1       8.021   6.441  18.697  0.00  0.00    +0.000 C 
ATOM     14  C   UNL     1       7.724   8.638  17.559  0.00  0.00    +0.000 C 
ATOM     15  C   UNL     1       5.755   7.118  17.720  0.00  0.00    +0.000 C 
ENDROOT
BRANCH   1  17
ATOM     16  C   UNL     1       0.731   2.257  20.010  0.00  0.00    +0.000 C 
ATOM     17  C   UNL     1       0.741   2.584  18.526  0.00  0.00    +0.000 C 
ENDBRANCH   1  17
BRANCH   3  18
ATOM     18  S   UNL     1       2.678   7.334  18.900  0.00  0.00    +0.000 S 
BRANCH  18  19
ATOM     19  C   UNL     1       1.777   7.247  20.465  0.00  0.00    +0.000 C 
BRANCH  19  20
ATOM     20  C   UNL     1       1.341   8.605  20.955  0.00  0.00    +0.000 C 
ATOM     21  O   UNL     1       0.668   9.398  20.305  0.00  0.00    +0.000 OA
BRANCH  20  22
ATOM     22  O   UNL     1       1.758   8.882  22.217  0.00  0.00    +0.000 OA
ATOM     23  H   UNL     1       2.442   9.591  22.227  0.00  0.00    +0.000 HD
ENDBRANCH  20  22
ENDBRANCH  19  20
ENDBRANCH  18  19
ENDBRANCH   3  18
TORSDOF 5
ENDMDL
MODEL 3
REMARK VINA RESULT:      -6.6      3.747      5.887
REMARK  Name = 
REMARK  8 active torsions:
REMARK  status: ('A' for Active; 'I' for Inactive)
REMARK    1  A    between atoms: C_1  and  C_2
REMARK    2  A    between atoms: C_2  and  C_3
REMARK    3  A    between atoms: C_5  and  S_6
REMARK    4  A    between atoms: S_6  and  C_7
REMARK    5  A    between atoms: C_7  and  C_8
REMARK    6  A    between atoms: C_8  and  O_10
REMARK    7  A    between atoms: C_19  and  C_20
REMARK    8  A    between atoms: C_19  and  C_21
REMARK                            x       y       z     vdW  Elec       q    Type
REMARK                         _______ _______ _______ _____ _____    ______ ____
ROOT
ATOM      1  C   UNL     1       2.184   9.622  18.215  0.00  0.00    +0.000 A 
ATOM      2  N   UNL     1       1.481   9.427  19.355  0.00  0.00    +0.000 NA
ATOM      3  C   UNL     1       1.558   8.211  19.944  0.00  0.00    +0.000 A 
ATOM      4  C   UNL     1       2.277   7.166  19.339  0.00  0.00    +0.000 A 
ATOM      5  C   UNL     1       2.480   5.764  19.619  0.00  0.00    +0.000 A 
ATOM      6  C   UNL     1       3.348   5.162  18.725  0.00  0.00    +0.000 A 
ATOM      7  S   UNL     1       3.867   6.239  17.519  0.00  0.00    +0.000 S 
ATOM      8  C   UNL     1       2.952   7.518  18.180  0.00  0.00    +0.000 A 
ATOM      9  N   UNL     1       2.943   8.718  17.587  0.00  0.00    +0.000 NA
ATOM     10  C   UNL     1       3.739   3.718  18.741  0.00  0.00    +0.000 C 
ATOM     11  O   UNL     1       3.292   3.098  19.965  0.00  0.00    +0.000 OA
ATOM     12  C   UNL     1       1.953   3.435  20.387  0.00  0.00    +0.000 C 
ATOM     13  C   UNL     1       0.908   3.010  19.340  0.00  0.00    +0.000 C 
ATOM     14  C   UNL     1       1.684   2.655  21.681  0.00  0.00    +0.000 C 
ATOM     15  C   UNL     1       1.871   4.944  20.713  0.00  0.00    +0.000 C 
ENDROOT
BRANCH   1  17
ATOM     16  C   UNL     1       1.865  12.066  18.590  0.00  0.00    +0.000 C 
ATOM     17  C   UNL     1       2.065  10.971  17.554  0.00  0.00    +0.000 C 
ENDBRANCH   1  17
BRANCH   3  18
ATOM     18  S   UNL     1       0.823   7.965  21.538  0.00  0.00    +0.000 S 
BRANCH  18  19
ATOM     19  C   UNL     1      -0.302   9.372  21.682  0.00  0.00    +0.000 C 
BRANCH  19  20
ATOM     20  C   UNL     1      -0.384   9.905  23.090  0.00  0.00    +0.000 C 
ATOM     21  O   UNL     1       0.416   9.641  23.982  0.00  0.00    +0.000 OA
BRANCH  20  22
ATOM     22  O   UNL     1      -1.441  10.731  23.294  0.00  0.00    +0.000 OA
ATOM     23  H   UNL     1      -2.234  10.237  23.606  0.00  0.00    +0.000 HD
ENDBRANCH  20  22
ENDBRANCH  19  20
ENDBRANCH  18  19
ENDBRANCH   3  18
TORSDOF 5
ENDMDL
MODEL 4
REMARK VINA RESULT:      -6.5      3.176      6.120
REMARK  Name = 
REMARK  8 active torsions:
REMARK  status: ('A' for Active; 'I' for Inactive)
REMARK    1  A    between atoms: C_1  and  C_2
REMARK    2  A    between atoms: C_2  and  C_3
REMARK    3  A    between atoms: C_5  and  S_6
REMARK    4  A    between atoms: S_6  and  C_7
REMARK    5  A    between atoms: C_7  and  C_8
REMARK    6  A    between atoms: C_8  and  O_10
REMARK    7  A    between atoms: C_19  and  C_20
REMARK    8  A    between atoms: C_19  and  C_21
REMARK                            x       y       z     vdW  Elec       q    Type
REMARK                         _______ _______ _______ _____ _____    ______ ____
ROOT
ATOM      1  C   UNL     1       4.816   5.110  17.917  0.00  0.00    +0.000 A 
ATOM      2  N   UNL     1       4.278   4.504  19.002  0.00  0.00    +0.000 NA
ATOM      3  C   UNL     1       3.269   5.136  19.644  0.00  0.00    +0.000 A 
ATOM      4  C   UNL     1       2.857   6.418  19.243  0.00  0.00    +0.000 A 
ATOM      5  C   UNL     1       1.920   7.397  19.742  0.00  0.00    +0.000 A 
ATOM      6  C   UNL     1       1.835   8.515  18.932  0.00  0.00    +0.000 A 
ATOM      7  S   UNL     1       2.912   8.435  17.621  0.00  0.00    +0.000 S 
ATOM      8  C   UNL     1       3.493   6.907  18.112  0.00  0.00    +0.000 A 
ATOM      9  N   UNL     1       4.461   6.299  17.418  0.00  0.00    +0.000 NA
ATOM     10  C   UNL     1       0.971   9.708  19.194  0.00  0.00    +0.000 C 
ATOM     11  O   UNL     1       0.048   9.423  20.266  0.00  0.00    +0.000 OA
ATOM     12  C   UNL     1       0.603   8.734  21.407  0.00  0.00    +0.000 C 
ATOM     13  C   UNL     1       1.721   9.556  22.073  0.00  0.00    +0.000 C 
ATOM     14  C   UNL     1      -0.536   8.559  22.420  0.00  0.00    +0.000 C 
ATOM     15  C   UNL     1       1.087   7.328  20.984  0.00  0.00    +0.000 C 
ENDROOT
BRANCH   1  17
ATOM     16  C   UNL     1       7.288   4.800  17.856  0.00  0.00    +0.000 C 
ATOM     17  C   UNL     1       5.959   4.409  17.231  0.00  0.00    +0.000 C 
ENDBRANCH   1  17
BRANCH   3  18
ATOM     18  S   UNL     1       2.400   4.298  20.941  0.00  0.00    +0.000 S 
BRANCH  18  19
ATOM     19  C   UNL     1       0.908   3.708  20.108  0.00  0.00    +0.000 C 
BRANCH  19  20
ATOM     20  C   UNL     1       1.214   2.980  18.824  0.00  0.00    +0.000 C 
ATOM     21  O   UNL     1       1.122   3.473  17.704  0.00  0.00    +0.000 OA
BRANCH  20  22
ATOM     22  O   UNL     1       1.619   1.699  19.014  0.00  0.00    +0.000 OA
ATOM     23  H   UNL     1       2.132   1.361  18.244  0.00  0.00    +0.000 HD
ENDBRANCH  20  22
ENDBRANCH  19  20
ENDBRANCH  18  19
ENDBRANCH   3  18
TORSDOF 5
ENDMDL
MODEL 5
REMARK VINA RESULT:      -6.4      3.193      6.251
REMARK  Name = 
REMARK  8 active torsions:
REMARK  status: ('A' for Active; 'I' for Inactive)
REMARK    1  A    between atoms: C_1  and  C_2
REMARK    2  A    between atoms: C_2  and  C_3
REMARK    3  A    between atoms: C_5  and  S_6
REMARK    4  A    between atoms: S_6  and  C_7
REMARK    5  A    between atoms: C_7  and  C_8
REMARK    6  A    between atoms: C_8  and  O_10
REMARK    7  A    between atoms: C_19  and  C_20
REMARK    8  A    between atoms: C_19  and  C_21
REMARK                            x       y       z     vdW  Elec       q    Type
REMARK                         _______ _______ _______ _____ _____    ______ ____
ROOT
ATOM      1  C   UNL     1       4.441   5.475  17.768  0.00  0.00    +0.000 A 
ATOM      2  N   UNL     1       3.986   4.846  18.877  0.00  0.00    +0.000 NA
ATOM      3  C   UNL     1       3.028   5.463  19.606  0.00  0.00    +0.000 A 
ATOM      4  C   UNL     1       2.587   6.753  19.264  0.00  0.00    +0.000 A 
ATOM      5  C   UNL     1       1.691   7.720  19.852  0.00  0.00    +0.000 A 
ATOM      6  C   UNL     1       1.546   8.855  19.074  0.00  0.00    +0.000 A 
ATOM      7  S   UNL     1       2.522   8.803  17.684  0.00  0.00    +0.000 S 
ATOM      8  C   UNL     1       3.137   7.266  18.099  0.00  0.00    +0.000 A 
ATOM      9  N   UNL     1       4.050   6.674  17.321  0.00  0.00    +0.000 NA
ATOM     10  C   UNL     1       0.705  10.041  19.424  0.00  0.00    +0.000 C 
ATOM     11  O   UNL     1      -0.136   9.733  20.556  0.00  0.00    +0.000 OA
ATOM     12  C   UNL     1       0.503   9.022  21.638  0.00  0.00    +0.000 C 
ATOM     13  C   UNL     1       1.668   9.831  22.236  0.00  0.00    +0.000 C 
ATOM     14  C   UNL     1      -0.558   8.824  22.730  0.00  0.00    +0.000 C 
ATOM     15  C   UNL     1       0.953   7.625  21.150  0.00  0.00    +0.000 C 
ENDROOT
BRANCH   1  17
ATOM     16  C   UNL     1       5.606   5.339  15.569  0.00  0.00    +0.000 C 
ATOM     17  C   UNL     1       5.529   4.789  16.984  0.00  0.00    +0.000 C 
ENDBRANCH   1  17
BRANCH   3  18
ATOM     18  S   UNL     1       2.257   4.598  20.947  0.00  0.00    +0.000 S 
BRANCH  18  19
ATOM     19  C   UNL     1       0.843   3.803  20.151  0.00  0.00    +0.000 C 
BRANCH  19  20
ATOM     20  C   UNL     1       1.251   2.905  19.010  0.00  0.00    +0.000 C 
ATOM     21  O   UNL     1       1.628   1.745  19.136  0.00  0.00    +0.000 OA
BRANCH  20  22
ATOM     22  O   UNL     1       1.157   3.502  17.794  0.00  0.00    +0.000 OA
ATOM     23  H   UNL     1       1.988   3.407  17.276  0.00  0.00    +0.000 HD
ENDBRANCH  20  22
ENDBRANCH  19  20
ENDBRANCH  18  19
ENDBRANCH   3  18
TORSDOF 5
ENDMDL
MODEL 6
REMARK VINA RESULT:      -6.3      1.899      5.555
REMARK  Name = 
REMARK  8 active torsions:
REMARK  status: ('A' for Active; 'I' for Inactive)
REMARK    1  A    between atoms: C_1  and  C_2
REMARK    2  A    between atoms: C_2  and  C_3
REMARK    3  A    between atoms: C_5  and  S_6
REMARK    4  A    between atoms: S_6  and  C_7
REMARK    5  A    between atoms: C_7  and  C_8
REMARK    6  A    between atoms: C_8  and  O_10
REMARK    7  A    between atoms: C_19  and  C_20
REMARK    8  A    between atoms: C_19  and  C_21
REMARK                            x       y       z     vdW  Elec       q    Type
REMARK                         _______ _______ _______ _____ _____    ______ ____
ROOT
ATOM      1  C   UNL     1       3.429   3.588  18.657  0.00  0.00    +0.000 A 
ATOM      2  N   UNL     1       3.983   4.344  17.681  0.00  0.00    +0.000 NA
ATOM      3  C   UNL     1       3.776   5.680  17.722  0.00  0.00    +0.000 A 
ATOM      4  C   UNL     1       2.940   6.245  18.700  0.00  0.00    +0.000 A 
ATOM      5  C   UNL     1       2.428   7.568  18.973  0.00  0.00    +0.000 A 
ATOM      6  C   UNL     1       1.664   7.618  20.125  0.00  0.00    +0.000 A 
ATOM      7  S   UNL     1       1.499   6.088  20.845  0.00  0.00    +0.000 S 
ATOM      8  C   UNL     1       2.450   5.348  19.637  0.00  0.00    +0.000 A 
ATOM      9  N   UNL     1       2.667   4.028  19.664  0.00  0.00    +0.000 NA
ATOM     10  C   UNL     1       0.982   8.838  20.657  0.00  0.00    +0.000 C 
ATOM     11  O   UNL     1       1.440  10.008  19.948  0.00  0.00    +0.000 OA
ATOM     12  C   UNL     1       1.548   9.873  18.515  0.00  0.00    +0.000 C 
ATOM     13  C   UNL     1       0.188   9.546  17.874  0.00  0.00    +0.000 C 
ATOM     14  C   UNL     1       2.024  11.228  17.973  0.00  0.00    +0.000 C 
ATOM     15  C   UNL     1       2.624   8.816  18.170  0.00  0.00    +0.000 C 
ENDROOT
BRANCH   1  17
ATOM     16  C   UNL     1       4.480   1.611  19.752  0.00  0.00    +0.000 C 
ATOM     17  C   UNL     1       3.643   2.098  18.581  0.00  0.00    +0.000 C 
ENDBRANCH   1  17
BRANCH   3  18
ATOM     18  S   UNL     1       4.642   6.733  16.590  0.00  0.00    +0.000 S 
BRANCH  18  19
ATOM     19  C   UNL     1       6.370   6.494  17.061  0.00  0.00    +0.000 C 
BRANCH  19  20
ATOM     20  C   UNL     1       7.022   5.362  16.307  0.00  0.00    +0.000 C 
ATOM     21  O   UNL     1       7.550   5.470  15.206  0.00  0.00    +0.000 OA
BRANCH  20  22
ATOM     22  O   UNL     1       6.983   4.179  16.972  0.00  0.00    +0.000 OA
ATOM     23  H   UNL     1       6.216   4.133  17.589  0.00  0.00    +0.000 HD
ENDBRANCH  20  22
ENDBRANCH  19  20
ENDBRANCH  18  19
ENDBRANCH   3  18
TORSDOF 5
ENDMDL
MODEL 7
REMARK VINA RESULT:      -6.1      3.684      5.918
REMARK  Name = 
REMARK  8 active torsions:
REMARK  status: ('A' for Active; 'I' for Inactive)
REMARK    1  A    between atoms: C_1  and  C_2
REMARK    2  A    between atoms: C_2  and  C_3
REMARK    3  A    between atoms: C_5  and  S_6
REMARK    4  A    between atoms: S_6  and  C_7
REMARK    5  A    between atoms: C_7  and  C_8
REMARK    6  A    between atoms: C_8  and  O_10
REMARK    7  A    between atoms: C_19  and  C_20
REMARK    8  A    between atoms: C_19  and  C_21
REMARK                            x       y       z     vdW  Elec       q    Type
REMARK                         _______ _______ _______ _____ _____    ______ ____
ROOT
ATOM      1  C   UNL     1       1.557  10.188  18.521  0.00  0.00    +0.000 A 
ATOM      2  N   UNL     1       1.010   9.802  19.698  0.00  0.00    +0.000 NA
ATOM      3  C   UNL     1       1.303   8.562  20.153  0.00  0.00    +0.000 A 
ATOM      4  C   UNL     1       2.080   7.680  19.383  0.00  0.00    +0.000 A 
ATOM      5  C   UNL     1       2.488   6.301  19.502  0.00  0.00    +0.000 A 
ATOM      6  C   UNL     1       3.325   5.901  18.476  0.00  0.00    +0.000 A 
ATOM      7  S   UNL     1       3.572   7.138  17.338  0.00  0.00    +0.000 S 
ATOM      8  C   UNL     1       2.577   8.219  18.206  0.00  0.00    +0.000 A 
ATOM      9  N   UNL     1       2.353   9.453  17.738  0.00  0.00    +0.000 NA
ATOM     10  C   UNL     1       3.895   4.528  18.311  0.00  0.00    +0.000 C 
ATOM     11  O   UNL     1       3.663   3.750  19.504  0.00  0.00    +0.000 OA
ATOM     12  C   UNL     1       2.345   3.864  20.082  0.00  0.00    +0.000 C 
ATOM     13  C   UNL     1       1.256   3.392  19.101  0.00  0.00    +0.000 C 
ATOM     14  C   UNL     1       2.316   2.946  21.312  0.00  0.00    +0.000 C 
ATOM     15  C   UNL     1       2.107   5.314  20.562  0.00  0.00    +0.000 C 
ENDROOT
BRANCH   1  17
ATOM     16  C   UNL     1      -0.023  12.104  18.736  0.00  0.00    +0.000 C 
ATOM     17  C   UNL     1       1.197  11.560  18.011  0.00  0.00    +0.000 C 
ENDBRANCH   1  17
BRANCH   3  18
ATOM     18  S   UNL     1       0.779   8.083  21.777  0.00  0.00    +0.000 S 
BRANCH  18  19
ATOM     19  C   UNL     1      -0.632   9.171  22.081  0.00  0.00    +0.000 C 
BRANCH  19  20
ATOM     20  C   UNL     1      -0.388  10.129  23.219  0.00  0.00    +0.000 C 
ATOM     21  O   UNL     1      -0.697  11.316  23.210  0.00  0.00    +0.000 OA
BRANCH  20  22
ATOM     22  O   UNL     1       0.212   9.551  24.291  0.00  0.00    +0.000 OA
ATOM     23  H   UNL     1       0.489   8.626  24.098  0.00  0.00    +0.000 HD
ENDBRANCH  20  22
ENDBRANCH  19  20
ENDBRANCH  18  19
ENDBRANCH   3  18
TORSDOF 5
ENDMDL
MODEL 8
REMARK VINA RESULT:      -6.1      8.944     10.937
REMARK  Name = 
REMARK  8 active torsions:
REMARK  status: ('A' for Active; 'I' for Inactive)
REMARK    1  A    between atoms: C_1  and  C_2
REMARK    2  A    between atoms: C_2  and  C_3
REMARK    3  A    between atoms: C_5  and  S_6
REMARK    4  A    between atoms: S_6  and  C_7
REMARK    5  A    between atoms: C_7  and  C_8
REMARK    6  A    between atoms: C_8  and  O_10
REMARK    7  A    between atoms: C_19  and  C_20
REMARK    8  A    between atoms: C_19  and  C_21
REMARK                            x       y       z     vdW  Elec       q    Type
REMARK                         _______ _______ _______ _____ _____    ______ ____
ROOT
ATOM      1  C   UNL     1      -2.790  10.569  17.227  0.00  0.00    +0.000 A 
ATOM      2  N   UNL     1      -4.033  11.017  17.522  0.00  0.00    +0.000 NA
ATOM      3  C   UNL     1      -4.179  11.805  18.612  0.00  0.00    +0.000 A 
ATOM      4  C   UNL     1      -3.086  12.073  19.454  0.00  0.00    +0.000 A 
ATOM      5  C   UNL     1      -2.903  12.759  20.711  0.00  0.00    +0.000 A 
ATOM      6  C   UNL     1      -1.579  12.797  21.111  0.00  0.00    +0.000 A 
ATOM      7  S   UNL     1      -0.565  11.964  20.033  0.00  0.00    +0.000 S 
ATOM      8  C   UNL     1      -1.876  11.554  19.019  0.00  0.00    +0.000 A 
ATOM      9  N   UNL     1      -1.675  10.811  17.925  0.00  0.00    +0.000 NA
ATOM     10  C   UNL     1      -1.077  13.416  22.376  0.00  0.00    +0.000 C 
ATOM     11  O   UNL     1      -2.123  14.193  22.995  0.00  0.00    +0.000 OA
ATOM     12  C   UNL     1      -3.429  13.579  23.023  0.00  0.00    +0.000 C 
ATOM     13  C   UNL     1      -3.415  12.258  23.813  0.00  0.00    +0.000 C 
ATOM     14  C   UNL     1      -4.369  14.560  23.739  0.00  0.00    +0.000 C 
ATOM     15  C   UNL     1      -3.948  13.388  21.579  0.00  0.00    +0.000 C 
ENDROOT
BRANCH   1  17
ATOM     16  C   UNL     1      -3.139  10.362  14.768  0.00  0.00    +0.000 C 
ATOM     17  C   UNL     1      -2.648   9.668  16.028  0.00  0.00    +0.000 C 
ENDBRANCH   1  17
BRANCH   3  18
ATOM     18  S   UNL     1      -5.742  12.579  18.926  0.00  0.00    +0.000 S 
BRANCH  18  19
ATOM     19  C   UNL     1      -6.925  11.277  18.512  0.00  0.00    +0.000 C 
BRANCH  19  20
ATOM     20  C   UNL     1      -7.133  10.304  19.646  0.00  0.00    +0.000 C 
ATOM     21  O   UNL     1      -7.002  10.580  20.834  0.00  0.00    +0.000 OA
BRANCH  20  22
ATOM     22  O   UNL     1      -7.496   9.064  19.232  0.00  0.00    +0.000 OA
ATOM     23  H   UNL     1      -7.026   8.803  18.407  0.00  0.00    +0.000 HD
ENDBRANCH  20  22
ENDBRANCH  19  20
ENDBRANCH  18  19
ENDBRANCH   3  18
TORSDOF 5
ENDMDL
MODEL 9
REMARK VINA RESULT:      -6.1      3.001      4.615
REMARK  Name = 
REMARK  8 active torsions:
REMARK  status: ('A' for Active; 'I' for Inactive)
REMARK    1  A    between atoms: C_1  and  C_2
REMARK    2  A    between atoms: C_2  and  C_3
REMARK    3  A    between atoms: C_5  and  S_6
REMARK    4  A    between atoms: S_6  and  C_7
REMARK    5  A    between atoms: C_7  and  C_8
REMARK    6  A    between atoms: C_8  and  O_10
REMARK    7  A    between atoms: C_19  and  C_20
REMARK    8  A    between atoms: C_19  and  C_21
REMARK                            x       y       z     vdW  Elec       q    Type
REMARK                         _______ _______ _______ _____ _____    ______ ____
ROOT
ATOM      1  C   UNL     1       0.561   8.602  21.518  0.00  0.00    +0.000 A 
ATOM      2  N   UNL     1       0.921   9.442  20.520  0.00  0.00    +0.000 NA
ATOM      3  C   UNL     1       1.624   8.928  19.485  0.00  0.00    +0.000 A 
ATOM      4  C   UNL     1       2.036   7.585  19.495  0.00  0.00    +0.000 A 
ATOM      5  C   UNL     1       2.856   6.757  18.643  0.00  0.00    +0.000 A 
ATOM      6  C   UNL     1       2.912   5.442  19.070  0.00  0.00    +0.000 A 
ATOM      7  S   UNL     1       2.050   5.205  20.514  0.00  0.00    +0.000 S 
ATOM      8  C   UNL     1       1.585   6.846  20.578  0.00  0.00    +0.000 A 
ATOM      9  N   UNL     1       0.850   7.299  21.600  0.00  0.00    +0.000 NA
ATOM     10  C   UNL     1       3.696   4.353  18.411  0.00  0.00    +0.000 C 
ATOM     11  O   UNL     1       4.177   4.798  17.125  0.00  0.00    +0.000 OA
ATOM     12  C   UNL     1       4.724   6.134  17.088  0.00  0.00    +0.000 C 
ATOM     13  C   UNL     1       5.941   6.272  18.021  0.00  0.00    +0.000 C 
ATOM     14  C   UNL     1       5.189   6.386  15.647  0.00  0.00    +0.000 C 
ATOM     15  C   UNL     1       3.617   7.162  17.419  0.00  0.00    +0.000 C 
ENDROOT
BRANCH   1  17
ATOM     16  C   UNL     1      -0.488  10.667  22.440  0.00  0.00    +0.000 C 
ATOM     17  C   UNL     1      -0.195   9.195  22.679  0.00  0.00    +0.000 C 
ENDBRANCH   1  17
BRANCH   3  18
ATOM     18  S   UNL     1       1.945   9.936  18.063  0.00  0.00    +0.000 S 
BRANCH  18  19
ATOM     19  C   UNL     1       1.185  11.514  18.508  0.00  0.00    +0.000 C 
BRANCH  19  20
ATOM     20  C   UNL     1       2.176  12.650  18.518  0.00  0.00    +0.000 C 
ATOM     21  O   UNL     1       2.613  13.185  19.531  0.00  0.00    +0.000 OA
BRANCH  20  22
ATOM     22  O   UNL     1       2.563  13.038  17.276  0.00  0.00    +0.000 OA
ATOM     23  H   UNL     1       2.166  12.469  16.577  0.00  0.00    +0.000 HD
ENDBRANCH  20  22
ENDBRANCH  19  20
ENDBRANCH  18  19
ENDBRANCH   3  18
TORSDOF 5
ENDMDL
