MODEL 1
REMARK VINA RESULT:      -8.8      0.000      0.000
REMARK  Name = 
REMARK  5 active torsions:
REMARK  status: ('A' for Active; 'I' for Inactive)
REMARK    1  A    between atoms: C_1  and  C_2
REMARK    2  A    between atoms: N_4  and  C_5
REMARK    3  A    between atoms: C_5  and  C_6
REMARK    4  A    between atoms: C_17  and  C_18
REMARK    5  A    between atoms: N_24  and  C_25
REMARK                            x       y       z     vdW  Elec       q    Type
REMARK                         _______ _______ _______ _____ _____    ______ ____
ROOT
ATOM      1  C   UNL     1       2.136   1.331  19.953  0.00  0.00    +0.000 C 
ATOM      2  C   UNL     1       2.482   2.817  19.864  0.00  0.00    +0.000 C 
ATOM      3  C   UNL     1       1.355   3.636  20.512  0.00  0.00    +0.000 C 
ATOM      4  N   UNL     1       1.263   4.875  19.734  0.00  0.00    +0.000 NA
ATOM      5  C   UNL     1       1.509   4.433  18.349  0.00  0.00    +0.000 C 
ATOM      6  C   UNL     1       2.585   3.348  18.416  0.00  0.00    +0.000 C 
ENDROOT
BRANCH   6   7
ATOM      7  C   UNL     1       3.968   3.885  18.009  0.00  0.00    +0.000 A 
ATOM      8  N   UNL     1       4.457   3.693  16.811  0.00  0.00    +0.000 NA
ATOM      9  C   UNL     1       5.709   4.180  16.631  0.00  0.00    +0.000 A 
ATOM     10  C   UNL     1       6.481   4.825  17.563  0.00  0.00    +0.000 A 
ATOM     11  C   UNL     1       7.690   5.111  16.929  0.00  0.00    +0.000 A 
ATOM     12  N   UNL     1       7.705   4.683  15.663  0.00  0.00    +0.000 NA
ATOM     13  N   UNL     1       6.474   4.120  15.485  0.00  0.00    +0.000 N 
ATOM     14  C   UNL     1       5.948   5.037  18.880  0.00  0.00    +0.000 A 
ATOM     15  O   UNL     1       6.547   5.594  19.792  0.00  0.00    +0.000 OA
ATOM     16  N   UNL     1       4.666   4.536  19.023  0.00  0.00    +0.000 N 
ATOM     17  H   UNL     1       4.260   4.656  19.939  0.00  0.00    +0.000 HD
BRANCH  13  18
ATOM     18  C   UNL     1       6.106   3.555  14.207  0.00  0.00    +0.000 C 
ATOM     19  C   UNL     1       4.836   4.127  13.566  0.00  0.00    +0.000 C 
ATOM     20  C   UNL     1       4.916   3.632  12.130  0.00  0.00    +0.000 C 
ATOM     21  C   UNL     1       6.403   3.675  11.785  0.00  0.00    +0.000 C 
ATOM     22  C   UNL     1       7.158   3.769  13.114  0.00  0.00    +0.000 C 
ENDBRANCH  13  18
ENDBRANCH   6   7
BRANCH   4  23
ATOM     23  C   UNL     1       2.262   5.840  20.222  0.00  0.00    +0.000 C 
BRANCH  23  24
ATOM     24  C   UNL     1       2.051   7.282  19.823  0.00  0.00    +0.000 A 
ATOM     25  C   UNL     1       2.352   7.778  18.553  0.00  0.00    +0.000 A 
ATOM     26  C   UNL     1       1.899   9.040  18.171  0.00  0.00    +0.000 A 
ATOM     27  C   UNL     1       1.081   9.789  19.005  0.00  0.00    +0.000 A 
ATOM     28  N   UNL     1       0.494  10.904  18.533  0.00  0.00    +0.000 NA
ATOM     29  C   UNL     1      -0.399  11.498  19.354  0.00  0.00    +0.000 A 
ATOM     30  C   UNL     1      -0.648  11.041  20.632  0.00  0.00    +0.000 A 
ATOM     31  N   UNL     1      -0.020   9.964  21.145  0.00  0.00    +0.000 NA
ATOM     32  C   UNL     1       0.813   9.315  20.312  0.00  0.00    +0.000 A 
ATOM     33  C   UNL     1       1.341   8.102  20.713  0.00  0.00    +0.000 A 
ENDBRANCH  23  24
ENDBRANCH   4  23
TORSDOF 4
ENDMDL
MODEL 2
REMARK VINA RESULT:      -8.6      0.979      1.280
REMARK  Name = 
REMARK  5 active torsions:
REMARK  status: ('A' for Active; 'I' for Inactive)
REMARK    1  A    between atoms: C_1  and  C_2
REMARK    2  A    between atoms: N_4  and  C_5
REMARK    3  A    between atoms: C_5  and  C_6
REMARK    4  A    between atoms: C_17  and  C_18
REMARK    5  A    between atoms: N_24  and  C_25
REMARK                            x       y       z     vdW  Elec       q    Type
REMARK                         _______ _______ _______ _____ _____    ______ ____
ROOT
ATOM      1  C   UNL     1       2.117   2.496  21.073  0.00  0.00    +0.000 C 
ATOM      2  C   UNL     1       2.494   3.845  20.461  0.00  0.00    +0.000 C 
ATOM      3  C   UNL     1       1.344   4.838  20.685  0.00  0.00    +0.000 C 
ATOM      4  N   UNL     1       1.322   5.699  19.499  0.00  0.00    +0.000 NA
ATOM      5  C   UNL     1       1.645   4.776  18.396  0.00  0.00    +0.000 C 
ATOM      6  C   UNL     1       2.696   3.800  18.929  0.00  0.00    +0.000 C 
ENDROOT
BRANCH   6   7
ATOM      7  C   UNL     1       4.110   4.157  18.441  0.00  0.00    +0.000 A 
ATOM      8  N   UNL     1       4.501   3.906  17.218  0.00  0.00    +0.000 NA
ATOM      9  C   UNL     1       5.793   4.230  16.964  0.00  0.00    +0.000 A 
ATOM     10  C   UNL     1       6.693   4.769  17.847  0.00  0.00    +0.000 A 
ATOM     11  C   UNL     1       7.890   4.899  17.143  0.00  0.00    +0.000 A 
ATOM     12  N   UNL     1       7.777   4.476  15.881  0.00  0.00    +0.000 NA
ATOM     13  N   UNL     1       6.477   4.075  15.777  0.00  0.00    +0.000 N 
ATOM     14  C   UNL     1       6.268   5.044  19.191  0.00  0.00    +0.000 A 
ATOM     15  O   UNL     1       6.984   5.518  20.065  0.00  0.00    +0.000 OA
ATOM     16  N   UNL     1       4.942   4.711  19.410  0.00  0.00    +0.000 N 
ATOM     17  H   UNL     1       4.609   4.879  20.347  0.00  0.00    +0.000 HD
BRANCH  13  18
ATOM     18  C   UNL     1       5.966   3.565  14.525  0.00  0.00    +0.000 C 
ATOM     19  C   UNL     1       4.804   4.352  13.907  0.00  0.00    +0.000 C 
ATOM     20  C   UNL     1       4.743   3.824  12.483  0.00  0.00    +0.000 C 
ATOM     21  C   UNL     1       6.198   3.581  12.093  0.00  0.00    +0.000 C 
ATOM     22  C   UNL     1       7.002   3.558  13.396  0.00  0.00    +0.000 C 
ENDBRANCH  13  18
ENDBRANCH   6   7
BRANCH   4  23
ATOM     23  C   UNL     1       2.306   6.783  19.656  0.00  0.00    +0.000 C 
BRANCH  23  24
ATOM     24  C   UNL     1       1.752   8.142  20.013  0.00  0.00    +0.000 A 
ATOM     25  C   UNL     1       1.436   9.116  19.064  0.00  0.00    +0.000 A 
ATOM     26  C   UNL     1       0.696  10.238  19.433  0.00  0.00    +0.000 A 
ATOM     27  C   UNL     1       0.195  10.372  20.720  0.00  0.00    +0.000 A 
ATOM     28  N   UNL     1      -0.683  11.355  20.992  0.00  0.00    +0.000 NA
ATOM     29  C   UNL     1      -1.236  11.334  22.224  0.00  0.00    +0.000 A 
ATOM     30  C   UNL     1      -0.875  10.408  23.182  0.00  0.00    +0.000 A 
ATOM     31  N   UNL     1       0.050   9.456  22.948  0.00  0.00    +0.000 NA
ATOM     32  C   UNL     1       0.553   9.415  21.700  0.00  0.00    +0.000 A 
ATOM     33  C   UNL     1       1.361   8.352  21.345  0.00  0.00    +0.000 A 
ENDBRANCH  23  24
ENDBRANCH   4  23
TORSDOF 4
ENDMDL
MODEL 3
REMARK VINA RESULT:      -8.6      1.445      1.787
REMARK  Name = 
REMARK  5 active torsions:
REMARK  status: ('A' for Active; 'I' for Inactive)
REMARK    1  A    between atoms: C_1  and  C_2
REMARK    2  A    between atoms: N_4  and  C_5
REMARK    3  A    between atoms: C_5  and  C_6
REMARK    4  A    between atoms: C_17  and  C_18
REMARK    5  A    between atoms: N_24  and  C_25
REMARK                            x       y       z     vdW  Elec       q    Type
REMARK                         _______ _______ _______ _____ _____    ______ ____
ROOT
ATOM      1  C   UNL     1       4.050   2.588  20.348  0.00  0.00    +0.000 C 
ATOM      2  C   UNL     1       3.927   3.855  19.500  0.00  0.00    +0.000 C 
ATOM      3  C   UNL     1       2.747   4.692  20.015  0.00  0.00    +0.000 C 
ATOM      4  N   UNL     1       2.160   5.327  18.831  0.00  0.00    +0.000 NA
ATOM      5  C   UNL     1       2.270   4.287  17.792  0.00  0.00    +0.000 C 
ATOM      6  C   UNL     1       3.609   3.581  18.012  0.00  0.00    +0.000 C 
ENDROOT
BRANCH   6   7
ATOM      7  C   UNL     1       4.678   4.053  17.013  0.00  0.00    +0.000 A 
ATOM      8  N   UNL     1       4.657   3.688  15.757  0.00  0.00    +0.000 NA
ATOM      9  C   UNL     1       5.701   4.145  15.023  0.00  0.00    +0.000 A 
ATOM     10  C   UNL     1       6.742   4.919  15.467  0.00  0.00    +0.000 A 
ATOM     11  C   UNL     1       7.577   5.110  14.366  0.00  0.00    +0.000 A 
ATOM     12  N   UNL     1       7.109   4.502  13.272  0.00  0.00    +0.000 NA
ATOM     13  N   UNL     1       5.946   3.918  13.684  0.00  0.00    +0.000 N 
ATOM     14  C   UNL     1       6.769   5.321  16.846  0.00  0.00    +0.000 A 
ATOM     15  O   UNL     1       7.649   6.005  17.354  0.00  0.00    +0.000 OA
ATOM     16  N   UNL     1       5.684   4.846  17.561  0.00  0.00    +0.000 N 
ATOM     17  H   UNL     1       5.673   5.098  18.538  0.00  0.00    +0.000 HD
BRANCH  13  18
ATOM     18  C   UNL     1       5.131   3.172  12.752  0.00  0.00    +0.000 C 
ATOM     19  C   UNL     1       4.293   4.010  11.779  0.00  0.00    +0.000 C 
ATOM     20  C   UNL     1       3.861   2.999  10.730  0.00  0.00    +0.000 C 
ATOM     21  C   UNL     1       5.054   2.058  10.580  0.00  0.00    +0.000 C 
ATOM     22  C   UNL     1       5.940   2.275  11.810  0.00  0.00    +0.000 C 
ENDBRANCH  13  18
ENDBRANCH   6   7
BRANCH   4  23
ATOM     23  C   UNL     1       2.905   6.554  18.508  0.00  0.00    +0.000 C 
BRANCH  23  24
ATOM     24  C   UNL     1       2.250   7.858  18.897  0.00  0.00    +0.000 A 
ATOM     25  C   UNL     1       1.792   8.794  17.968  0.00  0.00    +0.000 A 
ATOM     26  C   UNL     1       0.973   9.845  18.380  0.00  0.00    +0.000 A 
ATOM     27  C   UNL     1       0.536   9.937  19.693  0.00  0.00    +0.000 A 
ATOM     28  N   UNL     1      -0.412  10.836  20.016  0.00  0.00    +0.000 NA
ATOM     29  C   UNL     1      -0.890  10.770  21.277  0.00  0.00    +0.000 A 
ATOM     30  C   UNL     1      -0.392   9.885  22.212  0.00  0.00    +0.000 A 
ATOM     31  N   UNL     1       0.603   9.021  21.925  0.00  0.00    +0.000 NA
ATOM     32  C   UNL     1       1.035   9.021  20.651  0.00  0.00    +0.000 A 
ATOM     33  C   UNL     1       1.917   8.036  20.249  0.00  0.00    +0.000 A 
ENDBRANCH  23  24
ENDBRANCH   4  23
TORSDOF 4
ENDMDL
MODEL 4
REMARK VINA RESULT:      -8.5      4.963     10.771
REMARK  Name = 
REMARK  5 active torsions:
REMARK  status: ('A' for Active; 'I' for Inactive)
REMARK    1  A    between atoms: C_1  and  C_2
REMARK    2  A    between atoms: N_4  and  C_5
REMARK    3  A    between atoms: C_5  and  C_6
REMARK    4  A    between atoms: C_17  and  C_18
REMARK    5  A    between atoms: N_24  and  C_25
REMARK                            x       y       z     vdW  Elec       q    Type
REMARK                         _______ _______ _______ _____ _____    ______ ____
ROOT
ATOM      1  C   UNL     1      -1.652  14.140  23.625  0.00  0.00    +0.000 C 
ATOM      2  C   UNL     1      -1.746  13.171  22.447  0.00  0.00    +0.000 C 
ATOM      3  C   UNL     1      -0.329  12.829  21.962  0.00  0.00    +0.000 C 
ATOM      4  N   UNL     1      -0.431  12.667  20.509  0.00  0.00    +0.000 NA
ATOM      5  C   UNL     1      -1.399  13.706  20.113  0.00  0.00    +0.000 C 
ATOM      6  C   UNL     1      -2.463  13.760  21.210  0.00  0.00    +0.000 C 
ENDROOT
BRANCH   6   7
ATOM      7  C   UNL     1      -3.756  13.038  20.793  0.00  0.00    +0.000 A 
ATOM      8  N   UNL     1      -3.819  12.312  19.706  0.00  0.00    +0.000 NA
ATOM      9  C   UNL     1      -5.044  11.789  19.452  0.00  0.00    +0.000 A 
ATOM     10  C   UNL     1      -6.180  11.955  20.201  0.00  0.00    +0.000 A 
ATOM     11  C   UNL     1      -7.186  11.258  19.534  0.00  0.00    +0.000 A 
ATOM     12  N   UNL     1      -6.735  10.671  18.421  0.00  0.00    +0.000 NA
ATOM     13  N   UNL     1      -5.410  10.995  18.385  0.00  0.00    +0.000 N 
ATOM     14  C   UNL     1      -6.114  12.752  21.395  0.00  0.00    +0.000 A 
ATOM     15  O   UNL     1      -7.062  12.974  22.138  0.00  0.00    +0.000 OA
ATOM     16  N   UNL     1      -4.848  13.260  21.628  0.00  0.00    +0.000 N 
ATOM     17  H   UNL     1      -4.763  13.835  22.452  0.00  0.00    +0.000 HD
BRANCH  13  18
ATOM     18  C   UNL     1      -4.568  10.513  17.315  0.00  0.00    +0.000 C 
ATOM     19  C   UNL     1      -4.033  11.581  16.353  0.00  0.00    +0.000 C 
ATOM     20  C   UNL     1      -2.929  10.855  15.603  0.00  0.00    +0.000 C 
ATOM     21  C   UNL     1      -2.292   9.933  16.640  0.00  0.00    +0.000 C 
ATOM     22  C   UNL     1      -3.286   9.830  17.801  0.00  0.00    +0.000 C 
ENDBRANCH  13  18
ENDBRANCH   6   7
BRANCH   4  23
ATOM     23  C   UNL     1      -0.882  11.302  20.194  0.00  0.00    +0.000 C 
BRANCH  23  24
ATOM     24  C   UNL     1       0.162  10.214  20.283  0.00  0.00    +0.000 A 
ATOM     25  C   UNL     1       0.203   9.272  21.312  0.00  0.00    +0.000 A 
ATOM     26  C   UNL     1       1.025   8.151  21.201  0.00  0.00    +0.000 A 
ATOM     27  C   UNL     1       1.750   7.909  20.045  0.00  0.00    +0.000 A 
ATOM     28  N   UNL     1       2.369   6.724  19.884  0.00  0.00    +0.000 NA
ATOM     29  C   UNL     1       2.932   6.506  18.676  0.00  0.00    +0.000 A 
ATOM     30  C   UNL     1       2.944   7.463  17.682  0.00  0.00    +0.000 A 
ATOM     31  N   UNL     1       2.388   8.679  17.848  0.00  0.00    +0.000 NA
ATOM     32  C   UNL     1       1.753   8.883  19.017  0.00  0.00    +0.000 A 
ATOM     33  C   UNL     1       1.005  10.035  19.175  0.00  0.00    +0.000 A 
ENDBRANCH  23  24
ENDBRANCH   4  23
TORSDOF 4
ENDMDL
MODEL 5
REMARK VINA RESULT:      -8.4      1.716      8.141
REMARK  Name = 
REMARK  5 active torsions:
REMARK  status: ('A' for Active; 'I' for Inactive)
REMARK    1  A    between atoms: C_1  and  C_2
REMARK    2  A    between atoms: N_4  and  C_5
REMARK    3  A    between atoms: C_5  and  C_6
REMARK    4  A    between atoms: C_17  and  C_18
REMARK    5  A    between atoms: N_24  and  C_25
REMARK                            x       y       z     vdW  Elec       q    Type
REMARK                         _______ _______ _______ _____ _____    ______ ____
ROOT
ATOM      1  C   UNL     1       1.484   3.011  21.129  0.00  0.00    +0.000 C 
ATOM      2  C   UNL     1       2.105   3.579  19.853  0.00  0.00    +0.000 C 
ATOM      3  C   UNL     1       2.848   2.456  19.113  0.00  0.00    +0.000 C 
ATOM      4  N   UNL     1       4.013   3.091  18.489  0.00  0.00    +0.000 NA
ATOM      5  C   UNL     1       4.444   4.083  19.491  0.00  0.00    +0.000 C 
ATOM      6  C   UNL     1       3.173   4.668  20.109  0.00  0.00    +0.000 C 
ENDROOT
BRANCH   6   7
ATOM      7  C   UNL     1       2.844   6.058  19.538  0.00  0.00    +0.000 A 
ATOM      8  N   UNL     1       2.018   6.873  20.143  0.00  0.00    +0.000 NA
ATOM      9  C   UNL     1       1.792   8.035  19.482  0.00  0.00    +0.000 A 
ATOM     10  C   UNL     1       2.327   8.412  18.277  0.00  0.00    +0.000 A 
ATOM     11  C   UNL     1       1.785   9.664  17.990  0.00  0.00    +0.000 A 
ATOM     12  N   UNL     1       0.952  10.080  18.949  0.00  0.00    +0.000 NA
ATOM     13  N   UNL     1       0.972   9.073  19.870  0.00  0.00    +0.000 N 
ATOM     14  C   UNL     1       3.233   7.519  17.610  0.00  0.00    +0.000 A 
ATOM     15  O   UNL     1       3.767   7.746  16.530  0.00  0.00    +0.000 OA
ATOM     16  N   UNL     1       3.448   6.349  18.318  0.00  0.00    +0.000 N 
ATOM     17  H   UNL     1       4.070   5.690  17.876  0.00  0.00    +0.000 HD
BRANCH  13  18
ATOM     18  C   UNL     1       0.192   9.176  21.082  0.00  0.00    +0.000 C 
ATOM     19  C   UNL     1       0.984   9.098  22.394  0.00  0.00    +0.000 C 
ATOM     20  C   UNL     1      -0.010   9.594  23.431  0.00  0.00    +0.000 C 
ATOM     21  C   UNL     1      -0.803  10.689  22.722  0.00  0.00    +0.000 C 
ATOM     22  C   UNL     1      -0.556  10.505  21.222  0.00  0.00    +0.000 C 
ENDBRANCH  13  18
ENDBRANCH   6   7
BRANCH   4  23
ATOM     23  C   UNL     1       3.620   3.694  17.205  0.00  0.00    +0.000 C 
BRANCH  23  24
ATOM     24  C   UNL     1       4.723   4.347  16.406  0.00  0.00    +0.000 A 
ATOM     25  C   UNL     1       5.860   4.912  16.987  0.00  0.00    +0.000 A 
ATOM     26  C   UNL     1       6.950   5.263  16.191  0.00  0.00    +0.000 A 
ATOM     27  C   UNL     1       6.959   4.989  14.832  0.00  0.00    +0.000 A 
ATOM     28  N   UNL     1       8.096   5.150  14.130  0.00  0.00    +0.000 NA
ATOM     29  C   UNL     1       8.068   4.727  12.847  0.00  0.00    +0.000 A 
ATOM     30  C   UNL     1       6.925   4.227  12.257  0.00  0.00    +0.000 A 
ATOM     31  N   UNL     1       5.759   4.121  12.926  0.00  0.00    +0.000 NA
ATOM     32  C   UNL     1       5.792   4.464  14.227  0.00  0.00    +0.000 A 
ATOM     33  C   UNL     1       4.684   4.201  15.011  0.00  0.00    +0.000 A 
ENDBRANCH  23  24
ENDBRANCH   4  23
TORSDOF 4
ENDMDL
MODEL 6
REMARK VINA RESULT:      -8.4      1.291      1.632
REMARK  Name = 
REMARK  5 active torsions:
REMARK  status: ('A' for Active; 'I' for Inactive)
REMARK    1  A    between atoms: C_1  and  C_2
REMARK    2  A    between atoms: N_4  and  C_5
REMARK    3  A    between atoms: C_5  and  C_6
REMARK    4  A    between atoms: C_17  and  C_18
REMARK    5  A    between atoms: N_24  and  C_25
REMARK                            x       y       z     vdW  Elec       q    Type
REMARK                         _______ _______ _______ _____ _____    ______ ____
ROOT
ATOM      1  C   UNL     1       3.598   1.098  18.664  0.00  0.00    +0.000 C 
ATOM      2  C   UNL     1       3.743   2.619  18.623  0.00  0.00    +0.000 C 
ATOM      3  C   UNL     1       2.682   3.249  19.538  0.00  0.00    +0.000 C 
ATOM      4  N   UNL     1       2.290   4.505  18.889  0.00  0.00    +0.000 NA
ATOM      5  C   UNL     1       2.301   4.170  17.454  0.00  0.00    +0.000 C 
ATOM      6  C   UNL     1       3.488   3.232  17.227  0.00  0.00    +0.000 C 
ENDROOT
BRANCH   6   7
ATOM      7  C   UNL     1       4.688   3.965  16.602  0.00  0.00    +0.000 A 
ATOM      8  N   UNL     1       4.992   3.833  15.336  0.00  0.00    +0.000 NA
ATOM      9  C   UNL     1       6.109   4.500  14.956  0.00  0.00    +0.000 A 
ATOM     10  C   UNL     1       6.922   5.264  15.753  0.00  0.00    +0.000 A 
ATOM     11  C   UNL     1       7.951   5.719  14.930  0.00  0.00    +0.000 A 
ATOM     12  N   UNL     1       7.817   5.283  13.674  0.00  0.00    +0.000 NA
ATOM     13  N   UNL     1       6.672   4.541  13.697  0.00  0.00    +0.000 N 
ATOM     14  C   UNL     1       6.591   5.410  17.144  0.00  0.00    +0.000 A 
ATOM     15  O   UNL     1       7.244   6.061  17.950  0.00  0.00    +0.000 OA
ATOM     16  N   UNL     1       5.440   4.725  17.493  0.00  0.00    +0.000 N 
ATOM     17  H   UNL     1       5.181   4.794  18.465  0.00  0.00    +0.000 HD
BRANCH  13  18
ATOM     18  C   UNL     1       6.184   3.912  12.492  0.00  0.00    +0.000 C 
ATOM     19  C   UNL     1       6.418   2.400  12.385  0.00  0.00    +0.000 C 
ATOM     20  C   UNL     1       5.503   1.984  11.245  0.00  0.00    +0.000 C 
ATOM     21  C   UNL     1       4.268   2.867  11.393  0.00  0.00    +0.000 C 
ATOM     22  C   UNL     1       4.667   4.028  12.309  0.00  0.00    +0.000 C 
ENDBRANCH  13  18
ENDBRANCH   6   7
BRANCH   4  23
ATOM     23  C   UNL     1       3.247   5.565  19.247  0.00  0.00    +0.000 C 
BRANCH  23  24
ATOM     24  C   UNL     1       2.755   6.986  19.106  0.00  0.00    +0.000 A 
ATOM     25  C   UNL     1       2.822   7.707  17.912  0.00  0.00    +0.000 A 
ATOM     26  C   UNL     1       2.125   8.907  17.780  0.00  0.00    +0.000 A 
ATOM     27  C   UNL     1       1.294   9.365  18.791  0.00  0.00    +0.000 A 
ATOM     28  N   UNL     1       0.479  10.411  18.559  0.00  0.00    +0.000 NA
ATOM     29  C   UNL     1      -0.402  10.708  19.538  0.00  0.00    +0.000 A 
ATOM     30  C   UNL     1      -0.425  10.034  20.742  0.00  0.00    +0.000 A 
ATOM     31  N   UNL     1       0.428   9.027  21.018  0.00  0.00    +0.000 NA
ATOM     32  C   UNL     1       1.258   8.667  20.022  0.00  0.00    +0.000 A 
ATOM     33  C   UNL     1       2.023   7.526  20.175  0.00  0.00    +0.000 A 
ENDBRANCH  23  24
ENDBRANCH   4  23
TORSDOF 4
ENDMDL
MODEL 7
REMARK VINA RESULT:      -8.3      0.951      1.528
REMARK  Name = 
REMARK  5 active torsions:
REMARK  status: ('A' for Active; 'I' for Inactive)
REMARK    1  A    between atoms: C_1  and  C_2
REMARK    2  A    between atoms: N_4  and  C_5
REMARK    3  A    between atoms: C_5  and  C_6
REMARK    4  A    between atoms: C_17  and  C_18
REMARK    5  A    between atoms: N_24  and  C_25
REMARK                            x       y       z     vdW  Elec       q    Type
REMARK                         _______ _______ _______ _____ _____    ______ ____
ROOT
ATOM      1  C   UNL     1       2.543   2.395  21.387  0.00  0.00    +0.000 C 
ATOM      2  C   UNL     1       2.752   3.722  20.658  0.00  0.00    +0.000 C 
ATOM      3  C   UNL     1       1.509   4.603  20.854  0.00  0.00    +0.000 C 
ATOM      4  N   UNL     1       1.354   5.359  19.606  0.00  0.00    +0.000 NA
ATOM      5  C   UNL     1       1.736   4.388  18.565  0.00  0.00    +0.000 C 
ATOM      6  C   UNL     1       2.904   3.575  19.126  0.00  0.00    +0.000 C 
ENDROOT
BRANCH   6   7
ATOM      7  C   UNL     1       4.254   4.038  18.553  0.00  0.00    +0.000 A 
ATOM      8  N   UNL     1       4.582   3.824  17.304  0.00  0.00    +0.000 NA
ATOM      9  C   UNL     1       5.828   4.244  16.972  0.00  0.00    +0.000 A 
ATOM     10  C   UNL     1       6.742   4.842  17.800  0.00  0.00    +0.000 A 
ATOM     11  C   UNL     1       7.878   5.064  17.023  0.00  0.00    +0.000 A 
ATOM     12  N   UNL     1       7.715   4.642  15.765  0.00  0.00    +0.000 NA
ATOM     13  N   UNL     1       6.443   4.147  15.741  0.00  0.00    +0.000 N 
ATOM     14  C   UNL     1       6.386   5.077  19.172  0.00  0.00    +0.000 A 
ATOM     15  O   UNL     1       7.120   5.597  20.003  0.00  0.00    +0.000 OA
ATOM     16  N   UNL     1       5.105   4.646  19.472  0.00  0.00    +0.000 N 
ATOM     17  H   UNL     1       4.821   4.783  20.430  0.00  0.00    +0.000 HD
BRANCH  13  18
ATOM     18  C   UNL     1       5.891   3.608  14.519  0.00  0.00    +0.000 C 
ATOM     19  C   UNL     1       4.786   4.443  13.860  0.00  0.00    +0.000 C 
ATOM     20  C   UNL     1       4.679   3.845  12.467  0.00  0.00    +0.000 C 
ATOM     21  C   UNL     1       6.112   3.477  12.089  0.00  0.00    +0.000 C 
ATOM     22  C   UNL     1       6.918   3.465  13.391  0.00  0.00    +0.000 C 
ENDBRANCH  13  18
ENDBRANCH   6   7
BRANCH   4  23
ATOM     23  C   UNL     1       2.219   6.549  19.639  0.00  0.00    +0.000 C 
BRANCH  23  24
ATOM     24  C   UNL     1       1.568   7.838  20.083  0.00  0.00    +0.000 A 
ATOM     25  C   UNL     1       1.221   8.105  21.408  0.00  0.00    +0.000 A 
ATOM     26  C   UNL     1       0.866   9.398  21.791  0.00  0.00    +0.000 A 
ATOM     27  C   UNL     1       0.926  10.451  20.891  0.00  0.00    +0.000 A 
ATOM     28  N   UNL     1       0.779  11.714  21.334  0.00  0.00    +0.000 NA
ATOM     29  C   UNL     1       0.994  12.691  20.428  0.00  0.00    +0.000 A 
ATOM     30  C   UNL     1       1.276  12.424  19.103  0.00  0.00    +0.000 A 
ATOM     31  N   UNL     1       1.363  11.166  18.627  0.00  0.00    +0.000 NA
ATOM     32  C   UNL     1       1.230  10.181  19.534  0.00  0.00    +0.000 A 
ATOM     33  C   UNL     1       1.494   8.881  19.146  0.00  0.00    +0.000 A 
ENDBRANCH  23  24
ENDBRANCH   4  23
TORSDOF 4
ENDMDL
MODEL 8
REMARK VINA RESULT:      -8.3      7.606     12.332
REMARK  Name = 
REMARK  5 active torsions:
REMARK  status: ('A' for Active; 'I' for Inactive)
REMARK    1  A    between atoms: C_1  and  C_2
REMARK    2  A    between atoms: N_4  and  C_5
REMARK    3  A    between atoms: C_5  and  C_6
REMARK    4  A    between atoms: C_17  and  C_18
REMARK    5  A    between atoms: N_24  and  C_25
REMARK                            x       y       z     vdW  Elec       q    Type
REMARK                         _______ _______ _______ _____ _____    ______ ____
ROOT
ATOM      1  C   UNL     1      -4.098  10.304  14.270  0.00  0.00    +0.000 C 
ATOM      2  C   UNL     1      -3.653  10.930  15.591  0.00  0.00    +0.000 C 
ATOM      3  C   UNL     1      -2.290  10.344  15.991  0.00  0.00    +0.000 C 
ATOM      4  N   UNL     1      -2.303  10.266  17.455  0.00  0.00    +0.000 NA
ATOM      5  C   UNL     1      -3.689   9.875  17.768  0.00  0.00    +0.000 C 
ATOM      6  C   UNL     1      -4.591  10.616  16.779  0.00  0.00    +0.000 C 
ENDROOT
BRANCH   6   7
ATOM      7  C   UNL     1      -5.269  11.837  17.422  0.00  0.00    +0.000 A 
ATOM      8  N   UNL     1      -5.359  11.970  18.721  0.00  0.00    +0.000 NA
ATOM      9  C   UNL     1      -6.034  13.074  19.126  0.00  0.00    +0.000 A 
ATOM     10  C   UNL     1      -6.616  14.022  18.324  0.00  0.00    +0.000 A 
ATOM     11  C   UNL     1      -7.212  14.942  19.186  0.00  0.00    +0.000 A 
ATOM     12  N   UNL     1      -7.028  14.617  20.469  0.00  0.00    +0.000 NA
ATOM     13  N   UNL     1      -6.291  13.469  20.422  0.00  0.00    +0.000 N 
ATOM     14  C   UNL     1      -6.519  13.878  16.898  0.00  0.00    +0.000 A 
ATOM     15  O   UNL     1      -7.002  14.657  16.085  0.00  0.00    +0.000 OA
ATOM     16  N   UNL     1      -5.815  12.748  16.522  0.00  0.00    +0.000 N 
ATOM     17  H   UNL     1      -5.735  12.605  15.527  0.00  0.00    +0.000 HD
BRANCH  13  18
ATOM     18  C   UNL     1      -5.873  12.818  21.642  0.00  0.00    +0.000 C 
ATOM     19  C   UNL     1      -4.814  13.561  22.466  0.00  0.00    +0.000 C 
ATOM     20  C   UNL     1      -4.857  12.852  23.811  0.00  0.00    +0.000 C 
ATOM     21  C   UNL     1      -6.328  12.504  24.022  0.00  0.00    +0.000 C 
ATOM     22  C   UNL     1      -7.007  12.622  22.654  0.00  0.00    +0.000 C 
ENDBRANCH  13  18
ENDBRANCH   6   7
BRANCH   4  23
ATOM     23  C   UNL     1      -1.923  11.569  18.023  0.00  0.00    +0.000 C 
BRANCH  23  24
ATOM     24  C   UNL     1      -1.376  11.552  19.431  0.00  0.00    +0.000 A 
ATOM     25  C   UNL     1      -1.991  12.207  20.500  0.00  0.00    +0.000 A 
ATOM     26  C   UNL     1      -1.585  11.942  21.808  0.00  0.00    +0.000 A 
ATOM     27  C   UNL     1      -0.628  10.975  22.077  0.00  0.00    +0.000 A 
ATOM     28  N   UNL     1      -0.405  10.597  23.349  0.00  0.00    +0.000 NA
ATOM     29  C   UNL     1       0.433   9.552  23.521  0.00  0.00    +0.000 A 
ATOM     30  C   UNL     1       1.087   8.947  22.467  0.00  0.00    +0.000 A 
ATOM     31  N   UNL     1       0.927   9.355  21.192  0.00  0.00    +0.000 NA
ATOM     32  C   UNL     1       0.035  10.343  20.997  0.00  0.00    +0.000 A 
ATOM     33  C   UNL     1      -0.313  10.677  19.701  0.00  0.00    +0.000 A 
ENDBRANCH  23  24
ENDBRANCH   4  23
TORSDOF 4
ENDMDL
MODEL 9
REMARK VINA RESULT:      -8.3      1.356      1.869
REMARK  Name = 
REMARK  5 active torsions:
REMARK  status: ('A' for Active; 'I' for Inactive)
REMARK    1  A    between atoms: C_1  and  C_2
REMARK    2  A    between atoms: N_4  and  C_5
REMARK    3  A    between atoms: C_5  and  C_6
REMARK    4  A    between atoms: C_17  and  C_18
REMARK    5  A    between atoms: N_24  and  C_25
REMARK                            x       y       z     vdW  Elec       q    Type
REMARK                         _______ _______ _______ _____ _____    ______ ____
ROOT
ATOM      1  C   UNL     1       4.382   2.125  20.525  0.00  0.00    +0.000 C 
ATOM      2  C   UNL     1       4.113   3.452  19.815  0.00  0.00    +0.000 C 
ATOM      3  C   UNL     1       2.873   4.112  20.435  0.00  0.00    +0.000 C 
ATOM      4  N   UNL     1       2.193   4.801  19.334  0.00  0.00    +0.000 NA
ATOM      5  C   UNL     1       2.372   3.887  18.192  0.00  0.00    +0.000 C 
ATOM      6  C   UNL     1       3.779   3.298  18.313  0.00  0.00    +0.000 C 
ENDROOT
BRANCH   6   7
ATOM      7  C   UNL     1       4.769   3.972  17.347  0.00  0.00    +0.000 A 
ATOM      8  N   UNL     1       4.831   3.641  16.083  0.00  0.00    +0.000 NA
ATOM      9  C   UNL     1       5.794   4.288  15.381  0.00  0.00    +0.000 A 
ATOM     10  C   UNL     1       6.680   5.216  15.864  0.00  0.00    +0.000 A 
ATOM     11  C   UNL     1       7.488   5.575  14.785  0.00  0.00    +0.000 A 
ATOM     12  N   UNL     1       7.149   4.924  13.668  0.00  0.00    +0.000 NA
ATOM     13  N   UNL     1       6.096   4.141  14.043  0.00  0.00    +0.000 N 
ATOM     14  C   UNL     1       6.615   5.581  17.252  0.00  0.00    +0.000 A 
ATOM     15  O   UNL     1       7.355   6.392  17.794  0.00  0.00    +0.000 OA
ATOM     16  N   UNL     1       5.614   4.910  17.934  0.00  0.00    +0.000 N 
ATOM     17  H   UNL     1       5.544   5.131  18.915  0.00  0.00    +0.000 HD
BRANCH  13  18
ATOM     18  C   UNL     1       5.436   3.291  13.078  0.00  0.00    +0.000 C 
ATOM     19  C   UNL     1       4.511   4.003  12.084  0.00  0.00    +0.000 C 
ATOM     20  C   UNL     1       4.275   2.952  11.012  0.00  0.00    +0.000 C 
ATOM     21  C   UNL     1       5.602   2.208  10.894  0.00  0.00    +0.000 C 
ATOM     22  C   UNL     1       6.404   2.542  12.156  0.00  0.00    +0.000 C 
ENDBRANCH  13  18
ENDBRANCH   6   7
BRANCH   4  23
ATOM     23  C   UNL     1       2.807   6.123  19.124  0.00  0.00    +0.000 C 
BRANCH  23  24
ATOM     24  C   UNL     1       1.989   7.317  19.554  0.00  0.00    +0.000 A 
ATOM     25  C   UNL     1       1.460   7.463  20.837  0.00  0.00    +0.000 A 
ATOM     26  C   UNL     1       0.941   8.691  21.244  0.00  0.00    +0.000 A 
ATOM     27  C   UNL     1       1.011   9.805  20.420  0.00  0.00    +0.000 A 
ATOM     28  N   UNL     1       0.692  11.016  20.912  0.00  0.00    +0.000 NA
ATOM     29  C   UNL     1       0.923  12.068  20.097  0.00  0.00    +0.000 A 
ATOM     30  C   UNL     1       1.388  11.917  18.806  0.00  0.00    +0.000 A 
ATOM     31  N   UNL     1       1.650  10.706  18.274  0.00  0.00    +0.000 NA
ATOM     32  C   UNL     1       1.501   9.654  19.100  0.00  0.00    +0.000 A 
ATOM     33  C   UNL     1       1.931   8.411  18.676  0.00  0.00    +0.000 A 
ENDBRANCH  23  24
ENDBRANCH   4  23
TORSDOF 4
ENDMDL
