MODEL 1
REMARK VINA RESULT:      -8.5      0.000      0.000
REMARK  Name = 
REMARK  9 active torsions:
REMARK  status: ('A' for Active; 'I' for Inactive)
REMARK    1  A    between atoms: C_1  and  C_2
REMARK    2  A    between atoms: C_2  and  C_4
REMARK    3  A    between atoms: C_5  and  O_6
REMARK    4  A    between atoms: O_6  and  C_7
REMARK    5  A    between atoms: C_7  and  C_8
REMARK    6  A    between atoms: C_8  and  C_9
REMARK    7  A    between atoms: C_9  and  N_10
REMARK    8  A    between atoms: N_13  and  C_14
REMARK    9  A    between atoms: C_25  and  C_26
REMARK                            x       y       z     vdW  Elec       q    Type
REMARK                         _______ _______ _______ _____ _____    ______ ____
ROOT
ATOM      1  O   UNL     1       5.088   4.106  18.729  0.00  0.00    +0.000 OA
ENDROOT
BRANCH   1   3
ATOM      2  C   UNL     1       6.467   4.683  16.851  0.00  0.00    +0.000 A 
ATOM      3  C   UNL     1       5.326   4.059  17.375  0.00  0.00    +0.000 A 
ATOM      4  C   UNL     1       4.440   3.432  16.483  0.00  0.00    +0.000 A 
ATOM      5  C   UNL     1       4.691   3.391  15.108  0.00  0.00    +0.000 A 
ATOM      6  C   UNL     1       5.818   4.005  14.567  0.00  0.00    +0.000 A 
ATOM      7  C   UNL     1       6.126   3.994  13.127  0.00  0.00    +0.000 A 
ATOM      8  C   UNL     1       5.313   3.227  12.122  0.00  0.00    +0.000 C 
ATOM      9  C   UNL     1       7.185   4.697  12.702  0.00  0.00    +0.000 A 
ATOM     10  C   UNL     1       8.080   5.443  13.594  0.00  0.00    +0.000 A 
ATOM     11  O   UNL     1       9.013   6.094  13.139  0.00  0.00    +0.000 OA
ATOM     12  O   UNL     1       7.833   5.320  14.948  0.00  0.00    +0.000 OA
ATOM     13  C   UNL     1       6.685   4.662  15.455  0.00  0.00    +0.000 A 
BRANCH   2  15
ATOM     14  C   UNL     1       7.480   6.884  17.741  0.00  0.00    +0.000 C 
ATOM     15  C   UNL     1       7.448   5.377  17.732  0.00  0.00    +0.000 C 
ATOM     16  O   UNL     1       8.215   4.728  18.439  0.00  0.00    +0.000 OA
ENDBRANCH   2  15
ENDBRANCH   1   3
BRANCH   1  17
ATOM     17  C   UNL     1       4.630   2.871  19.297  0.00  0.00    +0.000 C 
BRANCH  17  18
ATOM     18  C   UNL     1       3.369   3.082  20.138  0.00  0.00    +0.000 C 
BRANCH  18  19
ATOM     19  C   UNL     1       2.098   2.763  19.319  0.00  0.00    +0.000 C 
BRANCH  19  20
ATOM     20  N   UNL     1       1.256   3.955  19.153  0.00  0.00    +0.000 NA
ATOM     21  C   UNL     1       1.072   4.726  20.398  0.00  0.00    +0.000 C 
ATOM     22  C   UNL     1       2.272   5.632  20.710  0.00  0.00    +0.000 C 
ATOM     23  N   UNL     1       2.350   6.671  19.677  0.00  0.00    +0.000 N 
ATOM     24  C   UNL     1       2.560   6.088  18.330  0.00  0.00    +0.000 C 
ATOM     25  C   UNL     1       1.645   4.853  18.042  0.00  0.00    +0.000 C 
BRANCH  23  26
ATOM     26  C   UNL     1       1.737   7.908  19.866  0.00  0.00    +0.000 A 
ATOM     27  C   UNL     1       1.275   8.341  21.121  0.00  0.00    +0.000 A 
ATOM     28  C   UNL     1       0.727   9.610  21.280  0.00  0.00    +0.000 A 
ATOM     29  N   UNL     1       0.593  10.495  20.278  0.00  0.00    +0.000 NA
ATOM     30  C   UNL     1       1.040  10.087  19.076  0.00  0.00    +0.000 A 
ATOM     31  C   UNL     1       1.611   8.843  18.835  0.00  0.00    +0.000 A 
ENDBRANCH  23  26
ENDBRANCH  19  20
ENDBRANCH  18  19
ENDBRANCH  17  18
ENDBRANCH   1  17
TORSDOF 7
ENDMDL
MODEL 2
REMARK VINA RESULT:      -8.2      5.753      8.458
REMARK  Name = 
REMARK  9 active torsions:
REMARK  status: ('A' for Active; 'I' for Inactive)
REMARK    1  A    between atoms: C_1  and  C_2
REMARK    2  A    between atoms: C_2  and  C_4
REMARK    3  A    between atoms: C_5  and  O_6
REMARK    4  A    between atoms: O_6  and  C_7
REMARK    5  A    between atoms: C_7  and  C_8
REMARK    6  A    between atoms: C_8  and  C_9
REMARK    7  A    between atoms: C_9  and  N_10
REMARK    8  A    between atoms: N_13  and  C_14
REMARK    9  A    between atoms: C_25  and  C_26
REMARK                            x       y       z     vdW  Elec       q    Type
REMARK                         _______ _______ _______ _____ _____    ______ ____
ROOT
ATOM      1  O   UNL     1       7.358   7.474  17.073  0.00  0.00    +0.000 OA
ENDROOT
BRANCH   1   3
ATOM      2  C   UNL     1       6.436   5.549  18.173  0.00  0.00    +0.000 A 
ATOM      3  C   UNL     1       6.267   6.692  17.378  0.00  0.00    +0.000 A 
ATOM      4  C   UNL     1       4.983   6.980  16.888  0.00  0.00    +0.000 A 
ATOM      5  C   UNL     1       3.882   6.178  17.203  0.00  0.00    +0.000 A 
ATOM      6  C   UNL     1       4.027   5.038  17.990  0.00  0.00    +0.000 A 
ATOM      7  C   UNL     1       2.902   4.159  18.347  0.00  0.00    +0.000 A 
ATOM      8  C   UNL     1       1.476   4.468  17.988  0.00  0.00    +0.000 C 
ATOM      9  C   UNL     1       3.168   3.035  19.029  0.00  0.00    +0.000 A 
ATOM     10  C   UNL     1       4.513   2.653  19.476  0.00  0.00    +0.000 A 
ATOM     11  O   UNL     1       4.695   1.595  20.067  0.00  0.00    +0.000 OA
ATOM     12  O   UNL     1       5.519   3.568  19.235  0.00  0.00    +0.000 OA
ATOM     13  C   UNL     1       5.319   4.730  18.450  0.00  0.00    +0.000 A 
BRANCH   2  15
ATOM     14  C   UNL     1       8.238   5.809  20.003  0.00  0.00    +0.000 C 
ATOM     15  C   UNL     1       7.770   5.172  18.719  0.00  0.00    +0.000 C 
ATOM     16  O   UNL     1       8.474   4.355  18.130  0.00  0.00    +0.000 OA
ENDBRANCH   2  15
ENDBRANCH   1   3
BRANCH   1  17
ATOM     17  C   UNL     1       7.303   8.806  17.603  0.00  0.00    +0.000 C 
BRANCH  17  18
ATOM     18  C   UNL     1       8.704   9.398  17.761  0.00  0.00    +0.000 C 
BRANCH  18  19
ATOM     19  C   UNL     1       8.940   9.882  19.210  0.00  0.00    +0.000 C 
BRANCH  19  20
ATOM     20  N   UNL     1       9.983  10.914  19.266  0.00  0.00    +0.000 NA
ATOM     21  C   UNL     1      10.277  11.530  17.958  0.00  0.00    +0.000 C 
ATOM     22  C   UNL     1       9.252  12.605  17.572  0.00  0.00    +0.000 C 
ATOM     23  N   UNL     1       9.379  13.726  18.510  0.00  0.00    +0.000 N 
ATOM     24  C   UNL     1       9.096  13.309  19.904  0.00  0.00    +0.000 C 
ATOM     25  C   UNL     1       9.783  11.959  20.295  0.00  0.00    +0.000 C 
BRANCH  23  26
ATOM     26  C   UNL     1      10.199  14.812  18.209  0.00  0.00    +0.000 A 
ATOM     27  C   UNL     1       9.708  15.998  17.638  0.00  0.00    +0.000 A 
ATOM     28  C   UNL     1      10.548  17.084  17.413  0.00  0.00    +0.000 A 
ATOM     29  N   UNL     1      11.859  17.086  17.710  0.00  0.00    +0.000 NA
ATOM     30  C   UNL     1      12.333  15.954  18.264  0.00  0.00    +0.000 A 
ATOM     31  C   UNL     1      11.559  14.831  18.533  0.00  0.00    +0.000 A 
ENDBRANCH  23  26
ENDBRANCH  19  20
ENDBRANCH  18  19
ENDBRANCH  17  18
ENDBRANCH   1  17
TORSDOF 7
ENDMDL
MODEL 3
REMARK VINA RESULT:      -8.1      5.809      8.541
REMARK  Name = 
REMARK  9 active torsions:
REMARK  status: ('A' for Active; 'I' for Inactive)
REMARK    1  A    between atoms: C_1  and  C_2
REMARK    2  A    between atoms: C_2  and  C_4
REMARK    3  A    between atoms: C_5  and  O_6
REMARK    4  A    between atoms: O_6  and  C_7
REMARK    5  A    between atoms: C_7  and  C_8
REMARK    6  A    between atoms: C_8  and  C_9
REMARK    7  A    between atoms: C_9  and  N_10
REMARK    8  A    between atoms: N_13  and  C_14
REMARK    9  A    between atoms: C_25  and  C_26
REMARK                            x       y       z     vdW  Elec       q    Type
REMARK                         _______ _______ _______ _____ _____    ______ ____
ROOT
ATOM      1  O   UNL     1       6.723   7.462  16.708  0.00  0.00    +0.000 OA
ENDROOT
BRANCH   1   3
ATOM      2  C   UNL     1       5.757   5.320  17.195  0.00  0.00    +0.000 A 
ATOM      3  C   UNL     1       5.711   6.719  17.270  0.00  0.00    +0.000 A 
ATOM      4  C   UNL     1       4.603   7.317  17.893  0.00  0.00    +0.000 A 
ATOM      5  C   UNL     1       3.580   6.552  18.460  0.00  0.00    +0.000 A 
ATOM      6  C   UNL     1       3.605   5.161  18.396  0.00  0.00    +0.000 A 
ATOM      7  C   UNL     1       2.552   4.310  18.973  0.00  0.00    +0.000 A 
ATOM      8  C   UNL     1       1.408   4.858  19.780  0.00  0.00    +0.000 C 
ATOM      9  C   UNL     1       2.626   2.987  18.771  0.00  0.00    +0.000 A 
ATOM     10  C   UNL     1       3.720   2.333  18.043  0.00  0.00    +0.000 A 
ATOM     11  O   UNL     1       3.712   1.122  17.863  0.00  0.00    +0.000 OA
ATOM     12  O   UNL     1       4.754   3.152  17.632  0.00  0.00    +0.000 OA
ATOM     13  C   UNL     1       4.696   4.564  17.741  0.00  0.00    +0.000 A 
BRANCH   2  15
ATOM     14  C   UNL     1       6.786   4.257  15.079  0.00  0.00    +0.000 C 
ATOM     15  C   UNL     1       6.894   4.613  16.540  0.00  0.00    +0.000 C 
ATOM     16  O   UNL     1       7.901   4.328  17.184  0.00  0.00    +0.000 OA
ENDBRANCH   2  15
ENDBRANCH   1   3
BRANCH   1  17
ATOM     17  C   UNL     1       7.712   7.923  17.639  0.00  0.00    +0.000 C 
BRANCH  17  18
ATOM     18  C   UNL     1       7.765   9.451  17.682  0.00  0.00    +0.000 C 
BRANCH  18  19
ATOM     19  C   UNL     1       8.909   9.940  18.599  0.00  0.00    +0.000 C 
BRANCH  19  20
ATOM     20  N   UNL     1       9.657  11.041  17.979  0.00  0.00    +0.000 NA
ATOM     21  C   UNL     1       8.904  12.309  17.923  0.00  0.00    +0.000 C 
ATOM     22  C   UNL     1       8.923  13.064  19.259  0.00  0.00    +0.000 C 
ATOM     23  N   UNL     1      10.299  13.499  19.527  0.00  0.00    +0.000 N 
ATOM     24  C   UNL     1      11.225  12.347  19.643  0.00  0.00    +0.000 C 
ATOM     25  C   UNL     1      11.013  11.271  18.528  0.00  0.00    +0.000 C 
BRANCH  23  26
ATOM     26  C   UNL     1      10.730  14.766  19.137  0.00  0.00    +0.000 A 
ATOM     27  C   UNL     1      11.396  14.999  17.922  0.00  0.00    +0.000 A 
ATOM     28  C   UNL     1      11.753  16.289  17.540  0.00  0.00    +0.000 A 
ATOM     29  N   UNL     1      11.502  17.382  18.281  0.00  0.00    +0.000 NA
ATOM     30  C   UNL     1      10.858  17.163  19.442  0.00  0.00    +0.000 A 
ATOM     31  C   UNL     1      10.456  15.911  19.891  0.00  0.00    +0.000 A 
ENDBRANCH  23  26
ENDBRANCH  19  20
ENDBRANCH  18  19
ENDBRANCH  17  18
ENDBRANCH   1  17
TORSDOF 7
ENDMDL
MODEL 4
REMARK VINA RESULT:      -8.0      5.822      8.389
REMARK  Name = 
REMARK  9 active torsions:
REMARK  status: ('A' for Active; 'I' for Inactive)
REMARK    1  A    between atoms: C_1  and  C_2
REMARK    2  A    between atoms: C_2  and  C_4
REMARK    3  A    between atoms: C_5  and  O_6
REMARK    4  A    between atoms: O_6  and  C_7
REMARK    5  A    between atoms: C_7  and  C_8
REMARK    6  A    between atoms: C_8  and  C_9
REMARK    7  A    between atoms: C_9  and  N_10
REMARK    8  A    between atoms: N_13  and  C_14
REMARK    9  A    between atoms: C_25  and  C_26
REMARK                            x       y       z     vdW  Elec       q    Type
REMARK                         _______ _______ _______ _____ _____    ______ ____
ROOT
ATOM      1  O   UNL     1       7.330   7.338  16.955  0.00  0.00    +0.000 OA
ENDROOT
BRANCH   1   3
ATOM      2  C   UNL     1       6.436   5.471  18.171  0.00  0.00    +0.000 A 
ATOM      3  C   UNL     1       6.241   6.616  17.384  0.00  0.00    +0.000 A 
ATOM      4  C   UNL     1       4.927   6.964  17.030  0.00  0.00    +0.000 A 
ATOM      5  C   UNL     1       3.827   6.222  17.470  0.00  0.00    +0.000 A 
ATOM      6  C   UNL     1       3.999   5.082  18.253  0.00  0.00    +0.000 A 
ATOM      7  C   UNL     1       2.876   4.264  18.738  0.00  0.00    +0.000 A 
ATOM      8  C   UNL     1       1.436   4.643  18.530  0.00  0.00    +0.000 C 
ATOM      9  C   UNL     1       3.157   3.134  19.403  0.00  0.00    +0.000 A 
ATOM     10  C   UNL     1       4.521   2.687  19.710  0.00  0.00    +0.000 A 
ATOM     11  O   UNL     1       4.712   1.627  20.292  0.00  0.00    +0.000 OA
ATOM     12  O   UNL     1       5.540   3.548  19.352  0.00  0.00    +0.000 OA
ATOM     13  C   UNL     1       5.315   4.713  18.577  0.00  0.00    +0.000 A 
BRANCH   2  15
ATOM     14  C   UNL     1       8.382   5.557  19.865  0.00  0.00    +0.000 C 
ATOM     15  C   UNL     1       7.800   5.031  18.578  0.00  0.00    +0.000 C 
ATOM     16  O   UNL     1       8.437   4.252  17.873  0.00  0.00    +0.000 OA
ENDBRANCH   2  15
ENDBRANCH   1   3
BRANCH   1  17
ATOM     17  C   UNL     1       7.374   8.690  17.433  0.00  0.00    +0.000 C 
BRANCH  17  18
ATOM     18  C   UNL     1       8.470   8.870  18.485  0.00  0.00    +0.000 C 
BRANCH  18  19
ATOM     19  C   UNL     1       9.352  10.097  18.159  0.00  0.00    +0.000 C 
BRANCH  19  20
ATOM     20  N   UNL     1       8.970  11.261  18.969  0.00  0.00    +0.000 NA
ATOM     21  C   UNL     1       9.797  11.438  20.178  0.00  0.00    +0.000 C 
ATOM     22  C   UNL     1      11.145  12.107  19.874  0.00  0.00    +0.000 C 
ATOM     23  N   UNL     1      10.891  13.484  19.433  0.00  0.00    +0.000 N 
ATOM     24  C   UNL     1      10.077  13.520  18.195  0.00  0.00    +0.000 C 
ATOM     25  C   UNL     1       8.861  12.537  18.226  0.00  0.00    +0.000 C 
BRANCH  23  26
ATOM     26  C   UNL     1      10.904  14.535  20.348  0.00  0.00    +0.000 A 
ATOM     27  C   UNL     1      10.115  14.538  21.511  0.00  0.00    +0.000 A 
ATOM     28  C   UNL     1      10.205  15.577  22.432  0.00  0.00    +0.000 A 
ATOM     29  N   UNL     1      11.025  16.633  22.287  0.00  0.00    +0.000 NA
ATOM     30  C   UNL     1      11.787  16.631  21.178  0.00  0.00    +0.000 A 
ATOM     31  C   UNL     1      11.767  15.627  20.216  0.00  0.00    +0.000 A 
ENDBRANCH  23  26
ENDBRANCH  19  20
ENDBRANCH  18  19
ENDBRANCH  17  18
ENDBRANCH   1  17
TORSDOF 7
ENDMDL
MODEL 5
REMARK VINA RESULT:      -7.9      1.953      3.390
REMARK  Name = 
REMARK  9 active torsions:
REMARK  status: ('A' for Active; 'I' for Inactive)
REMARK    1  A    between atoms: C_1  and  C_2
REMARK    2  A    between atoms: C_2  and  C_4
REMARK    3  A    between atoms: C_5  and  O_6
REMARK    4  A    between atoms: O_6  and  C_7
REMARK    5  A    between atoms: C_7  and  C_8
REMARK    6  A    between atoms: C_8  and  C_9
REMARK    7  A    between atoms: C_9  and  N_10
REMARK    8  A    between atoms: N_13  and  C_14
REMARK    9  A    between atoms: C_25  and  C_26
REMARK                            x       y       z     vdW  Elec       q    Type
REMARK                         _______ _______ _______ _____ _____    ______ ____
ROOT
ATOM      1  O   UNL     1       4.687   5.259  18.486  0.00  0.00    +0.000 OA
ENDROOT
BRANCH   1   3
ATOM      2  C   UNL     1       6.235   5.451  16.661  0.00  0.00    +0.000 A 
ATOM      3  C   UNL     1       5.059   4.915  17.207  0.00  0.00    +0.000 A 
ATOM      4  C   UNL     1       4.279   4.065  16.406  0.00  0.00    +0.000 A 
ATOM      5  C   UNL     1       4.666   3.723  15.107  0.00  0.00    +0.000 A 
ATOM      6  C   UNL     1       5.829   4.244  14.545  0.00  0.00    +0.000 A 
ATOM      7  C   UNL     1       6.279   3.919  13.181  0.00  0.00    +0.000 A 
ATOM      8  C   UNL     1       5.585   2.910  12.309  0.00  0.00    +0.000 C 
ATOM      9  C   UNL     1       7.361   4.550  12.705  0.00  0.00    +0.000 A 
ATOM     10  C   UNL     1       8.148   5.517  13.479  0.00  0.00    +0.000 A 
ATOM     11  O   UNL     1       9.108   6.086  12.974  0.00  0.00    +0.000 OA
ATOM     12  O   UNL     1       7.770   5.695  14.796  0.00  0.00    +0.000 OA
ATOM     13  C   UNL     1       6.591   5.123  15.333  0.00  0.00    +0.000 A 
BRANCH   2  15
ATOM     14  C   UNL     1       7.853   5.824  18.637  0.00  0.00    +0.000 C 
ATOM     15  C   UNL     1       7.109   6.368  17.445  0.00  0.00    +0.000 C 
ATOM     16  O   UNL     1       7.218   7.549  17.121  0.00  0.00    +0.000 OA
ENDBRANCH   2  15
ENDBRANCH   1   3
BRANCH   1  17
ATOM     17  C   UNL     1       3.370   5.818  18.593  0.00  0.00    +0.000 C 
BRANCH  17  18
ATOM     18  C   UNL     1       3.321   7.235  18.018  0.00  0.00    +0.000 C 
BRANCH  18  19
ATOM     19  C   UNL     1       1.908   7.844  18.171  0.00  0.00    +0.000 C 
BRANCH  19  20
ATOM     20  N   UNL     1       1.921   9.004  19.071  0.00  0.00    +0.000 NA
ATOM     21  C   UNL     1       1.360  10.228  18.468  0.00  0.00    +0.000 C 
ATOM     22  C   UNL     1      -0.176  10.243  18.490  0.00  0.00    +0.000 C 
ATOM     23  N   UNL     1      -0.619  10.320  19.887  0.00  0.00    +0.000 N 
ATOM     24  C   UNL     1      -0.165   9.147  20.671  0.00  0.00    +0.000 C 
ATOM     25  C   UNL     1       1.330   8.771  20.409  0.00  0.00    +0.000 C 
BRANCH  23  26
ATOM     26  C   UNL     1      -0.887  11.553  20.478  0.00  0.00    +0.000 A 
ATOM     27  C   UNL     1      -0.276  11.971  21.672  0.00  0.00    +0.000 A 
ATOM     28  C   UNL     1      -0.522  13.236  22.196  0.00  0.00    +0.000 A 
ATOM     29  N   UNL     1      -1.343  14.133  21.623  0.00  0.00    +0.000 NA
ATOM     30  C   UNL     1      -1.925  13.740  20.475  0.00  0.00    +0.000 A 
ATOM     31  C   UNL     1      -1.723  12.500  19.879  0.00  0.00    +0.000 A 
ENDBRANCH  23  26
ENDBRANCH  19  20
ENDBRANCH  18  19
ENDBRANCH  17  18
ENDBRANCH   1  17
TORSDOF 7
ENDMDL
MODEL 6
REMARK VINA RESULT:      -7.9      6.032      8.566
REMARK  Name = 
REMARK  9 active torsions:
REMARK  status: ('A' for Active; 'I' for Inactive)
REMARK    1  A    between atoms: C_1  and  C_2
REMARK    2  A    between atoms: C_2  and  C_4
REMARK    3  A    between atoms: C_5  and  O_6
REMARK    4  A    between atoms: O_6  and  C_7
REMARK    5  A    between atoms: C_7  and  C_8
REMARK    6  A    between atoms: C_8  and  C_9
REMARK    7  A    between atoms: C_9  and  N_10
REMARK    8  A    between atoms: N_13  and  C_14
REMARK    9  A    between atoms: C_25  and  C_26
REMARK                            x       y       z     vdW  Elec       q    Type
REMARK                         _______ _______ _______ _____ _____    ______ ____
ROOT
ATOM      1  O   UNL     1       7.678   7.513  17.155  0.00  0.00    +0.000 OA
ENDROOT
BRANCH   1   3
ATOM      2  C   UNL     1       6.570   5.615  18.122  0.00  0.00    +0.000 A 
ATOM      3  C   UNL     1       6.517   6.816  17.400  0.00  0.00    +0.000 A 
ATOM      4  C   UNL     1       5.270   7.249  16.919  0.00  0.00    +0.000 A 
ATOM      5  C   UNL     1       4.097   6.532  17.172  0.00  0.00    +0.000 A 
ATOM      6  C   UNL     1       4.128   5.337  17.886  0.00  0.00    +0.000 A 
ATOM      7  C   UNL     1       2.923   4.543  18.176  0.00  0.00    +0.000 A 
ATOM      8  C   UNL     1       1.536   5.002  17.826  0.00  0.00    +0.000 C 
ATOM      9  C   UNL     1       3.077   3.360  18.788  0.00  0.00    +0.000 A 
ATOM     10  C   UNL     1       4.375   2.829  19.222  0.00  0.00    +0.000 A 
ATOM     11  O   UNL     1       4.453   1.725  19.745  0.00  0.00    +0.000 OA
ATOM     12  O   UNL     1       5.463   3.663  19.049  0.00  0.00    +0.000 OA
ATOM     13  C   UNL     1       5.380   4.885  18.337  0.00  0.00    +0.000 A 
BRANCH   2  15
ATOM     14  C   UNL     1       8.371   5.608  19.972  0.00  0.00    +0.000 C 
ATOM     15  C   UNL     1       7.857   5.085  18.655  0.00  0.00    +0.000 C 
ATOM     16  O   UNL     1       8.485   4.235  18.028  0.00  0.00    +0.000 OA
ENDBRANCH   2  15
ENDBRANCH   1   3
BRANCH   1  17
ATOM     17  C   UNL     1       7.657   8.878  17.595  0.00  0.00    +0.000 C 
BRANCH  17  18
ATOM     18  C   UNL     1       8.778   9.154  18.599  0.00  0.00    +0.000 C 
BRANCH  18  19
ATOM     19  C   UNL     1       9.537  10.451  18.238  0.00  0.00    +0.000 C 
BRANCH  19  20
ATOM     20  N   UNL     1      10.046  11.125  19.439  0.00  0.00    +0.000 NA
ATOM     21  C   UNL     1      11.161  12.053  19.169  0.00  0.00    +0.000 C 
ATOM     22  C   UNL     1      10.680  13.407  18.628  0.00  0.00    +0.000 C 
ATOM     23  N   UNL     1       9.922  14.087  19.684  0.00  0.00    +0.000 N 
ATOM     24  C   UNL     1       8.726  13.309  20.088  0.00  0.00    +0.000 C 
ATOM     25  C   UNL     1       9.017  11.784  20.276  0.00  0.00    +0.000 C 
BRANCH  23  26
ATOM     26  C   UNL     1      10.553  14.983  20.545  0.00  0.00    +0.000 A 
ATOM     27  C   UNL     1      11.549  15.876  20.113  0.00  0.00    +0.000 A 
ATOM     28  C   UNL     1      12.108  16.799  20.991  0.00  0.00    +0.000 A 
ATOM     29  N   UNL     1      11.758  16.906  22.284  0.00  0.00    +0.000 NA
ATOM     30  C   UNL     1      10.800  16.058  22.700  0.00  0.00    +0.000 A 
ATOM     31  C   UNL     1      10.181  15.115  21.886  0.00  0.00    +0.000 A 
ENDBRANCH  23  26
ENDBRANCH  19  20
ENDBRANCH  18  19
ENDBRANCH  17  18
ENDBRANCH   1  17
TORSDOF 7
ENDMDL
MODEL 7
REMARK VINA RESULT:      -7.8      1.623      2.630
REMARK  Name = 
REMARK  9 active torsions:
REMARK  status: ('A' for Active; 'I' for Inactive)
REMARK    1  A    between atoms: C_1  and  C_2
REMARK    2  A    between atoms: C_2  and  C_4
REMARK    3  A    between atoms: C_5  and  O_6
REMARK    4  A    between atoms: O_6  and  C_7
REMARK    5  A    between atoms: C_7  and  C_8
REMARK    6  A    between atoms: C_8  and  C_9
REMARK    7  A    between atoms: C_9  and  N_10
REMARK    8  A    between atoms: N_13  and  C_14
REMARK    9  A    between atoms: C_25  and  C_26
REMARK                            x       y       z     vdW  Elec       q    Type
REMARK                         _______ _______ _______ _____ _____    ______ ____
ROOT
ATOM      1  O   UNL     1       4.588   5.287  18.460  0.00  0.00    +0.000 OA
ENDROOT
BRANCH   1   3
ATOM      2  C   UNL     1       6.158   5.466  16.653  0.00  0.00    +0.000 A 
ATOM      3  C   UNL     1       4.980   4.927  17.192  0.00  0.00    +0.000 A 
ATOM      4  C   UNL     1       4.218   4.059  16.392  0.00  0.00    +0.000 A 
ATOM      5  C   UNL     1       4.626   3.702  15.104  0.00  0.00    +0.000 A 
ATOM      6  C   UNL     1       5.792   4.225  14.549  0.00  0.00    +0.000 A 
ATOM      7  C   UNL     1       6.262   3.884  13.197  0.00  0.00    +0.000 A 
ATOM      8  C   UNL     1       5.589   2.857  12.331  0.00  0.00    +0.000 C 
ATOM      9  C   UNL     1       7.346   4.518  12.726  0.00  0.00    +0.000 A 
ATOM     10  C   UNL     1       8.114   5.503  13.497  0.00  0.00    +0.000 A 
ATOM     11  O   UNL     1       9.076   6.072  12.997  0.00  0.00    +0.000 OA
ATOM     12  O   UNL     1       7.717   5.696  14.806  0.00  0.00    +0.000 OA
ATOM     13  C   UNL     1       6.535   5.121  15.336  0.00  0.00    +0.000 A 
BRANCH   2  15
ATOM     14  C   UNL     1       7.767   5.875  18.630  0.00  0.00    +0.000 C 
ATOM     15  C   UNL     1       7.014   6.402  17.436  0.00  0.00    +0.000 C 
ATOM     16  O   UNL     1       7.101   7.583  17.108  0.00  0.00    +0.000 OA
ENDBRANCH   2  15
ENDBRANCH   1   3
BRANCH   1  17
ATOM     17  C   UNL     1       3.789   4.307  19.137  0.00  0.00    +0.000 C 
BRANCH  17  18
ATOM     18  C   UNL     1       2.444   4.892  19.571  0.00  0.00    +0.000 C 
BRANCH  18  19
ATOM     19  C   UNL     1       2.039   6.078  18.667  0.00  0.00    +0.000 C 
BRANCH  19  20
ATOM     20  N   UNL     1       2.586   7.345  19.170  0.00  0.00    +0.000 NA
ATOM     21  C   UNL     1       2.769   8.368  18.122  0.00  0.00    +0.000 C 
ATOM     22  C   UNL     1       1.460   9.088  17.769  0.00  0.00    +0.000 C 
ATOM     23  N   UNL     1       1.032   9.870  18.934  0.00  0.00    +0.000 N 
ATOM     24  C   UNL     1       0.771   9.004  20.109  0.00  0.00    +0.000 C 
ATOM     25  C   UNL     1       1.876   7.921  20.334  0.00  0.00    +0.000 C 
BRANCH  23  26
ATOM     26  C   UNL     1       1.395  11.209  19.061  0.00  0.00    +0.000 A 
ATOM     27  C   UNL     1       1.087  11.974  20.199  0.00  0.00    +0.000 A 
ATOM     28  C   UNL     1       1.524  13.290  20.315  0.00  0.00    +0.000 A 
ATOM     29  N   UNL     1       2.251  13.919  19.375  0.00  0.00    +0.000 NA
ATOM     30  C   UNL     1       2.555  13.188  18.287  0.00  0.00    +0.000 A 
ATOM     31  C   UNL     1       2.168  11.866  18.099  0.00  0.00    +0.000 A 
ENDBRANCH  23  26
ENDBRANCH  19  20
ENDBRANCH  18  19
ENDBRANCH  17  18
ENDBRANCH   1  17
TORSDOF 7
ENDMDL
MODEL 8
REMARK VINA RESULT:      -7.8      1.474      2.678
REMARK  Name = 
REMARK  9 active torsions:
REMARK  status: ('A' for Active; 'I' for Inactive)
REMARK    1  A    between atoms: C_1  and  C_2
REMARK    2  A    between atoms: C_2  and  C_4
REMARK    3  A    between atoms: C_5  and  O_6
REMARK    4  A    between atoms: O_6  and  C_7
REMARK    5  A    between atoms: C_7  and  C_8
REMARK    6  A    between atoms: C_8  and  C_9
REMARK    7  A    between atoms: C_9  and  N_10
REMARK    8  A    between atoms: N_13  and  C_14
REMARK    9  A    between atoms: C_25  and  C_26
REMARK                            x       y       z     vdW  Elec       q    Type
REMARK                         _______ _______ _______ _____ _____    ______ ____
ROOT
ATOM      1  O   UNL     1       4.826   4.759  18.674  0.00  0.00    +0.000 OA
ENDROOT
BRANCH   1   3
ATOM      2  C   UNL     1       6.315   5.085  16.820  0.00  0.00    +0.000 A 
ATOM      3  C   UNL     1       5.122   4.567  17.344  0.00  0.00    +0.000 A 
ATOM      4  C   UNL     1       4.247   3.896  16.474  0.00  0.00    +0.000 A 
ATOM      5  C   UNL     1       4.558   3.709  15.123  0.00  0.00    +0.000 A 
ATOM      6  C   UNL     1       5.737   4.215  14.582  0.00  0.00    +0.000 A 
ATOM      7  C   UNL     1       6.109   4.048  13.168  0.00  0.00    +0.000 A 
ATOM      8  C   UNL     1       5.306   3.223  12.202  0.00  0.00    +0.000 C 
ATOM      9  C   UNL     1       7.220   4.657  12.730  0.00  0.00    +0.000 A 
ATOM     10  C   UNL     1       8.109   5.448  13.589  0.00  0.00    +0.000 A 
ATOM     11  O   UNL     1       9.092   6.008  13.120  0.00  0.00    +0.000 OA
ATOM     12  O   UNL     1       7.795   5.470  14.934  0.00  0.00    +0.000 OA
ATOM     13  C   UNL     1       6.595   4.918  15.445  0.00  0.00    +0.000 A 
BRANCH   2  15
ATOM     14  C   UNL     1       7.429   7.310  17.507  0.00  0.00    +0.000 C 
ATOM     15  C   UNL     1       7.287   5.819  17.678  0.00  0.00    +0.000 C 
ATOM     16  O   UNL     1       7.960   5.215  18.510  0.00  0.00    +0.000 OA
ENDBRANCH   2  15
ENDBRANCH   1   3
BRANCH   1  17
ATOM     17  C   UNL     1       3.503   4.354  19.054  0.00  0.00    +0.000 C 
BRANCH  17  18
ATOM     18  C   UNL     1       2.730   5.510  19.691  0.00  0.00    +0.000 C 
BRANCH  18  19
ATOM     19  C   UNL     1       2.305   6.546  18.626  0.00  0.00    +0.000 C 
BRANCH  19  20
ATOM     20  N   UNL     1       2.529   7.919  19.095  0.00  0.00    +0.000 NA
ATOM     21  C   UNL     1       2.204   8.949  18.089  0.00  0.00    +0.000 C 
ATOM     22  C   UNL     1       0.697   9.235  18.008  0.00  0.00    +0.000 C 
ATOM     23  N   UNL     1       0.273   9.849  19.271  0.00  0.00    +0.000 N 
ATOM     24  C   UNL     1       0.502   8.946  20.424  0.00  0.00    +0.000 C 
ATOM     25  C   UNL     1       1.903   8.251  20.395  0.00  0.00    +0.000 C 
BRANCH  23  26
ATOM     26  C   UNL     1       0.234  11.236  19.407  0.00  0.00    +0.000 A 
ATOM     27  C   UNL     1       0.842  11.909  20.480  0.00  0.00    +0.000 A 
ATOM     28  C   UNL     1       0.837  13.299  20.546  0.00  0.00    +0.000 A 
ATOM     29  N   UNL     1       0.264  14.087  19.619  0.00  0.00    +0.000 NA
ATOM     30  C   UNL     1      -0.313  13.446  18.586  0.00  0.00    +0.000 A 
ATOM     31  C   UNL     1      -0.341  12.063  18.439  0.00  0.00    +0.000 A 
ENDBRANCH  23  26
ENDBRANCH  19  20
ENDBRANCH  18  19
ENDBRANCH  17  18
ENDBRANCH   1  17
TORSDOF 7
ENDMDL
MODEL 9
REMARK VINA RESULT:      -7.8      0.750      1.159
REMARK  Name = 
REMARK  9 active torsions:
REMARK  status: ('A' for Active; 'I' for Inactive)
REMARK    1  A    between atoms: C_1  and  C_2
REMARK    2  A    between atoms: C_2  and  C_4
REMARK    3  A    between atoms: C_5  and  O_6
REMARK    4  A    between atoms: O_6  and  C_7
REMARK    5  A    between atoms: C_7  and  C_8
REMARK    6  A    between atoms: C_8  and  C_9
REMARK    7  A    between atoms: C_9  and  N_10
REMARK    8  A    between atoms: N_13  and  C_14
REMARK    9  A    between atoms: C_25  and  C_26
REMARK                            x       y       z     vdW  Elec       q    Type
REMARK                         _______ _______ _______ _____ _____    ______ ____
ROOT
ATOM      1  O   UNL     1       5.134   4.505  18.461  0.00  0.00    +0.000 OA
ENDROOT
BRANCH   1   3
ATOM      2  C   UNL     1       6.523   5.040  16.577  0.00  0.00    +0.000 A 
ATOM      3  C   UNL     1       5.446   4.333  17.132  0.00  0.00    +0.000 A 
ATOM      4  C   UNL     1       4.695   3.495  16.291  0.00  0.00    +0.000 A 
ATOM      5  C   UNL     1       5.020   3.329  14.941  0.00  0.00    +0.000 A 
ATOM      6  C   UNL     1       6.085   4.022  14.370  0.00  0.00    +0.000 A 
ATOM      7  C   UNL     1       6.466   3.885  12.955  0.00  0.00    +0.000 A 
ATOM      8  C   UNL     1       5.812   2.906  12.022  0.00  0.00    +0.000 C 
ATOM      9  C   UNL     1       7.447   4.670  12.485  0.00  0.00    +0.000 A 
ATOM     10  C   UNL     1       8.191   5.627  13.312  0.00  0.00    +0.000 A 
ATOM     11  O   UNL     1       9.054   6.340  12.815  0.00  0.00    +0.000 OA
ATOM     12  O   UNL     1       7.892   5.630  14.661  0.00  0.00    +0.000 OA
ATOM     13  C   UNL     1       6.814   4.888  15.202  0.00  0.00    +0.000 A 
BRANCH   2  15
ATOM     14  C   UNL     1       8.040   5.413  18.632  0.00  0.00    +0.000 C 
ATOM     15  C   UNL     1       7.359   5.957  17.402  0.00  0.00    +0.000 C 
ATOM     16  O   UNL     1       7.489   7.136  17.081  0.00  0.00    +0.000 OA
ENDBRANCH   2  15
ENDBRANCH   1   3
BRANCH   1  17
ATOM     17  C   UNL     1       4.733   3.306  19.137  0.00  0.00    +0.000 C 
BRANCH  17  18
ATOM     18  C   UNL     1       3.388   2.798  18.614  0.00  0.00    +0.000 C 
BRANCH  18  19
ATOM     19  C   UNL     1       2.298   2.891  19.706  0.00  0.00    +0.000 C 
BRANCH  19  20
ATOM     20  N   UNL     1       1.396   4.025  19.466  0.00  0.00    +0.000 NA
ATOM     21  C   UNL     1       1.362   5.000  20.573  0.00  0.00    +0.000 C 
ATOM     22  C   UNL     1       2.559   5.961  20.546  0.00  0.00    +0.000 C 
ATOM     23  N   UNL     1       2.450   6.804  19.350  0.00  0.00    +0.000 N 
ATOM     24  C   UNL     1       2.487   5.998  18.106  0.00  0.00    +0.000 C 
ATOM     25  C   UNL     1       1.587   4.720  18.173  0.00  0.00    +0.000 C 
BRANCH  23  26
ATOM     26  C   UNL     1       1.822   8.047  19.414  0.00  0.00    +0.000 A 
ATOM     27  C   UNL     1       1.634   8.861  18.284  0.00  0.00    +0.000 A 
ATOM     28  C   UNL     1       0.946  10.066  18.378  0.00  0.00    +0.000 A 
ATOM     29  N   UNL     1       0.425  10.539  19.523  0.00  0.00    +0.000 NA
ATOM     30  C   UNL     1       0.596   9.759  20.607  0.00  0.00    +0.000 A 
ATOM     31  C   UNL     1       1.260   8.538  20.595  0.00  0.00    +0.000 A 
ENDBRANCH  23  26
ENDBRANCH  19  20
ENDBRANCH  18  19
ENDBRANCH  17  18
ENDBRANCH   1  17
TORSDOF 7
ENDMDL
