MODEL 1
REMARK VINA RESULT:      -8.3      0.000      0.000
REMARK  Name = 
REMARK  9 active torsions:
REMARK  status: ('A' for Active; 'I' for Inactive)
REMARK    1  A    between atoms: C_1  and  O_2
REMARK    2  A    between atoms: O_2  and  C_3
REMARK    3  A    between atoms: C_6  and  C_7
REMARK    4  A    between atoms: C_7  and  N_8
REMARK    5  A    between atoms: C_7  and  C_16
REMARK    6  A    between atoms: C_9  and  C_11
REMARK    7  A    between atoms: C_11  and  N_12
REMARK    8  A    between atoms: C_13  and  C_14
REMARK    9  A    between atoms: N_18  and  C_19
REMARK                            x       y       z     vdW  Elec       q    Type
REMARK                         _______ _______ _______ _____ _____    ______ ____
ROOT
ATOM      1  C   UNL     1       6.914   5.314  16.710  0.00  0.00    +0.000 C 
ENDROOT
BRANCH   1   5
ATOM      2  C   UNL     1       6.701   3.878  12.616  0.00  0.00    +0.000 A 
ATOM      3  C   UNL     1       5.910   3.318  13.618  0.00  0.00    +0.000 A 
ATOM      4  C   UNL     1       5.953   3.817  14.924  0.00  0.00    +0.000 A 
ATOM      5  C   UNL     1       6.804   4.881  15.255  0.00  0.00    +0.000 A 
ATOM      6  C   UNL     1       7.575   5.452  14.229  0.00  0.00    +0.000 A 
ATOM      7  C   UNL     1       7.524   4.957  12.923  0.00  0.00    +0.000 A 
BRANCH   2   9
ATOM      8  C   UNL     1       5.771   2.128  11.320  0.00  0.00    +0.000 C 
ATOM      9  O   UNL     1       6.618   3.268  11.395  0.00  0.00    +0.000 OA
ENDBRANCH   2   9
ENDBRANCH   1   5
BRANCH   1  10
ATOM     10  N   UNL     1       7.077   6.768  16.794  0.00  0.00    +0.000 N 
ATOM     11  C   UNL     1       7.788   7.372  17.808  0.00  0.00    +0.000 C 
ATOM     12  O   UNL     1       8.321   6.763  18.730  0.00  0.00    +0.000 OA
ATOM     13  H   UNL     1       6.472   7.381  16.265  0.00  0.00    +0.000 HD
BRANCH  11  14
ATOM     14  C   UNL     1       7.769   8.902  17.738  0.00  0.00    +0.000 C 
BRANCH  14  15
ATOM     15  N   UNL     1       8.693   9.469  18.702  0.00  0.00    +0.000 N 
ATOM     16  C   UNL     1       9.094  10.782  18.605  0.00  0.00    +0.000 C 
ATOM     17  C   UNL     1      10.064  11.214  19.683  0.00  0.00    +0.000 C 
ATOM     18  O   UNL     1       8.697  11.534  17.714  0.00  0.00    +0.000 OA
ATOM     19  H   UNL     1       8.830   8.966  19.570  0.00  0.00    +0.000 HD
ENDBRANCH  14  15
ENDBRANCH  11  14
ENDBRANCH   1  10
BRANCH   1  20
ATOM     20  C   UNL     1       5.743   4.808  17.585  0.00  0.00    +0.000 C 
ATOM     21  O   UNL     1       5.956   4.155  18.607  0.00  0.00    +0.000 OA
ATOM     22  N   UNL     1       4.470   5.096  17.080  0.00  0.00    +0.000 N 
ATOM     23  H   UNL     1       4.400   5.868  16.434  0.00  0.00    +0.000 HD
BRANCH  22  24
ATOM     24  C   UNL     1       3.313   4.812  17.821  0.00  0.00    +0.000 A 
ATOM     25  C   UNL     1       2.248   4.091  17.276  0.00  0.00    +0.000 A 
ATOM     26  C   UNL     1       1.288   3.532  18.115  0.00  0.00    +0.000 A 
ATOM     27  C   UNL     1       1.434   3.669  19.491  0.00  0.00    +0.000 A 
ATOM     28  C   UNL     1       2.421   4.512  20.006  0.00  0.00    +0.000 A 
ATOM     29  C   UNL     1       3.332   5.143  19.172  0.00  0.00    +0.000 A 
ATOM     30  O   UNL     1       2.618   4.647  21.357  0.00  0.00    +0.000 OA
ATOM     31  C   UNL     1       2.454   3.349  21.928  0.00  0.00    +0.000 C 
ATOM     32  C   UNL     1       1.059   2.803  21.642  0.00  0.00    +0.000 C 
ATOM     33  O   UNL     1       0.638   2.883  20.274  0.00  0.00    +0.000 OA
ENDBRANCH  22  24
ENDBRANCH   1  20
TORSDOF 7
ENDMDL
MODEL 2
REMARK VINA RESULT:      -8.0      1.871      8.833
REMARK  Name = 
REMARK  9 active torsions:
REMARK  status: ('A' for Active; 'I' for Inactive)
REMARK    1  A    between atoms: C_1  and  O_2
REMARK    2  A    between atoms: O_2  and  C_3
REMARK    3  A    between atoms: C_6  and  C_7
REMARK    4  A    between atoms: C_7  and  N_8
REMARK    5  A    between atoms: C_7  and  C_16
REMARK    6  A    between atoms: C_9  and  C_11
REMARK    7  A    between atoms: C_11  and  N_12
REMARK    8  A    between atoms: C_13  and  C_14
REMARK    9  A    between atoms: N_18  and  C_19
REMARK                            x       y       z     vdW  Elec       q    Type
REMARK                         _______ _______ _______ _____ _____    ______ ____
ROOT
ATOM      1  C   UNL     1       7.228   6.752  17.530  0.00  0.00    +0.000 C 
ENDROOT
BRANCH   1   5
ATOM      2  C   UNL     1       3.333   5.550  19.031  0.00  0.00    +0.000 A 
ATOM      3  C   UNL     1       4.507   5.124  19.651  0.00  0.00    +0.000 A 
ATOM      4  C   UNL     1       5.755   5.552  19.187  0.00  0.00    +0.000 A 
ATOM      5  C   UNL     1       5.851   6.408  18.080  0.00  0.00    +0.000 A 
ATOM      6  C   UNL     1       4.658   6.848  17.482  0.00  0.00    +0.000 A 
ATOM      7  C   UNL     1       3.413   6.425  17.952  0.00  0.00    +0.000 A 
BRANCH   2   9
ATOM      8  C   UNL     1       2.197   3.619  19.801  0.00  0.00    +0.000 C 
ATOM      9  O   UNL     1       2.179   5.016  19.535  0.00  0.00    +0.000 OA
ENDBRANCH   2   9
ENDBRANCH   1   5
BRANCH   1  10
ATOM     10  N   UNL     1       7.335   6.322  16.133  0.00  0.00    +0.000 N 
ATOM     11  C   UNL     1       7.204   5.002  15.757  0.00  0.00    +0.000 C 
ATOM     12  O   UNL     1       7.012   4.080  16.543  0.00  0.00    +0.000 OA
ATOM     13  H   UNL     1       7.755   6.928  15.442  0.00  0.00    +0.000 HD
BRANCH  11  14
ATOM     14  C   UNL     1       7.425   4.771  14.259  0.00  0.00    +0.000 C 
BRANCH  14  15
ATOM     15  N   UNL     1       6.281   4.098  13.672  0.00  0.00    +0.000 N 
ATOM     16  C   UNL     1       6.311   3.670  12.365  0.00  0.00    +0.000 C 
ATOM     17  C   UNL     1       5.037   2.994  11.906  0.00  0.00    +0.000 C 
ATOM     18  O   UNL     1       7.290   3.828  11.635  0.00  0.00    +0.000 OA
ATOM     19  H   UNL     1       5.579   3.732  14.304  0.00  0.00    +0.000 HD
ENDBRANCH  14  15
ENDBRANCH  11  14
ENDBRANCH   1  10
BRANCH   1  20
ATOM     20  C   UNL     1       7.599   8.242  17.711  0.00  0.00    +0.000 C 
ATOM     21  O   UNL     1       7.042   9.116  17.046  0.00  0.00    +0.000 OA
ATOM     22  N   UNL     1       8.640   8.478  18.616  0.00  0.00    +0.000 N 
ATOM     23  H   UNL     1       8.811   7.766  19.309  0.00  0.00    +0.000 HD
BRANCH  22  24
ATOM     24  C   UNL     1       9.004   9.784  18.979  0.00  0.00    +0.000 A 
ATOM     25  C   UNL     1       9.103  10.176  20.317  0.00  0.00    +0.000 A 
ATOM     26  C   UNL     1       9.788  11.340  20.648  0.00  0.00    +0.000 A 
ATOM     27  C   UNL     1      10.401  12.073  19.639  0.00  0.00    +0.000 A 
ATOM     28  C   UNL     1      10.169  11.745  18.300  0.00  0.00    +0.000 A 
ATOM     29  C   UNL     1       9.414  10.633  17.956  0.00  0.00    +0.000 A 
ATOM     30  O   UNL     1      10.781  12.422  17.277  0.00  0.00    +0.000 OA
ATOM     31  C   UNL     1      12.120  12.683  17.699  0.00  0.00    +0.000 C 
ATOM     32  C   UNL     1      12.132  13.516  18.976  0.00  0.00    +0.000 C 
ATOM     33  O   UNL     1      11.284  13.040  20.029  0.00  0.00    +0.000 OA
ENDBRANCH  22  24
ENDBRANCH   1  20
TORSDOF 7
ENDMDL
MODEL 3
REMARK VINA RESULT:      -7.9      5.069      7.353
REMARK  Name = 
REMARK  9 active torsions:
REMARK  status: ('A' for Active; 'I' for Inactive)
REMARK    1  A    between atoms: C_1  and  O_2
REMARK    2  A    between atoms: O_2  and  C_3
REMARK    3  A    between atoms: C_6  and  C_7
REMARK    4  A    between atoms: C_7  and  N_8
REMARK    5  A    between atoms: C_7  and  C_16
REMARK    6  A    between atoms: C_9  and  C_11
REMARK    7  A    between atoms: C_11  and  N_12
REMARK    8  A    between atoms: C_13  and  C_14
REMARK    9  A    between atoms: N_18  and  C_19
REMARK                            x       y       z     vdW  Elec       q    Type
REMARK                         _______ _______ _______ _____ _____    ______ ____
ROOT
ATOM      1  C   UNL     1       3.285   7.353  18.468  0.00  0.00    +0.000 C 
ENDROOT
BRANCH   1   5
ATOM      2  C   UNL     1       1.229   3.649  19.429  0.00  0.00    +0.000 A 
ATOM      3  C   UNL     1       1.655   4.517  20.433  0.00  0.00    +0.000 A 
ATOM      4  C   UNL     1       2.276   5.729  20.112  0.00  0.00    +0.000 A 
ATOM      5  C   UNL     1       2.496   6.087  18.774  0.00  0.00    +0.000 A 
ATOM      6  C   UNL     1       2.039   5.213  17.774  0.00  0.00    +0.000 A 
ATOM      7  C   UNL     1       1.411   4.007  18.097  0.00  0.00    +0.000 A 
BRANCH   2   9
ATOM      8  C   UNL     1       0.859   1.347  19.008  0.00  0.00    +0.000 C 
ATOM      9  O   UNL     1       0.691   2.470  19.865  0.00  0.00    +0.000 OA
ENDBRANCH   2   9
ENDBRANCH   1   5
BRANCH   1  10
ATOM     10  N   UNL     1       4.285   7.085  17.430  0.00  0.00    +0.000 N 
ATOM     11  C   UNL     1       5.419   6.341  17.674  0.00  0.00    +0.000 C 
ATOM     12  O   UNL     1       5.704   5.862  18.766  0.00  0.00    +0.000 OA
ATOM     13  H   UNL     1       4.305   7.640  16.585  0.00  0.00    +0.000 HD
BRANCH  11  14
ATOM     14  C   UNL     1       6.358   6.250  16.468  0.00  0.00    +0.000 C 
BRANCH  14  15
ATOM     15  N   UNL     1       5.913   5.219  15.550  0.00  0.00    +0.000 N 
ATOM     16  C   UNL     1       6.664   4.887  14.445  0.00  0.00    +0.000 C 
ATOM     17  C   UNL     1       6.056   3.799  13.587  0.00  0.00    +0.000 C 
ATOM     18  O   UNL     1       7.735   5.434  14.181  0.00  0.00    +0.000 OA
ATOM     19  H   UNL     1       5.188   4.589  15.870  0.00  0.00    +0.000 HD
ENDBRANCH  14  15
ENDBRANCH  11  14
ENDBRANCH   1  10
BRANCH   1  20
ATOM     20  C   UNL     1       2.386   8.559  18.114  0.00  0.00    +0.000 C 
ATOM     21  O   UNL     1       2.528   9.161  17.050  0.00  0.00    +0.000 OA
ATOM     22  N   UNL     1       1.480   8.925  19.116  0.00  0.00    +0.000 N 
ATOM     23  H   UNL     1       1.233   8.215  19.788  0.00  0.00    +0.000 HD
BRANCH  22  24
ATOM     24  C   UNL     1       0.514   9.919  18.893  0.00  0.00    +0.000 A 
ATOM     25  C   UNL     1      -0.471   9.781  17.910  0.00  0.00    +0.000 A 
ATOM     26  C   UNL     1      -1.599  10.594  17.943  0.00  0.00    +0.000 A 
ATOM     27  C   UNL     1      -1.746  11.503  18.984  0.00  0.00    +0.000 A 
ATOM     28  C   UNL     1      -0.688  11.725  19.870  0.00  0.00    +0.000 A 
ATOM     29  C   UNL     1       0.478  10.978  19.793  0.00  0.00    +0.000 A 
ATOM     30  O   UNL     1      -0.806  12.588  20.929  0.00  0.00    +0.000 OA
ATOM     31  C   UNL     1      -2.121  12.415  21.457  0.00  0.00    +0.000 C 
ATOM     32  C   UNL     1      -3.174  12.721  20.397  0.00  0.00    +0.000 C 
ATOM     33  O   UNL     1      -2.977  12.076  19.132  0.00  0.00    +0.000 OA
ENDBRANCH  22  24
ENDBRANCH   1  20
TORSDOF 7
ENDMDL
MODEL 4
REMARK VINA RESULT:      -7.8      5.294      7.861
REMARK  Name = 
REMARK  9 active torsions:
REMARK  status: ('A' for Active; 'I' for Inactive)
REMARK    1  A    between atoms: C_1  and  O_2
REMARK    2  A    between atoms: O_2  and  C_3
REMARK    3  A    between atoms: C_6  and  C_7
REMARK    4  A    between atoms: C_7  and  N_8
REMARK    5  A    between atoms: C_7  and  C_16
REMARK    6  A    between atoms: C_9  and  C_11
REMARK    7  A    between atoms: C_11  and  N_12
REMARK    8  A    between atoms: C_13  and  C_14
REMARK    9  A    between atoms: N_18  and  C_19
REMARK                            x       y       z     vdW  Elec       q    Type
REMARK                         _______ _______ _______ _____ _____    ______ ____
ROOT
ATOM      1  C   UNL     1       3.164   7.587  18.462  0.00  0.00    +0.000 C 
ENDROOT
BRANCH   1   5
ATOM      2  C   UNL     1       1.345   3.846  19.713  0.00  0.00    +0.000 A 
ATOM      3  C   UNL     1       1.685   4.828  20.642  0.00  0.00    +0.000 A 
ATOM      4  C   UNL     1       2.229   6.047  20.226  0.00  0.00    +0.000 A 
ATOM      5  C   UNL     1       2.457   6.301  18.865  0.00  0.00    +0.000 A 
ATOM      6  C   UNL     1       2.086   5.311  17.940  0.00  0.00    +0.000 A 
ATOM      7  C   UNL     1       1.535   4.098  18.358  0.00  0.00    +0.000 A 
BRANCH   2   9
ATOM      8  C   UNL     1       1.321   2.363  21.560  0.00  0.00    +0.000 C 
ATOM      9  O   UNL     1       0.879   2.675  20.244  0.00  0.00    +0.000 OA
ENDBRANCH   2   9
ENDBRANCH   1   5
BRANCH   1  10
ATOM     10  N   UNL     1       4.115   7.322  17.378  0.00  0.00    +0.000 N 
ATOM     11  C   UNL     1       5.223   6.521  17.551  0.00  0.00    +0.000 C 
ATOM     12  O   UNL     1       5.525   5.985  18.613  0.00  0.00    +0.000 OA
ATOM     13  H   UNL     1       4.130   7.910  16.557  0.00  0.00    +0.000 HD
BRANCH  11  14
ATOM     14  C   UNL     1       6.116   6.441  16.310  0.00  0.00    +0.000 C 
BRANCH  14  15
ATOM     15  N   UNL     1       5.691   5.358  15.443  0.00  0.00    +0.000 N 
ATOM     16  C   UNL     1       6.538   4.845  14.489  0.00  0.00    +0.000 C 
ATOM     17  C   UNL     1       5.939   3.726  13.664  0.00  0.00    +0.000 C 
ATOM     18  O   UNL     1       7.684   5.265  14.322  0.00  0.00    +0.000 OA
ATOM     19  H   UNL     1       4.871   4.832  15.720  0.00  0.00    +0.000 HD
ENDBRANCH  14  15
ENDBRANCH  11  14
ENDBRANCH   1  10
BRANCH   1  20
ATOM     20  C   UNL     1       2.187   8.734  18.112  0.00  0.00    +0.000 C 
ATOM     21  O   UNL     1       1.931   9.007  16.939  0.00  0.00    +0.000 OA
ATOM     22  N   UNL     1       1.701   9.443  19.215  0.00  0.00    +0.000 N 
ATOM     23  H   UNL     1       1.720   8.970  20.106  0.00  0.00    +0.000 HD
BRANCH  22  24
ATOM     24  C   UNL     1       0.712  10.428  19.067  0.00  0.00    +0.000 A 
ATOM     25  C   UNL     1      -0.643  10.145  19.262  0.00  0.00    +0.000 A 
ATOM     26  C   UNL     1      -1.547  11.185  19.451  0.00  0.00    +0.000 A 
ATOM     27  C   UNL     1      -1.074  12.492  19.485  0.00  0.00    +0.000 A 
ATOM     28  C   UNL     1       0.254  12.761  19.145  0.00  0.00    +0.000 A 
ATOM     29  C   UNL     1       1.146  11.734  18.870  0.00  0.00    +0.000 A 
ATOM     30  O   UNL     1       0.766  14.032  19.199  0.00  0.00    +0.000 OA
ATOM     31  C   UNL     1       0.215  14.650  20.362  0.00  0.00    +0.000 C 
ATOM     32  C   UNL     1      -1.307  14.689  20.283  0.00  0.00    +0.000 C 
ATOM     33  O   UNL     1      -1.937  13.447  19.943  0.00  0.00    +0.000 OA
ENDBRANCH  22  24
ENDBRANCH   1  20
TORSDOF 7
ENDMDL
MODEL 5
REMARK VINA RESULT:      -7.8      4.476      7.375
REMARK  Name = 
REMARK  9 active torsions:
REMARK  status: ('A' for Active; 'I' for Inactive)
REMARK    1  A    between atoms: C_1  and  O_2
REMARK    2  A    between atoms: O_2  and  C_3
REMARK    3  A    between atoms: C_6  and  C_7
REMARK    4  A    between atoms: C_7  and  N_8
REMARK    5  A    between atoms: C_7  and  C_16
REMARK    6  A    between atoms: C_9  and  C_11
REMARK    7  A    between atoms: C_11  and  N_12
REMARK    8  A    between atoms: C_13  and  C_14
REMARK    9  A    between atoms: N_18  and  C_19
REMARK                            x       y       z     vdW  Elec       q    Type
REMARK                         _______ _______ _______ _____ _____    ______ ____
ROOT
ATOM      1  C   UNL     1       2.651   6.212  17.674  0.00  0.00    +0.000 C 
ENDROOT
BRANCH   1   5
ATOM      2  C   UNL     1       6.840   5.335  18.418  0.00  0.00    +0.000 A 
ATOM      3  C   UNL     1       5.877   5.144  19.408  0.00  0.00    +0.000 A 
ATOM      4  C   UNL     1       4.525   5.386  19.145  0.00  0.00    +0.000 A 
ATOM      5  C   UNL     1       4.113   5.841  17.884  0.00  0.00    +0.000 A 
ATOM      6  C   UNL     1       5.091   6.005  16.890  0.00  0.00    +0.000 A 
ATOM      7  C   UNL     1       6.440   5.754  17.153  0.00  0.00    +0.000 A 
BRANCH   2   9
ATOM      8  C   UNL     1       8.429   5.408  20.173  0.00  0.00    +0.000 C 
ATOM      9  O   UNL     1       8.133   5.124  18.811  0.00  0.00    +0.000 OA
ENDBRANCH   2   9
ENDBRANCH   1   5
BRANCH   1  10
ATOM     10  N   UNL     1       1.783   5.238  18.343  0.00  0.00    +0.000 N 
ATOM     11  C   UNL     1       1.562   3.977  17.834  0.00  0.00    +0.000 C 
ATOM     12  O   UNL     1       2.044   3.567  16.783  0.00  0.00    +0.000 OA
ATOM     13  H   UNL     1       1.126   5.540  19.050  0.00  0.00    +0.000 HD
BRANCH  11  14
ATOM     14  C   UNL     1       0.566   3.154  18.655  0.00  0.00    +0.000 C 
BRANCH  14  15
ATOM     15  N   UNL     1       0.834   3.294  20.074  0.00  0.00    +0.000 N 
ATOM     16  C   UNL     1       1.965   2.746  20.634  0.00  0.00    +0.000 C 
ATOM     17  C   UNL     1       2.090   2.975  22.125  0.00  0.00    +0.000 C 
ATOM     18  O   UNL     1       2.798   2.122  19.976  0.00  0.00    +0.000 OA
ATOM     19  H   UNL     1       0.316   4.002  20.580  0.00  0.00    +0.000 HD
ENDBRANCH  14  15
ENDBRANCH  11  14
ENDBRANCH   1  10
BRANCH   1  20
ATOM     20  C   UNL     1       2.327   7.665  18.092  0.00  0.00    +0.000 C 
ATOM     21  O   UNL     1       2.695   8.616  17.402  0.00  0.00    +0.000 OA
ATOM     22  N   UNL     1       1.662   7.786  19.317  0.00  0.00    +0.000 N 
ATOM     23  H   UNL     1       1.150   6.978  19.639  0.00  0.00    +0.000 HD
BRANCH  22  24
ATOM     24  C   UNL     1       1.190   9.028  19.768  0.00  0.00    +0.000 A 
ATOM     25  C   UNL     1       0.551   9.928  18.910  0.00  0.00    +0.000 A 
ATOM     26  C   UNL     1      -0.201  10.972  19.439  0.00  0.00    +0.000 A 
ATOM     27  C   UNL     1      -0.337  11.075  20.819  0.00  0.00    +0.000 A 
ATOM     28  C   UNL     1       0.425  10.256  21.656  0.00  0.00    +0.000 A 
ATOM     29  C   UNL     1       1.245   9.265  21.137  0.00  0.00    +0.000 A 
ATOM     30  O   UNL     1       0.294  10.304  23.021  0.00  0.00    +0.000 OA
ATOM     31  C   UNL     1      -1.097  10.465  23.296  0.00  0.00    +0.000 C 
ATOM     32  C   UNL     1      -1.629  11.746  22.662  0.00  0.00    +0.000 C 
ATOM     33  O   UNL     1      -1.294  11.933  21.281  0.00  0.00    +0.000 OA
ENDBRANCH  22  24
ENDBRANCH   1  20
TORSDOF 7
ENDMDL
MODEL 6
REMARK VINA RESULT:      -7.8      1.097      1.478
REMARK  Name = 
REMARK  9 active torsions:
REMARK  status: ('A' for Active; 'I' for Inactive)
REMARK    1  A    between atoms: C_1  and  O_2
REMARK    2  A    between atoms: O_2  and  C_3
REMARK    3  A    between atoms: C_6  and  C_7
REMARK    4  A    between atoms: C_7  and  N_8
REMARK    5  A    between atoms: C_7  and  C_16
REMARK    6  A    between atoms: C_9  and  C_11
REMARK    7  A    between atoms: C_11  and  N_12
REMARK    8  A    between atoms: C_13  and  C_14
REMARK    9  A    between atoms: N_18  and  C_19
REMARK                            x       y       z     vdW  Elec       q    Type
REMARK                         _______ _______ _______ _____ _____    ______ ____
ROOT
ATOM      1  C   UNL     1       7.483   5.524  16.632  0.00  0.00    +0.000 C 
ENDROOT
BRANCH   1   5
ATOM      2  C   UNL     1       6.352   3.968  12.737  0.00  0.00    +0.000 A 
ATOM      3  C   UNL     1       5.670   3.587  13.891  0.00  0.00    +0.000 A 
ATOM      4  C   UNL     1       6.012   4.128  15.135  0.00  0.00    +0.000 A 
ATOM      5  C   UNL     1       7.059   5.053  15.247  0.00  0.00    +0.000 A 
ATOM      6  C   UNL     1       7.721   5.447  14.072  0.00  0.00    +0.000 A 
ATOM      7  C   UNL     1       7.371   4.911  12.830  0.00  0.00    +0.000 A 
BRANCH   2   9
ATOM      8  C   UNL     1       4.571   3.114  11.430  0.00  0.00    +0.000 C 
ATOM      9  O   UNL     1       5.968   3.327  11.591  0.00  0.00    +0.000 OA
ENDBRANCH   2   9
ENDBRANCH   1   5
BRANCH   1  10
ATOM     10  N   UNL     1       7.587   6.986  16.657  0.00  0.00    +0.000 N 
ATOM     11  C   UNL     1       8.060   7.671  17.755  0.00  0.00    +0.000 C 
ATOM     12  O   UNL     1       8.411   7.135  18.801  0.00  0.00    +0.000 OA
ATOM     13  H   UNL     1       7.085   7.546  15.982  0.00  0.00    +0.000 HD
BRANCH  11  14
ATOM     14  C   UNL     1       8.014   9.193  17.590  0.00  0.00    +0.000 C 
BRANCH  14  15
ATOM     15  N   UNL     1       8.527   9.852  18.777  0.00  0.00    +0.000 N 
ATOM     16  C   UNL     1       9.546  10.771  18.686  0.00  0.00    +0.000 C 
ATOM     17  C   UNL     1       9.970  11.359  20.015  0.00  0.00    +0.000 C 
ATOM     18  O   UNL     1      10.068  11.083  17.615  0.00  0.00    +0.000 OA
ATOM     19  H   UNL     1       7.961   9.812  19.616  0.00  0.00    +0.000 HD
ENDBRANCH  14  15
ENDBRANCH  11  14
ENDBRANCH   1  10
BRANCH   1  20
ATOM     20  C   UNL     1       6.576   4.985  17.761  0.00  0.00    +0.000 C 
ATOM     21  O   UNL     1       7.046   4.316  18.682  0.00  0.00    +0.000 OA
ATOM     22  N   UNL     1       5.214   5.261  17.599  0.00  0.00    +0.000 N 
ATOM     23  H   UNL     1       4.976   6.044  17.009  0.00  0.00    +0.000 HD
BRANCH  22  24
ATOM     24  C   UNL     1       4.285   4.946  18.602  0.00  0.00    +0.000 A 
ATOM     25  C   UNL     1       3.632   5.939  19.339  0.00  0.00    +0.000 A 
ATOM     26  C   UNL     1       2.487   5.623  20.063  0.00  0.00    +0.000 A 
ATOM     27  C   UNL     1       1.987   4.327  20.004  0.00  0.00    +0.000 A 
ATOM     28  C   UNL     1       2.731   3.321  19.381  0.00  0.00    +0.000 A 
ATOM     29  C   UNL     1       3.920   3.610  18.728  0.00  0.00    +0.000 A 
ATOM     30  O   UNL     1       2.257   2.039  19.273  0.00  0.00    +0.000 OA
ATOM     31  C   UNL     1       0.861   2.139  18.988  0.00  0.00    +0.000 C 
ATOM     32  C   UNL     1       0.135   2.886  20.101  0.00  0.00    +0.000 C 
ATOM     33  O   UNL     1       0.728   4.130  20.495  0.00  0.00    +0.000 OA
ENDBRANCH  22  24
ENDBRANCH   1  20
TORSDOF 7
ENDMDL
MODEL 7
REMARK VINA RESULT:      -7.7      2.822      3.449
REMARK  Name = 
REMARK  9 active torsions:
REMARK  status: ('A' for Active; 'I' for Inactive)
REMARK    1  A    between atoms: C_1  and  O_2
REMARK    2  A    between atoms: O_2  and  C_3
REMARK    3  A    between atoms: C_6  and  C_7
REMARK    4  A    between atoms: C_7  and  N_8
REMARK    5  A    between atoms: C_7  and  C_16
REMARK    6  A    between atoms: C_9  and  C_11
REMARK    7  A    between atoms: C_11  and  N_12
REMARK    8  A    between atoms: C_13  and  C_14
REMARK    9  A    between atoms: N_18  and  C_19
REMARK                            x       y       z     vdW  Elec       q    Type
REMARK                         _______ _______ _______ _____ _____    ______ ____
ROOT
ATOM      1  C   UNL     1       6.383   5.776  17.327  0.00  0.00    +0.000 C 
ENDROOT
BRANCH   1   5
ATOM      2  C   UNL     1       6.058   3.861  13.442  0.00  0.00    +0.000 A 
ATOM      3  C   UNL     1       7.160   4.651  13.765  0.00  0.00    +0.000 A 
ATOM      4  C   UNL     1       7.277   5.227  15.035  0.00  0.00    +0.000 A 
ATOM      5  C   UNL     1       6.281   5.033  16.002  0.00  0.00    +0.000 A 
ATOM      6  C   UNL     1       5.190   4.214  15.669  0.00  0.00    +0.000 A 
ATOM      7  C   UNL     1       5.079   3.633  14.403  0.00  0.00    +0.000 A 
BRANCH   2   9
ATOM      8  C   UNL     1       4.734   3.200  11.592  0.00  0.00    +0.000 C 
ATOM      9  O   UNL     1       6.025   3.403  12.153  0.00  0.00    +0.000 OA
ENDBRANCH   2   9
ENDBRANCH   1   5
BRANCH   1  10
ATOM     10  N   UNL     1       7.034   7.075  17.128  0.00  0.00    +0.000 N 
ATOM     11  C   UNL     1       7.948   7.585  18.024  0.00  0.00    +0.000 C 
ATOM     12  O   UNL     1       8.280   7.022  19.062  0.00  0.00    +0.000 OA
ATOM     13  H   UNL     1       6.651   7.743  16.473  0.00  0.00    +0.000 HD
BRANCH  11  14
ATOM     14  C   UNL     1       8.446   8.985  17.655  0.00  0.00    +0.000 C 
BRANCH  14  15
ATOM     15  N   UNL     1       8.824   9.723  18.846  0.00  0.00    +0.000 N 
ATOM     16  C   UNL     1       9.693  10.788  18.769  0.00  0.00    +0.000 C 
ATOM     17  C   UNL     1       9.990  11.442  20.100  0.00  0.00    +0.000 C 
ATOM     18  O   UNL     1      10.185  11.168  17.706  0.00  0.00    +0.000 OA
ATOM     19  H   UNL     1       8.252   9.602  19.673  0.00  0.00    +0.000 HD
ENDBRANCH  14  15
ENDBRANCH  11  14
ENDBRANCH   1  10
BRANCH   1  20
ATOM     20  C   UNL     1       5.026   5.910  18.055  0.00  0.00    +0.000 C 
ATOM     21  O   UNL     1       4.645   5.044  18.843  0.00  0.00    +0.000 OA
ATOM     22  N   UNL     1       4.275   7.032  17.688  0.00  0.00    +0.000 N 
ATOM     23  H   UNL     1       4.781   7.809  17.291  0.00  0.00    +0.000 HD
BRANCH  22  24
ATOM     24  C   UNL     1       3.081   7.356  18.352  0.00  0.00    +0.000 A 
ATOM     25  C   UNL     1       2.700   6.717  19.535  0.00  0.00    +0.000 A 
ATOM     26  C   UNL     1       1.718   7.282  20.342  0.00  0.00    +0.000 A 
ATOM     27  C   UNL     1       1.163   8.503  19.974  0.00  0.00    +0.000 A 
ATOM     28  C   UNL     1       1.452   9.050  18.721  0.00  0.00    +0.000 A 
ATOM     29  C   UNL     1       2.367   8.448  17.870  0.00  0.00    +0.000 A 
ATOM     30  O   UNL     1       0.951  10.267  18.336  0.00  0.00    +0.000 OA
ATOM     31  C   UNL     1       0.997  11.114  19.484  0.00  0.00    +0.000 C 
ATOM     32  C   UNL     1       0.166  10.529  20.621  0.00  0.00    +0.000 C 
ATOM     33  O   UNL     1       0.418   9.149  20.919  0.00  0.00    +0.000 OA
ENDBRANCH  22  24
ENDBRANCH   1  20
TORSDOF 7
ENDMDL
MODEL 8
REMARK VINA RESULT:      -7.7      7.089     11.152
REMARK  Name = 
REMARK  9 active torsions:
REMARK  status: ('A' for Active; 'I' for Inactive)
REMARK    1  A    between atoms: C_1  and  O_2
REMARK    2  A    between atoms: O_2  and  C_3
REMARK    3  A    between atoms: C_6  and  C_7
REMARK    4  A    between atoms: C_7  and  N_8
REMARK    5  A    between atoms: C_7  and  C_16
REMARK    6  A    between atoms: C_9  and  C_11
REMARK    7  A    between atoms: C_11  and  N_12
REMARK    8  A    between atoms: C_13  and  C_14
REMARK    9  A    between atoms: N_18  and  C_19
REMARK                            x       y       z     vdW  Elec       q    Type
REMARK                         _______ _______ _______ _____ _____    ______ ____
ROOT
ATOM      1  C   UNL     1       0.189  10.954  19.979  0.00  0.00    +0.000 C 
ENDROOT
BRANCH   1   5
ATOM      2  C   UNL     1      -3.419  10.964  17.559  0.00  0.00    +0.000 A 
ATOM      3  C   UNL     1      -3.302  11.782  18.682  0.00  0.00    +0.000 A 
ATOM      4  C   UNL     1      -2.120  11.805  19.429  0.00  0.00    +0.000 A 
ATOM      5  C   UNL     1      -1.033  10.994  19.071  0.00  0.00    +0.000 A 
ATOM      6  C   UNL     1      -1.157  10.194  17.923  0.00  0.00    +0.000 A 
ATOM      7  C   UNL     1      -2.336  10.179  17.174  0.00  0.00    +0.000 A 
BRANCH   2   9
ATOM      8  C   UNL     1      -5.587  11.912  17.460  0.00  0.00    +0.000 C 
ATOM      9  O   UNL     1      -4.641  10.982  16.947  0.00  0.00    +0.000 OA
ENDBRANCH   2   9
ENDBRANCH   1   5
BRANCH   1  10
ATOM     10  N   UNL     1       1.005   9.775  19.675  0.00  0.00    +0.000 N 
ATOM     11  C   UNL     1       1.100   8.704  20.537  0.00  0.00    +0.000 C 
ATOM     12  O   UNL     1       0.541   8.648  21.627  0.00  0.00    +0.000 OA
ATOM     13  H   UNL     1       1.714   9.816  18.956  0.00  0.00    +0.000 HD
BRANCH  11  14
ATOM     14  C   UNL     1       2.063   7.616  20.053  0.00  0.00    +0.000 C 
BRANCH  14  15
ATOM     15  N   UNL     1       1.886   6.398  20.821  0.00  0.00    +0.000 N 
ATOM     16  C   UNL     1       2.261   5.179  20.304  0.00  0.00    +0.000 C 
ATOM     17  C   UNL     1       2.002   4.009  21.228  0.00  0.00    +0.000 C 
ATOM     18  O   UNL     1       2.761   5.056  19.186  0.00  0.00    +0.000 OA
ATOM     19  H   UNL     1       1.722   6.492  21.816  0.00  0.00    +0.000 HD
ENDBRANCH  14  15
ENDBRANCH  11  14
ENDBRANCH   1  10
BRANCH   1  20
ATOM     20  C   UNL     1       1.016  12.260  19.942  0.00  0.00    +0.000 C 
ATOM     21  O   UNL     1       1.692  12.606  20.911  0.00  0.00    +0.000 OA
ATOM     22  N   UNL     1       0.867  13.013  18.772  0.00  0.00    +0.000 N 
ATOM     23  H   UNL     1       0.555  12.519  17.949  0.00  0.00    +0.000 HD
BRANCH  22  24
ATOM     24  C   UNL     1       1.647  14.155  18.539  0.00  0.00    +0.000 A 
ATOM     25  C   UNL     1       1.241  15.424  18.964  0.00  0.00    +0.000 A 
ATOM     26  C   UNL     1       2.166  16.460  19.034  0.00  0.00    +0.000 A 
ATOM     27  C   UNL     1       3.495  16.201  18.718  0.00  0.00    +0.000 A 
ATOM     28  C   UNL     1       3.850  14.970  18.159  0.00  0.00    +0.000 A 
ATOM     29  C   UNL     1       2.916  13.956  18.005  0.00  0.00    +0.000 A 
ATOM     30  O   UNL     1       5.154  14.664  17.865  0.00  0.00    +0.000 OA
ATOM     31  C   UNL     1       5.951  15.194  18.925  0.00  0.00    +0.000 C 
ATOM     32  C   UNL     1       5.767  16.704  19.036  0.00  0.00    +0.000 C 
ATOM     33  O   UNL     1       4.407  17.157  19.061  0.00  0.00    +0.000 OA
ENDBRANCH  22  24
ENDBRANCH   1  20
TORSDOF 7
ENDMDL
MODEL 9
REMARK VINA RESULT:      -7.6      7.136     10.895
REMARK  Name = 
REMARK  9 active torsions:
REMARK  status: ('A' for Active; 'I' for Inactive)
REMARK    1  A    between atoms: C_1  and  O_2
REMARK    2  A    between atoms: O_2  and  C_3
REMARK    3  A    between atoms: C_6  and  C_7
REMARK    4  A    between atoms: C_7  and  N_8
REMARK    5  A    between atoms: C_7  and  C_16
REMARK    6  A    between atoms: C_9  and  C_11
REMARK    7  A    between atoms: C_11  and  N_12
REMARK    8  A    between atoms: C_13  and  C_14
REMARK    9  A    between atoms: N_18  and  C_19
REMARK                            x       y       z     vdW  Elec       q    Type
REMARK                         _______ _______ _______ _____ _____    ______ ____
ROOT
ATOM      1  C   UNL     1      -0.178  11.116  20.262  0.00  0.00    +0.000 C 
ENDROOT
BRANCH   1   5
ATOM      2  C   UNL     1      -3.092  10.921  17.047  0.00  0.00    +0.000 A 
ATOM      3  C   UNL     1      -1.923  10.161  17.007  0.00  0.00    +0.000 A 
ATOM      4  C   UNL     1      -1.012  10.197  18.068  0.00  0.00    +0.000 A 
ATOM      5  C   UNL     1      -1.249  11.009  19.186  0.00  0.00    +0.000 A 
ATOM      6  C   UNL     1      -2.443  11.749  19.223  0.00  0.00    +0.000 A 
ATOM      7  C   UNL     1      -3.355  11.705  18.165  0.00  0.00    +0.000 A 
BRANCH   2   9
ATOM      8  C   UNL     1      -3.283  10.235  14.787  0.00  0.00    +0.000 C 
ATOM      9  O   UNL     1      -3.873  10.850  15.927  0.00  0.00    +0.000 OA
ENDBRANCH   2   9
ENDBRANCH   1   5
BRANCH   1  10
ATOM     10  N   UNL     1       0.626   9.891  20.297  0.00  0.00    +0.000 N 
ATOM     11  C   UNL     1       0.379   8.874  21.194  0.00  0.00    +0.000 C 
ATOM     12  O   UNL     1      -0.504   8.908  22.044  0.00  0.00    +0.000 OA
ATOM     13  H   UNL     1       1.530   9.860  19.847  0.00  0.00    +0.000 HD
BRANCH  11  14
ATOM     14  C   UNL     1       1.385   7.723  21.102  0.00  0.00    +0.000 C 
BRANCH  14  15
ATOM     15  N   UNL     1       2.084   7.755  19.830  0.00  0.00    +0.000 N 
ATOM     16  C   UNL     1       2.627   6.610  19.296  0.00  0.00    +0.000 C 
ATOM     17  C   UNL     1       3.328   6.816  17.971  0.00  0.00    +0.000 C 
ATOM     18  O   UNL     1       2.549   5.514  19.853  0.00  0.00    +0.000 OA
ATOM     19  H   UNL     1       1.943   8.566  19.240  0.00  0.00    +0.000 HD
ENDBRANCH  14  15
ENDBRANCH  11  14
ENDBRANCH   1  10
BRANCH   1  20
ATOM     20  C   UNL     1       0.698  12.383  20.124  0.00  0.00    +0.000 C 
ATOM     21  O   UNL     1       1.416  12.757  21.052  0.00  0.00    +0.000 OA
ATOM     22  N   UNL     1       0.543  13.071  18.916  0.00  0.00    +0.000 N 
ATOM     23  H   UNL     1       0.187  12.543  18.134  0.00  0.00    +0.000 HD
BRANCH  22  24
ATOM     24  C   UNL     1       1.359  14.166  18.594  0.00  0.00    +0.000 A 
ATOM     25  C   UNL     1       0.983  15.478  18.896  0.00  0.00    +0.000 A 
ATOM     26  C   UNL     1       1.938  16.490  18.887  0.00  0.00    +0.000 A 
ATOM     27  C   UNL     1       3.262  16.167  18.617  0.00  0.00    +0.000 A 
ATOM     28  C   UNL     1       3.589  14.881  18.178  0.00  0.00    +0.000 A 
ATOM     29  C   UNL     1       2.628  13.884  18.101  0.00  0.00    +0.000 A 
ATOM     30  O   UNL     1       4.888  14.514  17.934  0.00  0.00    +0.000 OA
ATOM     31  C   UNL     1       5.685  15.116  18.954  0.00  0.00    +0.000 C 
ATOM     32  C   UNL     1       5.544  16.634  18.925  0.00  0.00    +0.000 C 
ATOM     33  O   UNL     1       4.197  17.125  18.887  0.00  0.00    +0.000 OA
ENDBRANCH  22  24
ENDBRANCH   1  20
TORSDOF 7
ENDMDL
