MODEL 1
REMARK VINA RESULT:      -6.8      0.000      0.000
REMARK  Name = 
REMARK  10 active torsions:
REMARK  status: ('A' for Active; 'I' for Inactive)
REMARK    1  A    between atoms: C_2  and  C_4
REMARK    2  A    between atoms: C_4  and  C_6
REMARK    3  A    between atoms: C_6  and  C_7
REMARK    4  A    between atoms: C_7  and  C_8
REMARK    5  A    between atoms: C_8  and  C_9
REMARK    6  A    between atoms: C_9  and  C_10
REMARK    7  A    between atoms: C_10  and  C_11
REMARK    8  A    between atoms: C_11  and  O_12
REMARK    9  A    between atoms: O_12  and  C_13
REMARK   10  A    between atoms: C_16  and  C_17
REMARK                            x       y       z     vdW  Elec       q    Type
REMARK                         _______ _______ _______ _____ _____    ______ ____
ROOT
ATOM      1  C   UNL     1       1.099   2.185  18.876  0.00  0.00    +0.000 C 
ENDROOT
BRANCH   1   2
ATOM      2  C   UNL     1       1.331   2.586  20.327  0.00  0.00    +0.000 C 
BRANCH   2   3
ATOM      3  C   UNL     1       0.860   4.013  20.580  0.00  0.00    +0.000 C 
BRANCH   3   4
ATOM      4  C   UNL     1       2.040   4.972  20.733  0.00  0.00    +0.000 C 
BRANCH   4   5
ATOM      5  C   UNL     1       1.567   6.421  20.639  0.00  0.00    +0.000 C 
BRANCH   5   6
ATOM      6  C   UNL     1       2.420   7.239  19.673  0.00  0.00    +0.000 C 
BRANCH   6   7
ATOM      7  C   UNL     1       1.752   8.551  19.336  0.00  0.00    +0.000 C 
ATOM      8  O   UNL     1       1.004   9.177  20.084  0.00  0.00    +0.000 OA
BRANCH   7  10
ATOM      9  N   UNL     1       1.622  10.417  17.773  0.00  0.00    +0.000 N 
ATOM     10  C   UNL     1       2.046   9.124  17.947  0.00  0.00    +0.000 C 
ATOM     11  O   UNL     1       2.605   8.471  17.094  0.00  0.00    +0.000 OA
ATOM     12  H   UNL     1       1.774  10.877  16.887  0.00  0.00    +0.000 HD
ATOM     13  H   UNL     1       1.164  10.905  18.534  0.00  0.00    +0.000 HD
ENDBRANCH   7  10
ENDBRANCH   6   7
ENDBRANCH   5   6
ENDBRANCH   4   5
ENDBRANCH   3   4
ENDBRANCH   2   3
ENDBRANCH   1   2
BRANCH   1  14
ATOM     14  O   UNL     1       2.355   1.786  18.327  0.00  0.00    +0.000 OA
BRANCH  14  15
ATOM     15  C   UNL     1       3.323   2.752  18.341  0.00  0.00    +0.000 A 
ATOM     16  C   UNL     1       3.241   3.693  17.323  0.00  0.00    +0.000 A 
ATOM     17  C   UNL     1       4.209   4.687  17.210  0.00  0.00    +0.000 A 
ATOM     18  C   UNL     1       5.249   4.800  18.150  0.00  0.00    +0.000 A 
ATOM     19  C   UNL     1       5.314   3.845  19.173  0.00  0.00    +0.000 A 
ATOM     20  C   UNL     1       4.361   2.829  19.270  0.00  0.00    +0.000 A 
BRANCH  18  21
ATOM     21  C   UNL     1       6.228   5.892  18.041  0.00  0.00    +0.000 A 
ATOM     22  C   UNL     1       7.381   5.894  18.845  0.00  0.00    +0.000 A 
ATOM     23  C   UNL     1       8.279   6.956  18.821  0.00  0.00    +0.000 A 
ATOM     24  C   UNL     1       8.060   8.022  17.957  0.00  0.00    +0.000 A 
ATOM     25  C   UNL     1       6.947   8.027  17.120  0.00  0.00    +0.000 A 
ATOM     26  C   UNL     1       6.035   6.971  17.164  0.00  0.00    +0.000 A 
ENDBRANCH  18  21
ENDBRANCH  14  15
ENDBRANCH   1  14
TORSDOF 10
ENDMDL
MODEL 2
REMARK VINA RESULT:      -6.8      2.818      6.319
REMARK  Name = 
REMARK  10 active torsions:
REMARK  status: ('A' for Active; 'I' for Inactive)
REMARK    1  A    between atoms: C_2  and  C_4
REMARK    2  A    between atoms: C_4  and  C_6
REMARK    3  A    between atoms: C_6  and  C_7
REMARK    4  A    between atoms: C_7  and  C_8
REMARK    5  A    between atoms: C_8  and  C_9
REMARK    6  A    between atoms: C_9  and  C_10
REMARK    7  A    between atoms: C_10  and  C_11
REMARK    8  A    between atoms: C_11  and  O_12
REMARK    9  A    between atoms: O_12  and  C_13
REMARK   10  A    between atoms: C_16  and  C_17
REMARK                            x       y       z     vdW  Elec       q    Type
REMARK                         _______ _______ _______ _____ _____    ______ ____
ROOT
ATOM      1  C   UNL     1       2.165   5.159  21.084  0.00  0.00    +0.000 C 
ENDROOT
BRANCH   1   2
ATOM      2  C   UNL     1       1.932   3.689  20.758  0.00  0.00    +0.000 C 
BRANCH   2   3
ATOM      3  C   UNL     1       0.792   3.526  19.760  0.00  0.00    +0.000 C 
BRANCH   3   4
ATOM      4  C   UNL     1       1.226   2.707  18.546  0.00  0.00    +0.000 C 
BRANCH   4   5
ATOM      5  C   UNL     1       1.977   3.587  17.548  0.00  0.00    +0.000 C 
BRANCH   5   6
ATOM      6  C   UNL     1       3.388   3.070  17.280  0.00  0.00    +0.000 C 
BRANCH   6   7
ATOM      7  C   UNL     1       4.416   4.151  17.518  0.00  0.00    +0.000 C 
ATOM      8  O   UNL     1       4.698   5.046  16.724  0.00  0.00    +0.000 OA
BRANCH   7  10
ATOM      9  N   UNL     1       5.756   5.284  19.210  0.00  0.00    +0.000 N 
ATOM     10  C   UNL     1       5.151   4.104  18.860  0.00  0.00    +0.000 C 
ATOM     11  O   UNL     1       5.180   3.099  19.535  0.00  0.00    +0.000 OA
ATOM     12  H   UNL     1       6.264   5.347  20.080  0.00  0.00    +0.000 HD
ATOM     13  H   UNL     1       5.686   6.088  18.596  0.00  0.00    +0.000 HD
ENDBRANCH   7  10
ENDBRANCH   6   7
ENDBRANCH   5   6
ENDBRANCH   4   5
ENDBRANCH   3   4
ENDBRANCH   2   3
ENDBRANCH   1   2
BRANCH   1  14
ATOM     14  O   UNL     1       2.815   5.758  19.962  0.00  0.00    +0.000 OA
BRANCH  14  15
ATOM     15  C   UNL     1       2.334   6.988  19.607  0.00  0.00    +0.000 A 
ATOM     16  C   UNL     1       1.657   7.674  20.606  0.00  0.00    +0.000 A 
ATOM     17  C   UNL     1       1.078   8.911  20.336  0.00  0.00    +0.000 A 
ATOM     18  C   UNL     1       1.215   9.518  19.075  0.00  0.00    +0.000 A 
ATOM     19  C   UNL     1       1.905   8.814  18.080  0.00  0.00    +0.000 A 
ATOM     20  C   UNL     1       2.460   7.560  18.341  0.00  0.00    +0.000 A 
BRANCH  18  21
ATOM     21  C   UNL     1       0.641  10.850  18.830  0.00  0.00    +0.000 A 
ATOM     22  C   UNL     1      -0.738  10.997  18.601  0.00  0.00    +0.000 A 
ATOM     23  C   UNL     1      -1.293  12.232  18.285  0.00  0.00    +0.000 A 
ATOM     24  C   UNL     1      -0.479  13.358  18.231  0.00  0.00    +0.000 A 
ATOM     25  C   UNL     1       0.885  13.248  18.492  0.00  0.00    +0.000 A 
ATOM     26  C   UNL     1       1.442  12.002  18.786  0.00  0.00    +0.000 A 
ENDBRANCH  18  21
ENDBRANCH  14  15
ENDBRANCH   1  14
TORSDOF 10
ENDMDL
MODEL 3
REMARK VINA RESULT:      -6.7      0.503      1.468
REMARK  Name = 
REMARK  10 active torsions:
REMARK  status: ('A' for Active; 'I' for Inactive)
REMARK    1  A    between atoms: C_2  and  C_4
REMARK    2  A    between atoms: C_4  and  C_6
REMARK    3  A    between atoms: C_6  and  C_7
REMARK    4  A    between atoms: C_7  and  C_8
REMARK    5  A    between atoms: C_8  and  C_9
REMARK    6  A    between atoms: C_9  and  C_10
REMARK    7  A    between atoms: C_10  and  C_11
REMARK    8  A    between atoms: C_11  and  O_12
REMARK    9  A    between atoms: O_12  and  C_13
REMARK   10  A    between atoms: C_16  and  C_17
REMARK                            x       y       z     vdW  Elec       q    Type
REMARK                         _______ _______ _______ _____ _____    ______ ____
ROOT
ATOM      1  C   UNL     1       0.936   2.068  18.945  0.00  0.00    +0.000 C 
ENDROOT
BRANCH   1   2
ATOM      2  C   UNL     1       0.758   3.538  19.301  0.00  0.00    +0.000 C 
BRANCH   2   3
ATOM      3  C   UNL     1       1.105   3.791  20.763  0.00  0.00    +0.000 C 
BRANCH   3   4
ATOM      4  C   UNL     1       2.185   4.862  20.904  0.00  0.00    +0.000 C 
BRANCH   4   5
ATOM      5  C   UNL     1       1.590   6.253  20.694  0.00  0.00    +0.000 C 
BRANCH   5   6
ATOM      6  C   UNL     1       2.382   7.064  19.671  0.00  0.00    +0.000 C 
BRANCH   6   7
ATOM      7  C   UNL     1       1.721   8.395  19.405  0.00  0.00    +0.000 C 
ATOM      8  O   UNL     1       0.974   8.983  20.184  0.00  0.00    +0.000 OA
BRANCH   7  10
ATOM      9  N   UNL     1       1.651  10.361  17.964  0.00  0.00    +0.000 N 
ATOM     10  C   UNL     1       2.021   9.043  18.050  0.00  0.00    +0.000 C 
ATOM     11  O   UNL     1       2.541   8.422  17.150  0.00  0.00    +0.000 OA
ATOM     12  H   UNL     1       1.811  10.869  17.107  0.00  0.00    +0.000 HD
ATOM     13  H   UNL     1       1.224  10.818  18.762  0.00  0.00    +0.000 HD
ENDBRANCH   7  10
ENDBRANCH   6   7
ENDBRANCH   5   6
ENDBRANCH   4   5
ENDBRANCH   3   4
ENDBRANCH   2   3
ENDBRANCH   1   2
BRANCH   1  14
ATOM     14  O   UNL     1       1.848   1.991  17.849  0.00  0.00    +0.000 OA
BRANCH  14  15
ATOM     15  C   UNL     1       2.819   2.954  17.838  0.00  0.00    +0.000 A 
ATOM     16  C   UNL     1       3.901   2.718  18.676  0.00  0.00    +0.000 A 
ATOM     17  C   UNL     1       4.920   3.660  18.785  0.00  0.00    +0.000 A 
ATOM     18  C   UNL     1       4.909   4.835  18.012  0.00  0.00    +0.000 A 
ATOM     19  C   UNL     1       3.812   5.055  17.169  0.00  0.00    +0.000 A 
ATOM     20  C   UNL     1       2.775   4.125  17.082  0.00  0.00    +0.000 A 
BRANCH  18  21
ATOM     21  C   UNL     1       6.024   5.790  18.104  0.00  0.00    +0.000 A 
ATOM     22  C   UNL     1       6.099   6.880  17.221  0.00  0.00    +0.000 A 
ATOM     23  C   UNL     1       7.185   7.749  17.232  0.00  0.00    +0.000 A 
ATOM     24  C   UNL     1       8.202   7.566  18.161  0.00  0.00    +0.000 A 
ATOM     25  C   UNL     1       8.134   6.517  19.075  0.00  0.00    +0.000 A 
ATOM     26  C   UNL     1       7.054   5.633  19.045  0.00  0.00    +0.000 A 
ENDBRANCH  18  21
ENDBRANCH  14  15
ENDBRANCH   1  14
TORSDOF 10
ENDMDL
MODEL 4
REMARK VINA RESULT:      -6.7      2.978      6.998
REMARK  Name = 
REMARK  10 active torsions:
REMARK  status: ('A' for Active; 'I' for Inactive)
REMARK    1  A    between atoms: C_2  and  C_4
REMARK    2  A    between atoms: C_4  and  C_6
REMARK    3  A    between atoms: C_6  and  C_7
REMARK    4  A    between atoms: C_7  and  C_8
REMARK    5  A    between atoms: C_8  and  C_9
REMARK    6  A    between atoms: C_9  and  C_10
REMARK    7  A    between atoms: C_10  and  C_11
REMARK    8  A    between atoms: C_11  and  O_12
REMARK    9  A    between atoms: O_12  and  C_13
REMARK   10  A    between atoms: C_16  and  C_17
REMARK                            x       y       z     vdW  Elec       q    Type
REMARK                         _______ _______ _______ _____ _____    ______ ____
ROOT
ATOM      1  C   UNL     1       4.596   5.857  18.851  0.00  0.00    +0.000 C 
ENDROOT
BRANCH   1   2
ATOM      2  C   UNL     1       5.283   4.766  18.040  0.00  0.00    +0.000 C 
BRANCH   2   3
ATOM      3  C   UNL     1       4.426   4.349  16.851  0.00  0.00    +0.000 C 
BRANCH   3   4
ATOM      4  C   UNL     1       3.825   2.960  17.054  0.00  0.00    +0.000 C 
BRANCH   4   5
ATOM      5  C   UNL     1       2.417   3.066  17.637  0.00  0.00    +0.000 C 
BRANCH   5   6
ATOM      6  C   UNL     1       2.187   2.058  18.760  0.00  0.00    +0.000 C 
BRANCH   6   7
ATOM      7  C   UNL     1       2.795   2.541  20.056  0.00  0.00    +0.000 C 
ATOM      8  O   UNL     1       3.989   2.483  20.343  0.00  0.00    +0.000 OA
BRANCH   7  10
ATOM      9  N   UNL     1       0.647   3.591  20.533  0.00  0.00    +0.000 N 
ATOM     10  C   UNL     1       1.825   3.145  21.076  0.00  0.00    +0.000 C 
ATOM     11  O   UNL     1       2.099   3.211  22.253  0.00  0.00    +0.000 OA
ATOM     12  H   UNL     1      -0.054   4.004  21.131  0.00  0.00    +0.000 HD
ATOM     13  H   UNL     1       0.483   3.499  19.537  0.00  0.00    +0.000 HD
ENDBRANCH   7  10
ENDBRANCH   6   7
ENDBRANCH   5   6
ENDBRANCH   4   5
ENDBRANCH   3   4
ENDBRANCH   2   3
ENDBRANCH   1   2
BRANCH   1  14
ATOM     14  O   UNL     1       3.448   6.289  18.120  0.00  0.00    +0.000 OA
BRANCH  14  15
ATOM     15  C   UNL     1       2.652   7.188  18.774  0.00  0.00    +0.000 A 
ATOM     16  C   UNL     1       2.309   6.842  20.075  0.00  0.00    +0.000 A 
ATOM     17  C   UNL     1       1.456   7.659  20.813  0.00  0.00    +0.000 A 
ATOM     18  C   UNL     1       0.976   8.872  20.288  0.00  0.00    +0.000 A 
ATOM     19  C   UNL     1       1.336   9.207  18.977  0.00  0.00    +0.000 A 
ATOM     20  C   UNL     1       2.166   8.373  18.225  0.00  0.00    +0.000 A 
BRANCH  18  21
ATOM     21  C   UNL     1       0.120   9.744  21.107  0.00  0.00    +0.000 A 
ATOM     22  C   UNL     1      -0.435  10.912  20.558  0.00  0.00    +0.000 A 
ATOM     23  C   UNL     1      -1.177  11.796  21.334  0.00  0.00    +0.000 A 
ATOM     24  C   UNL     1      -1.414  11.505  22.672  0.00  0.00    +0.000 A 
ATOM     25  C   UNL     1      -0.909  10.334  23.233  0.00  0.00    +0.000 A 
ATOM     26  C   UNL     1      -0.144   9.460  22.457  0.00  0.00    +0.000 A 
ENDBRANCH  18  21
ENDBRANCH  14  15
ENDBRANCH   1  14
TORSDOF 10
ENDMDL
MODEL 5
REMARK VINA RESULT:      -6.7      4.934      8.350
REMARK  Name = 
REMARK  10 active torsions:
REMARK  status: ('A' for Active; 'I' for Inactive)
REMARK    1  A    between atoms: C_2  and  C_4
REMARK    2  A    between atoms: C_4  and  C_6
REMARK    3  A    between atoms: C_6  and  C_7
REMARK    4  A    between atoms: C_7  and  C_8
REMARK    5  A    between atoms: C_8  and  C_9
REMARK    6  A    between atoms: C_9  and  C_10
REMARK    7  A    between atoms: C_10  and  C_11
REMARK    8  A    between atoms: C_11  and  O_12
REMARK    9  A    between atoms: O_12  and  C_13
REMARK   10  A    between atoms: C_16  and  C_17
REMARK                            x       y       z     vdW  Elec       q    Type
REMARK                         _______ _______ _______ _____ _____    ______ ____
ROOT
ATOM      1  C   UNL     1       7.699   9.031  17.559  0.00  0.00    +0.000 C 
ENDROOT
BRANCH   1   2
ATOM      2  C   UNL     1       8.730   9.355  18.634  0.00  0.00    +0.000 C 
BRANCH   2   3
ATOM      3  C   UNL     1       9.491  10.629  18.292  0.00  0.00    +0.000 C 
BRANCH   3   4
ATOM      4  C   UNL     1      10.050  11.300  19.546  0.00  0.00    +0.000 C 
BRANCH   4   5
ATOM      5  C   UNL     1       9.907  12.817  19.449  0.00  0.00    +0.000 C 
BRANCH   5   6
ATOM      6  C   UNL     1      11.188  13.481  18.951  0.00  0.00    +0.000 C 
BRANCH   6   7
ATOM      7  C   UNL     1      11.021  13.992  17.539  0.00  0.00    +0.000 C 
ATOM      8  O   UNL     1      11.105  13.306  16.522  0.00  0.00    +0.000 OA
BRANCH   7  10
ATOM      9  N   UNL     1      10.835  15.956  16.106  0.00  0.00    +0.000 N 
ATOM     10  C   UNL     1      10.723  15.487  17.390  0.00  0.00    +0.000 C 
ATOM     11  O   UNL     1      10.418  16.172  18.340  0.00  0.00    +0.000 OA
ATOM     12  H   UNL     1      10.656  16.930  15.913  0.00  0.00    +0.000 HD
ATOM     13  H   UNL     1      11.090  15.322  15.357  0.00  0.00    +0.000 HD
ENDBRANCH   7  10
ENDBRANCH   6   7
ENDBRANCH   5   6
ENDBRANCH   4   5
ENDBRANCH   3   4
ENDBRANCH   2   3
ENDBRANCH   1   2
BRANCH   1  14
ATOM     14  O   UNL     1       7.883   7.669  17.173  0.00  0.00    +0.000 OA
BRANCH  14  15
ATOM     15  C   UNL     1       6.792   6.865  17.356  0.00  0.00    +0.000 A 
ATOM     16  C   UNL     1       7.068   5.578  17.800  0.00  0.00    +0.000 A 
ATOM     17  C   UNL     1       6.035   4.659  17.965  0.00  0.00    +0.000 A 
ATOM     18  C   UNL     1       4.695   5.025  17.748  0.00  0.00    +0.000 A 
ATOM     19  C   UNL     1       4.435   6.328  17.305  0.00  0.00    +0.000 A 
ATOM     20  C   UNL     1       5.472   7.241  17.110  0.00  0.00    +0.000 A 
BRANCH  18  21
ATOM     21  C   UNL     1       3.617   4.052  17.982  0.00  0.00    +0.000 A 
ATOM     22  C   UNL     1       2.272   4.453  17.912  0.00  0.00    +0.000 A 
ATOM     23  C   UNL     1       1.237   3.573  18.211  0.00  0.00    +0.000 A 
ATOM     24  C   UNL     1       1.529   2.257  18.548  0.00  0.00    +0.000 A 
ATOM     25  C   UNL     1       2.851   1.822  18.586  0.00  0.00    +0.000 A 
ATOM     26  C   UNL     1       3.889   2.714  18.309  0.00  0.00    +0.000 A 
ENDBRANCH  18  21
ENDBRANCH  14  15
ENDBRANCH   1  14
TORSDOF 10
ENDMDL
MODEL 6
REMARK VINA RESULT:      -6.6      4.236      7.673
REMARK  Name = 
REMARK  10 active torsions:
REMARK  status: ('A' for Active; 'I' for Inactive)
REMARK    1  A    between atoms: C_2  and  C_4
REMARK    2  A    between atoms: C_4  and  C_6
REMARK    3  A    between atoms: C_6  and  C_7
REMARK    4  A    between atoms: C_7  and  C_8
REMARK    5  A    between atoms: C_8  and  C_9
REMARK    6  A    between atoms: C_9  and  C_10
REMARK    7  A    between atoms: C_10  and  C_11
REMARK    8  A    between atoms: C_11  and  O_12
REMARK    9  A    between atoms: O_12  and  C_13
REMARK   10  A    between atoms: C_16  and  C_17
REMARK                            x       y       z     vdW  Elec       q    Type
REMARK                         _______ _______ _______ _____ _____    ______ ____
ROOT
ATOM      1  C   UNL     1       8.170   7.793  18.125  0.00  0.00    +0.000 C 
ENDROOT
BRANCH   1   2
ATOM      2  C   UNL     1       8.182   9.303  17.924  0.00  0.00    +0.000 C 
BRANCH   2   3
ATOM      3  C   UNL     1       9.096   9.980  18.938  0.00  0.00    +0.000 C 
BRANCH   3   4
ATOM      4  C   UNL     1       9.866  11.140  18.310  0.00  0.00    +0.000 C 
BRANCH   4   5
ATOM      5  C   UNL     1       8.902  12.209  17.801  0.00  0.00    +0.000 C 
BRANCH   5   6
ATOM      6  C   UNL     1       9.489  13.613  17.924  0.00  0.00    +0.000 C 
BRANCH   6   7
ATOM      7  C   UNL     1       9.731  13.974  19.371  0.00  0.00    +0.000 C 
ATOM      8  O   UNL     1      10.813  14.317  19.844  0.00  0.00    +0.000 OA
BRANCH   7  10
ATOM      9  N   UNL     1       7.528  14.803  20.006  0.00  0.00    +0.000 N 
ATOM     10  C   UNL     1       8.517  13.899  20.301  0.00  0.00    +0.000 C 
ATOM     11  O   UNL     1       8.460  13.102  21.210  0.00  0.00    +0.000 OA
ATOM     12  H   UNL     1       6.689  14.825  20.567  0.00  0.00    +0.000 HD
ATOM     13  H   UNL     1       7.642  15.439  19.225  0.00  0.00    +0.000 HD
ENDBRANCH   7  10
ENDBRANCH   6   7
ENDBRANCH   5   6
ENDBRANCH   4   5
ENDBRANCH   3   4
ENDBRANCH   2   3
ENDBRANCH   1   2
BRANCH   1  14
ATOM     14  O   UNL     1       7.412   7.217  17.061  0.00  0.00    +0.000 OA
BRANCH  14  15
ATOM     15  C   UNL     1       6.250   6.607  17.446  0.00  0.00    +0.000 A 
ATOM     16  C   UNL     1       6.379   5.663  18.457  0.00  0.00    +0.000 A 
ATOM     17  C   UNL     1       5.268   4.943  18.886  0.00  0.00    +0.000 A 
ATOM     18  C   UNL     1       3.990   5.193  18.356  0.00  0.00    +0.000 A 
ATOM     19  C   UNL     1       3.877   6.151  17.342  0.00  0.00    +0.000 A 
ATOM     20  C   UNL     1       4.996   6.853  16.889  0.00  0.00    +0.000 A 
BRANCH  18  21
ATOM     21  C   UNL     1       2.822   4.457  18.865  0.00  0.00    +0.000 A 
ATOM     22  C   UNL     1       2.335   4.706  20.159  0.00  0.00    +0.000 A 
ATOM     23  C   UNL     1       1.286   3.965  20.694  0.00  0.00    +0.000 A 
ATOM     24  C   UNL     1       0.675   2.983  19.924  0.00  0.00    +0.000 A 
ATOM     25  C   UNL     1       1.111   2.742  18.623  0.00  0.00    +0.000 A 
ATOM     26  C   UNL     1       2.180   3.471  18.098  0.00  0.00    +0.000 A 
ENDBRANCH  18  21
ENDBRANCH  14  15
ENDBRANCH   1  14
TORSDOF 10
ENDMDL
MODEL 7
REMARK VINA RESULT:      -6.6      4.937      8.184
REMARK  Name = 
REMARK  10 active torsions:
REMARK  status: ('A' for Active; 'I' for Inactive)
REMARK    1  A    between atoms: C_2  and  C_4
REMARK    2  A    between atoms: C_4  and  C_6
REMARK    3  A    between atoms: C_6  and  C_7
REMARK    4  A    between atoms: C_7  and  C_8
REMARK    5  A    between atoms: C_8  and  C_9
REMARK    6  A    between atoms: C_9  and  C_10
REMARK    7  A    between atoms: C_10  and  C_11
REMARK    8  A    between atoms: C_11  and  O_12
REMARK    9  A    between atoms: O_12  and  C_13
REMARK   10  A    between atoms: C_16  and  C_17
REMARK                            x       y       z     vdW  Elec       q    Type
REMARK                         _______ _______ _______ _____ _____    ______ ____
ROOT
ATOM      1  C   UNL     1       8.306   8.293  18.295  0.00  0.00    +0.000 C 
ENDROOT
BRANCH   1   2
ATOM      2  C   UNL     1       8.540   9.751  17.919  0.00  0.00    +0.000 C 
BRANCH   2   3
ATOM      3  C   UNL     1       9.269  10.491  19.033  0.00  0.00    +0.000 C 
BRANCH   3   4
ATOM      4  C   UNL     1       9.788  11.847  18.556  0.00  0.00    +0.000 C 
BRANCH   4   5
ATOM      5  C   UNL     1       9.826  12.842  19.713  0.00  0.00    +0.000 C 
BRANCH   5   6
ATOM      6  C   UNL     1      10.784  13.999  19.441  0.00  0.00    +0.000 C 
BRANCH   6   7
ATOM      7  C   UNL     1      10.302  14.842  18.285  0.00  0.00    +0.000 C 
ATOM      8  O   UNL     1       9.284  15.531  18.287  0.00  0.00    +0.000 OA
BRANCH   7  10
ATOM      9  N   UNL     1      10.912  15.846  16.148  0.00  0.00    +0.000 N 
ATOM     10  C   UNL     1      11.167  14.819  17.021  0.00  0.00    +0.000 C 
ATOM     11  O   UNL     1      11.995  13.957  16.833  0.00  0.00    +0.000 OA
ATOM     12  H   UNL     1      11.435  15.911  15.287  0.00  0.00    +0.000 HD
ATOM     13  H   UNL     1      10.205  16.537  16.373  0.00  0.00    +0.000 HD
ENDBRANCH   7  10
ENDBRANCH   6   7
ENDBRANCH   5   6
ENDBRANCH   4   5
ENDBRANCH   3   4
ENDBRANCH   2   3
ENDBRANCH   1   2
BRANCH   1  14
ATOM     14  O   UNL     1       7.693   7.646  17.180  0.00  0.00    +0.000 OA
BRANCH  14  15
ATOM     15  C   UNL     1       6.729   6.732  17.503  0.00  0.00    +0.000 A 
ATOM     16  C   UNL     1       5.519   6.882  16.838  0.00  0.00    +0.000 A 
ATOM     17  C   UNL     1       4.450   6.040  17.132  0.00  0.00    +0.000 A 
ATOM     18  C   UNL     1       4.586   4.988  18.056  0.00  0.00    +0.000 A 
ATOM     19  C   UNL     1       5.814   4.848  18.713  0.00  0.00    +0.000 A 
ATOM     20  C   UNL     1       6.877   5.711  18.441  0.00  0.00    +0.000 A 
BRANCH  18  21
ATOM     21  C   UNL     1       3.459   4.078  18.309  0.00  0.00    +0.000 A 
ATOM     22  C   UNL     1       3.694   2.737  18.659  0.00  0.00    +0.000 A 
ATOM     23  C   UNL     1       2.647   1.836  18.822  0.00  0.00    +0.000 A 
ATOM     24  C   UNL     1       1.335   2.272  18.677  0.00  0.00    +0.000 A 
ATOM     25  C   UNL     1       1.072   3.605  18.369  0.00  0.00    +0.000 A 
ATOM     26  C   UNL     1       2.126   4.501  18.183  0.00  0.00    +0.000 A 
ENDBRANCH  18  21
ENDBRANCH  14  15
ENDBRANCH   1  14
TORSDOF 10
ENDMDL
MODEL 8
REMARK VINA RESULT:      -6.5      4.720      8.078
REMARK  Name = 
REMARK  10 active torsions:
REMARK  status: ('A' for Active; 'I' for Inactive)
REMARK    1  A    between atoms: C_2  and  C_4
REMARK    2  A    between atoms: C_4  and  C_6
REMARK    3  A    between atoms: C_6  and  C_7
REMARK    4  A    between atoms: C_7  and  C_8
REMARK    5  A    between atoms: C_8  and  C_9
REMARK    6  A    between atoms: C_9  and  C_10
REMARK    7  A    between atoms: C_10  and  C_11
REMARK    8  A    between atoms: C_11  and  O_12
REMARK    9  A    between atoms: O_12  and  C_13
REMARK   10  A    between atoms: C_16  and  C_17
REMARK                            x       y       z     vdW  Elec       q    Type
REMARK                         _______ _______ _______ _____ _____    ______ ____
ROOT
ATOM      1  C   UNL     1       7.808   8.916  17.639  0.00  0.00    +0.000 C 
ENDROOT
BRANCH   1   2
ATOM      2  C   UNL     1       8.827   9.121  18.753  0.00  0.00    +0.000 C 
BRANCH   2   3
ATOM      3  C   UNL     1       9.366  10.546  18.743  0.00  0.00    +0.000 C 
BRANCH   3   4
ATOM      4  C   UNL     1       9.497  11.103  20.159  0.00  0.00    +0.000 C 
BRANCH   4   5
ATOM      5  C   UNL     1      10.849  11.790  20.341  0.00  0.00    +0.000 C 
BRANCH   5   6
ATOM      6  C   UNL     1      10.713  13.309  20.412  0.00  0.00    +0.000 C 
BRANCH   6   7
ATOM      7  C   UNL     1      11.164  13.955  19.124  0.00  0.00    +0.000 C 
ATOM      8  O   UNL     1      12.333  14.170  18.810  0.00  0.00    +0.000 OA
BRANCH   7  10
ATOM      9  N   UNL     1      10.504  15.059  17.052  0.00  0.00    +0.000 N 
ATOM     10  C   UNL     1      10.057  14.365  18.148  0.00  0.00    +0.000 C 
ATOM     11  O   UNL     1       8.896  14.089  18.350  0.00  0.00    +0.000 OA
ATOM     12  H   UNL     1       9.845  15.370  16.354  0.00  0.00    +0.000 HD
ATOM     13  H   UNL     1      11.494  15.251  16.946  0.00  0.00    +0.000 HD
ENDBRANCH   7  10
ENDBRANCH   6   7
ENDBRANCH   5   6
ENDBRANCH   4   5
ENDBRANCH   3   4
ENDBRANCH   2   3
ENDBRANCH   1   2
BRANCH   1  14
ATOM     14  O   UNL     1       7.911   7.563  17.195  0.00  0.00    +0.000 OA
BRANCH  14  15
ATOM     15  C   UNL     1       6.791   6.804  17.392  0.00  0.00    +0.000 A 
ATOM     16  C   UNL     1       7.003   5.581  18.014  0.00  0.00    +0.000 A 
ATOM     17  C   UNL     1       5.939   4.705  18.213  0.00  0.00    +0.000 A 
ATOM     18  C   UNL     1       4.628   5.058  17.849  0.00  0.00    +0.000 A 
ATOM     19  C   UNL     1       4.432   6.298  17.227  0.00  0.00    +0.000 A 
ATOM     20  C   UNL     1       5.502   7.164  16.999  0.00  0.00    +0.000 A 
BRANCH  18  21
ATOM     21  C   UNL     1       3.513   4.138  18.119  0.00  0.00    +0.000 A 
ATOM     22  C   UNL     1       3.611   2.781  17.768  0.00  0.00    +0.000 A 
ATOM     23  C   UNL     1       2.541   1.909  17.936  0.00  0.00    +0.000 A 
ATOM     24  C   UNL     1       1.359   2.372  18.501  0.00  0.00    +0.000 A 
ATOM     25  C   UNL     1       1.247   3.703  18.895  0.00  0.00    +0.000 A 
ATOM     26  C   UNL     1       2.315   4.581  18.703  0.00  0.00    +0.000 A 
ENDBRANCH  18  21
ENDBRANCH  14  15
ENDBRANCH   1  14
TORSDOF 10
ENDMDL
MODEL 9
REMARK VINA RESULT:      -6.4      3.554      5.510
REMARK  Name = 
REMARK  10 active torsions:
REMARK  status: ('A' for Active; 'I' for Inactive)
REMARK    1  A    between atoms: C_2  and  C_4
REMARK    2  A    between atoms: C_4  and  C_6
REMARK    3  A    between atoms: C_6  and  C_7
REMARK    4  A    between atoms: C_7  and  C_8
REMARK    5  A    between atoms: C_8  and  C_9
REMARK    6  A    between atoms: C_9  and  C_10
REMARK    7  A    between atoms: C_10  and  C_11
REMARK    8  A    between atoms: C_11  and  O_12
REMARK    9  A    between atoms: O_12  and  C_13
REMARK   10  A    between atoms: C_16  and  C_17
REMARK                            x       y       z     vdW  Elec       q    Type
REMARK                         _______ _______ _______ _____ _____    ______ ____
ROOT
ATOM      1  C   UNL     1       3.336   6.637  19.584  0.00  0.00    +0.000 C 
ENDROOT
BRANCH   1   2
ATOM      2  C   UNL     1       2.248   5.579  19.453  0.00  0.00    +0.000 C 
BRANCH   2   3
ATOM      3  C   UNL     1       2.260   4.634  20.649  0.00  0.00    +0.000 C 
BRANCH   3   4
ATOM      4  C   UNL     1       0.919   3.921  20.811  0.00  0.00    +0.000 C 
BRANCH   4   5
ATOM      5  C   UNL     1       0.524   3.223  19.511  0.00  0.00    +0.000 C 
BRANCH   5   6
ATOM      6  C   UNL     1       1.226   1.877  19.350  0.00  0.00    +0.000 C 
BRANCH   6   7
ATOM      7  C   UNL     1       2.411   1.992  18.421  0.00  0.00    +0.000 C 
ATOM      8  O   UNL     1       2.376   2.453  17.281  0.00  0.00    +0.000 OA
BRANCH   7  10
ATOM      9  N   UNL     1       4.274   0.426  18.270  0.00  0.00    +0.000 N 
ATOM     10  C   UNL     1       3.751   1.487  18.964  0.00  0.00    +0.000 C 
ATOM     11  O   UNL     1       4.280   1.997  19.926  0.00  0.00    +0.000 OA
ATOM     12  H   UNL     1       5.155   0.026  18.556  0.00  0.00    +0.000 HD
ATOM     13  H   UNL     1       3.776   0.052  17.469  0.00  0.00    +0.000 HD
ENDBRANCH   7  10
ENDBRANCH   6   7
ENDBRANCH   5   6
ENDBRANCH   4   5
ENDBRANCH   3   4
ENDBRANCH   2   3
ENDBRANCH   1   2
BRANCH   1  14
ATOM     14  O   UNL     1       4.597   5.993  19.398  0.00  0.00    +0.000 OA
BRANCH  14  15
ATOM     15  C   UNL     1       4.929   5.741  18.096  0.00  0.00    +0.000 A 
ATOM     16  C   UNL     1       5.323   4.437  17.823  0.00  0.00    +0.000 A 
ATOM     17  C   UNL     1       5.736   4.086  16.541  0.00  0.00    +0.000 A 
ATOM     18  C   UNL     1       5.709   5.016  15.487  0.00  0.00    +0.000 A 
ATOM     19  C   UNL     1       5.305   6.325  15.779  0.00  0.00    +0.000 A 
ATOM     20  C   UNL     1       4.919   6.687  17.071  0.00  0.00    +0.000 A 
BRANCH  18  21
ATOM     21  C   UNL     1       6.099   4.605  14.130  0.00  0.00    +0.000 A 
ATOM     22  C   UNL     1       5.323   3.674  13.420  0.00  0.00    +0.000 A 
ATOM     23  C   UNL     1       5.715   3.207  12.170  0.00  0.00    +0.000 A 
ATOM     24  C   UNL     1       6.877   3.697  11.586  0.00  0.00    +0.000 A 
ATOM     25  C   UNL     1       7.644   4.651  12.250  0.00  0.00    +0.000 A 
ATOM     26  C   UNL     1       7.260   5.100  13.515  0.00  0.00    +0.000 A 
ENDBRANCH  18  21
ENDBRANCH  14  15
ENDBRANCH   1  14
TORSDOF 10
ENDMDL
