MODEL 1
REMARK VINA RESULT:      -8.0      0.000      0.000
REMARK  Name = 
REMARK  6 active torsions:
REMARK  status: ('A' for Active; 'I' for Inactive)
REMARK    1  A    between atoms: C_2  and  C_12
REMARK    2  A    between atoms: N_3  and  C_4
REMARK    3  A    between atoms: C_8  and  C_9
REMARK    4  A    between atoms: C_9  and  O_11
REMARK    5  A    between atoms: C_16  and  O_17
REMARK    6  A    between atoms: O_17  and  C_18
REMARK                            x       y       z     vdW  Elec       q    Type
REMARK                         _______ _______ _______ _____ _____    ______ ____
ROOT
ATOM      1  O   UNL     1       2.329   7.422  18.274  0.00  0.00    +0.000 OA
ATOM      2  C   UNL     1       2.237   7.381  19.494  0.00  0.00    +0.000 C 
ATOM      3  N   UNL     1       2.735   6.358  20.292  0.00  0.00    +0.000 N 
ATOM      4  H   UNL     1       2.240   6.222  21.180  0.00  0.00    +0.000 HD
ENDROOT
BRANCH   2   5
ATOM      5  C   UNL     1       1.405   8.388  20.211  0.00  0.00    +0.000 A 
ATOM      6  C   UNL     1       1.089   8.252  21.567  0.00  0.00    +0.000 A 
ATOM      7  C   UNL     1       0.242   9.181  22.183  0.00  0.00    +0.000 A 
ATOM      8  C   UNL     1      -0.315  10.221  21.435  0.00  0.00    +0.000 A 
ATOM      9  C   UNL     1      -0.014  10.346  20.076  0.00  0.00    +0.000 A 
ATOM     10  C   UNL     1       0.895   9.469  19.481  0.00  0.00    +0.000 A 
BRANCH   9  11
ATOM     11  O   UNL     1      -0.638  11.370  19.394  0.00  0.00    +0.000 OA
BRANCH  11  12
ATOM     12  C   UNL     1      -1.673  11.067  18.531  0.00  0.00    +0.000 A 
ATOM     13  C   UNL     1      -1.573  10.129  17.491  0.00  0.00    +0.000 A 
ATOM     14  C   UNL     1      -2.639   9.931  16.621  0.00  0.00    +0.000 A 
ATOM     15  C   UNL     1      -3.841  10.611  16.823  0.00  0.00    +0.000 A 
ATOM     16  C   UNL     1      -3.973  11.485  17.902  0.00  0.00    +0.000 A 
ATOM     17  C   UNL     1      -2.888  11.714  18.754  0.00  0.00    +0.000 A 
ENDBRANCH  11  12
ENDBRANCH   9  11
ENDBRANCH   2   5
BRANCH   3  18
ATOM     18  C   UNL     1       3.376   5.249  19.792  0.00  0.00    +0.000 C 
ATOM     19  C   UNL     1       4.649   5.247  19.362  0.00  0.00    +0.000 C 
ATOM     20  C   UNL     1       5.201   3.941  18.895  0.00  0.00    +0.000 C 
ATOM     21  S   UNL     1       3.912   2.703  19.246  0.00  0.00    +0.000 S 
ATOM     22  C   UNL     1       2.631   3.948  19.659  0.00  0.00    +0.000 C 
BRANCH  22  23
ATOM     23  C   UNL     1       1.812   3.537  20.876  0.00  0.00    +0.000 C 
ATOM     24  O   UNL     1       2.219   3.594  22.032  0.00  0.00    +0.000 OA
BRANCH  23  25
ATOM     25  O   UNL     1       0.520   3.227  20.590  0.00  0.00    +0.000 OA
ATOM     26  H   UNL     1       0.403   2.257  20.487  0.00  0.00    +0.000 HD
ENDBRANCH  23  25
ENDBRANCH  22  23
ENDBRANCH   3  18
TORSDOF 6
ENDMDL
MODEL 2
REMARK VINA RESULT:      -7.9      2.596      3.490
REMARK  Name = 
REMARK  6 active torsions:
REMARK  status: ('A' for Active; 'I' for Inactive)
REMARK    1  A    between atoms: C_2  and  C_12
REMARK    2  A    between atoms: N_3  and  C_4
REMARK    3  A    between atoms: C_8  and  C_9
REMARK    4  A    between atoms: C_9  and  O_11
REMARK    5  A    between atoms: C_16  and  O_17
REMARK    6  A    between atoms: O_17  and  C_18
REMARK                            x       y       z     vdW  Elec       q    Type
REMARK                         _______ _______ _______ _____ _____    ______ ____
ROOT
ATOM      1  O   UNL     1       2.602   5.329  17.793  0.00  0.00    +0.000 OA
ATOM      2  C   UNL     1       3.061   6.453  17.947  0.00  0.00    +0.000 C 
ATOM      3  N   UNL     1       4.294   6.878  17.467  0.00  0.00    +0.000 N 
ATOM      4  H   UNL     1       4.729   7.636  18.003  0.00  0.00    +0.000 HD
ENDROOT
BRANCH   2   5
ATOM      5  C   UNL     1       2.366   7.425  18.838  0.00  0.00    +0.000 A 
ATOM      6  C   UNL     1       2.069   7.121  20.171  0.00  0.00    +0.000 A 
ATOM      7  C   UNL     1       1.348   8.032  20.951  0.00  0.00    +0.000 A 
ATOM      8  C   UNL     1       0.893   9.227  20.387  0.00  0.00    +0.000 A 
ATOM      9  C   UNL     1       1.174   9.523  19.051  0.00  0.00    +0.000 A 
ATOM     10  C   UNL     1       1.963   8.652  18.297  0.00  0.00    +0.000 A 
BRANCH   9  11
ATOM     11  O   UNL     1       0.653  10.699  18.553  0.00  0.00    +0.000 OA
BRANCH  11  12
ATOM     12  C   UNL     1      -0.710  10.796  18.351  0.00  0.00    +0.000 A 
ATOM     13  C   UNL     1      -1.525  11.755  18.973  0.00  0.00    +0.000 A 
ATOM     14  C   UNL     1      -2.900  11.743  18.771  0.00  0.00    +0.000 A 
ATOM     15  C   UNL     1      -3.469  10.823  17.890  0.00  0.00    +0.000 A 
ATOM     16  C   UNL     1      -2.655   9.918  17.208  0.00  0.00    +0.000 A 
ATOM     17  C   UNL     1      -1.276   9.904  17.440  0.00  0.00    +0.000 A 
ENDBRANCH  11  12
ENDBRANCH   9  11
ENDBRANCH   2   5
BRANCH   3  18
ATOM     18  C   UNL     1       5.160   6.065  16.775  0.00  0.00    +0.000 C 
ATOM     19  C   UNL     1       5.227   6.006  15.434  0.00  0.00    +0.000 C 
ATOM     20  C   UNL     1       6.261   5.101  14.849  0.00  0.00    +0.000 C 
ATOM     21  S   UNL     1       7.230   4.477  16.260  0.00  0.00    +0.000 S 
ATOM     22  C   UNL     1       6.075   5.134  17.524  0.00  0.00    +0.000 C 
BRANCH  22  23
ATOM     23  C   UNL     1       6.816   5.753  18.701  0.00  0.00    +0.000 C 
ATOM     24  O   UNL     1       6.691   5.384  19.865  0.00  0.00    +0.000 OA
BRANCH  23  25
ATOM     25  O   UNL     1       7.751   6.671  18.342  0.00  0.00    +0.000 OA
ATOM     26  H   UNL     1       7.442   7.212  17.582  0.00  0.00    +0.000 HD
ENDBRANCH  23  25
ENDBRANCH  22  23
ENDBRANCH   3  18
TORSDOF 6
ENDMDL
MODEL 3
REMARK VINA RESULT:      -7.7      3.217      7.902
REMARK  Name = 
REMARK  6 active torsions:
REMARK  status: ('A' for Active; 'I' for Inactive)
REMARK    1  A    between atoms: C_2  and  C_12
REMARK    2  A    between atoms: N_3  and  C_4
REMARK    3  A    between atoms: C_8  and  C_9
REMARK    4  A    between atoms: C_9  and  O_11
REMARK    5  A    between atoms: C_16  and  O_17
REMARK    6  A    between atoms: O_17  and  C_18
REMARK                            x       y       z     vdW  Elec       q    Type
REMARK                         _______ _______ _______ _____ _____    ______ ____
ROOT
ATOM      1  O   UNL     1       0.552   5.683  20.691  0.00  0.00    +0.000 OA
ATOM      2  C   UNL     1       1.744   5.891  20.505  0.00  0.00    +0.000 C 
ATOM      3  N   UNL     1       2.322   7.151  20.413  0.00  0.00    +0.000 N 
ATOM      4  H   UNL     1       3.179   7.193  19.851  0.00  0.00    +0.000 HD
ENDROOT
BRANCH   2   5
ATOM      5  C   UNL     1       2.657   4.756  20.191  0.00  0.00    +0.000 A 
ATOM      6  C   UNL     1       2.392   3.454  20.628  0.00  0.00    +0.000 A 
ATOM      7  C   UNL     1       3.315   2.432  20.375  0.00  0.00    +0.000 A 
ATOM      8  C   UNL     1       4.515   2.721  19.720  0.00  0.00    +0.000 A 
ATOM      9  C   UNL     1       4.787   4.025  19.300  0.00  0.00    +0.000 A 
ATOM     10  C   UNL     1       3.832   5.027  19.478  0.00  0.00    +0.000 A 
BRANCH   9  11
ATOM     11  O   UNL     1       6.011   4.241  18.701  0.00  0.00    +0.000 OA
BRANCH  11  12
ATOM     12  C   UNL     1       6.072   4.374  17.328  0.00  0.00    +0.000 A 
ATOM     13  C   UNL     1       5.002   4.081  16.467  0.00  0.00    +0.000 A 
ATOM     14  C   UNL     1       5.165   4.175  15.090  0.00  0.00    +0.000 A 
ATOM     15  C   UNL     1       6.372   4.633  14.559  0.00  0.00    +0.000 A 
ATOM     16  C   UNL     1       7.412   5.001  15.412  0.00  0.00    +0.000 A 
ATOM     17  C   UNL     1       7.262   4.870  16.796  0.00  0.00    +0.000 A 
ENDBRANCH  11  12
ENDBRANCH   9  11
ENDBRANCH   2   5
BRANCH   3  18
ATOM     18  C   UNL     1       1.607   8.322  20.497  0.00  0.00    +0.000 C 
ATOM     19  C   UNL     1       1.301   8.935  21.653  0.00  0.00    +0.000 C 
ATOM     20  C   UNL     1       0.558  10.226  21.557  0.00  0.00    +0.000 C 
ATOM     21  S   UNL     1       0.465  10.613  19.779  0.00  0.00    +0.000 S 
ATOM     22  C   UNL     1       1.078   8.970  19.246  0.00  0.00    +0.000 C 
BRANCH  22  23
ATOM     23  C   UNL     1       2.071   9.081  18.097  0.00  0.00    +0.000 C 
ATOM     24  O   UNL     1       2.831   8.181  17.754  0.00  0.00    +0.000 OA
BRANCH  23  25
ATOM     25  O   UNL     1       1.951  10.226  17.375  0.00  0.00    +0.000 OA
ATOM     26  H   UNL     1       1.007  10.438  17.201  0.00  0.00    +0.000 HD
ENDBRANCH  23  25
ENDBRANCH  22  23
ENDBRANCH   3  18
TORSDOF 6
ENDMDL
MODEL 4
REMARK VINA RESULT:      -7.7      3.137      7.382
REMARK  Name = 
REMARK  6 active torsions:
REMARK  status: ('A' for Active; 'I' for Inactive)
REMARK    1  A    between atoms: C_2  and  C_12
REMARK    2  A    between atoms: N_3  and  C_4
REMARK    3  A    between atoms: C_8  and  C_9
REMARK    4  A    between atoms: C_9  and  O_11
REMARK    5  A    between atoms: C_16  and  O_17
REMARK    6  A    between atoms: O_17  and  C_18
REMARK                            x       y       z     vdW  Elec       q    Type
REMARK                         _______ _______ _______ _____ _____    ______ ____
ROOT
ATOM      1  O   UNL     1       2.056   9.631  17.316  0.00  0.00    +0.000 OA
ATOM      2  C   UNL     1       2.084   8.682  18.089  0.00  0.00    +0.000 C 
ATOM      3  N   UNL     1       1.407   8.629  19.302  0.00  0.00    +0.000 N 
ATOM      4  H   UNL     1       1.834   8.022  20.009  0.00  0.00    +0.000 HD
ENDROOT
BRANCH   2   5
ATOM      5  C   UNL     1       3.016   7.546  17.840  0.00  0.00    +0.000 A 
ATOM      6  C   UNL     1       4.291   7.744  17.301  0.00  0.00    +0.000 A 
ATOM      7  C   UNL     1       5.105   6.643  17.012  0.00  0.00    +0.000 A 
ATOM      8  C   UNL     1       4.630   5.347  17.228  0.00  0.00    +0.000 A 
ATOM      9  C   UNL     1       3.349   5.149  17.750  0.00  0.00    +0.000 A 
ATOM     10  C   UNL     1       2.568   6.248  18.115  0.00  0.00    +0.000 A 
BRANCH   9  11
ATOM     11  O   UNL     1       2.932   3.841  17.893  0.00  0.00    +0.000 OA
BRANCH  11  12
ATOM     12  C   UNL     1       2.445   3.422  19.115  0.00  0.00    +0.000 A 
ATOM     13  C   UNL     1       1.078   3.321  19.418  0.00  0.00    +0.000 A 
ATOM     14  C   UNL     1       0.669   2.958  20.696  0.00  0.00    +0.000 A 
ATOM     15  C   UNL     1       1.616   2.619  21.664  0.00  0.00    +0.000 A 
ATOM     16  C   UNL     1       2.974   2.640  21.344  0.00  0.00    +0.000 A 
ATOM     17  C   UNL     1       3.388   3.044  20.071  0.00  0.00    +0.000 A 
ENDBRANCH  11  12
ENDBRANCH   9  11
ENDBRANCH   2   5
BRANCH   3  18
ATOM     18  C   UNL     1       0.638   9.660  19.787  0.00  0.00    +0.000 C 
ATOM     19  C   UNL     1      -0.415  10.184  19.138  0.00  0.00    +0.000 C 
ATOM     20  C   UNL     1      -1.167  11.269  19.835  0.00  0.00    +0.000 C 
ATOM     21  S   UNL     1      -0.430  11.395  21.496  0.00  0.00    +0.000 S 
ATOM     22  C   UNL     1       0.989  10.302  21.103  0.00  0.00    +0.000 C 
BRANCH  22  23
ATOM     23  C   UNL     1       1.293   9.337  22.241  0.00  0.00    +0.000 C 
ATOM     24  O   UNL     1       0.974   9.528  23.411  0.00  0.00    +0.000 OA
BRANCH  23  25
ATOM     25  O   UNL     1       1.831   8.158  21.833  0.00  0.00    +0.000 OA
ATOM     26  H   UNL     1       2.463   7.808  22.499  0.00  0.00    +0.000 HD
ENDBRANCH  23  25
ENDBRANCH  22  23
ENDBRANCH   3  18
TORSDOF 6
ENDMDL
MODEL 5
REMARK VINA RESULT:      -7.7      2.631      3.435
REMARK  Name = 
REMARK  6 active torsions:
REMARK  status: ('A' for Active; 'I' for Inactive)
REMARK    1  A    between atoms: C_2  and  C_12
REMARK    2  A    between atoms: N_3  and  C_4
REMARK    3  A    between atoms: C_8  and  C_9
REMARK    4  A    between atoms: C_9  and  O_11
REMARK    5  A    between atoms: C_16  and  O_17
REMARK    6  A    between atoms: O_17  and  C_18
REMARK                            x       y       z     vdW  Elec       q    Type
REMARK                         _______ _______ _______ _____ _____    ______ ____
ROOT
ATOM      1  O   UNL     1       2.841   5.067  18.015  0.00  0.00    +0.000 OA
ATOM      2  C   UNL     1       3.186   6.242  18.023  0.00  0.00    +0.000 C 
ATOM      3  N   UNL     1       4.319   6.739  17.389  0.00  0.00    +0.000 N 
ATOM      4  H   UNL     1       4.714   7.585  17.811  0.00  0.00    +0.000 HD
ENDROOT
BRANCH   2   5
ATOM      5  C   UNL     1       2.470   7.221  18.888  0.00  0.00    +0.000 A 
ATOM      6  C   UNL     1       2.121   6.921  20.208  0.00  0.00    +0.000 A 
ATOM      7  C   UNL     1       1.382   7.841  20.961  0.00  0.00    +0.000 A 
ATOM      8  C   UNL     1       0.962   9.041  20.381  0.00  0.00    +0.000 A 
ATOM      9  C   UNL     1       1.295   9.332  19.056  0.00  0.00    +0.000 A 
ATOM     10  C   UNL     1       2.101   8.452  18.332  0.00  0.00    +0.000 A 
BRANCH   9  11
ATOM     11  O   UNL     1       0.806  10.514  18.539  0.00  0.00    +0.000 OA
BRANCH  11  12
ATOM     12  C   UNL     1      -0.556  10.654  18.357  0.00  0.00    +0.000 A 
ATOM     13  C   UNL     1      -1.321   9.824  17.522  0.00  0.00    +0.000 A 
ATOM     14  C   UNL     1      -2.676  10.073  17.338  0.00  0.00    +0.000 A 
ATOM     15  C   UNL     1      -3.299  11.105  18.042  0.00  0.00    +0.000 A 
ATOM     16  C   UNL     1      -2.560  11.883  18.935  0.00  0.00    +0.000 A 
ATOM     17  C   UNL     1      -1.189  11.658  19.090  0.00  0.00    +0.000 A 
ENDBRANCH  11  12
ENDBRANCH   9  11
ENDBRANCH   2   5
BRANCH   3  18
ATOM     18  C   UNL     1       5.204   5.952  16.691  0.00  0.00    +0.000 C 
ATOM     19  C   UNL     1       5.244   5.872  15.350  0.00  0.00    +0.000 C 
ATOM     20  C   UNL     1       6.304   5.004  14.758  0.00  0.00    +0.000 C 
ATOM     21  S   UNL     1       7.332   4.450  16.155  0.00  0.00    +0.000 S 
ATOM     22  C   UNL     1       6.178   5.077  17.434  0.00  0.00    +0.000 C 
BRANCH  22  23
ATOM     23  C   UNL     1       6.917   5.750  18.583  0.00  0.00    +0.000 C 
ATOM     24  O   UNL     1       7.676   6.705  18.448  0.00  0.00    +0.000 OA
BRANCH  23  25
ATOM     25  O   UNL     1       6.557   5.294  19.812  0.00  0.00    +0.000 OA
ATOM     26  H   UNL     1       5.771   4.708  19.755  0.00  0.00    +0.000 HD
ENDBRANCH  23  25
ENDBRANCH  22  23
ENDBRANCH   3  18
TORSDOF 6
ENDMDL
MODEL 6
REMARK VINA RESULT:      -7.7      3.231      7.813
REMARK  Name = 
REMARK  6 active torsions:
REMARK  status: ('A' for Active; 'I' for Inactive)
REMARK    1  A    between atoms: C_2  and  C_12
REMARK    2  A    between atoms: N_3  and  C_4
REMARK    3  A    between atoms: C_8  and  C_9
REMARK    4  A    between atoms: C_9  and  O_11
REMARK    5  A    between atoms: C_16  and  O_17
REMARK    6  A    between atoms: O_17  and  C_18
REMARK                            x       y       z     vdW  Elec       q    Type
REMARK                         _______ _______ _______ _____ _____    ______ ____
ROOT
ATOM      1  O   UNL     1       0.509   5.650  20.612  0.00  0.00    +0.000 OA
ATOM      2  C   UNL     1       1.706   5.846  20.451  0.00  0.00    +0.000 C 
ATOM      3  N   UNL     1       2.304   7.099  20.404  0.00  0.00    +0.000 N 
ATOM      4  H   UNL     1       3.171   7.145  19.857  0.00  0.00    +0.000 HD
ENDROOT
BRANCH   2   5
ATOM      5  C   UNL     1       2.609   4.707  20.120  0.00  0.00    +0.000 A 
ATOM      6  C   UNL     1       2.574   3.506  20.836  0.00  0.00    +0.000 A 
ATOM      7  C   UNL     1       3.490   2.490  20.541  0.00  0.00    +0.000 A 
ATOM      8  C   UNL     1       4.462   2.691  19.558  0.00  0.00    +0.000 A 
ATOM      9  C   UNL     1       4.509   3.897  18.855  0.00  0.00    +0.000 A 
ATOM     10  C   UNL     1       3.544   4.878  19.092  0.00  0.00    +0.000 A 
BRANCH   9  11
ATOM     11  O   UNL     1       5.525   4.039  17.932  0.00  0.00    +0.000 OA
BRANCH  11  12
ATOM     12  C   UNL     1       6.264   5.205  17.923  0.00  0.00    +0.000 A 
ATOM     13  C   UNL     1       6.050   6.258  17.019  0.00  0.00    +0.000 A 
ATOM     14  C   UNL     1       6.883   7.370  17.029  0.00  0.00    +0.000 A 
ATOM     15  C   UNL     1       7.891   7.480  17.989  0.00  0.00    +0.000 A 
ATOM     16  C   UNL     1       8.057   6.473  18.940  0.00  0.00    +0.000 A 
ATOM     17  C   UNL     1       7.245   5.336  18.905  0.00  0.00    +0.000 A 
ENDBRANCH  11  12
ENDBRANCH   9  11
ENDBRANCH   2   5
BRANCH   3  18
ATOM     18  C   UNL     1       1.605   8.278  20.509  0.00  0.00    +0.000 C 
ATOM     19  C   UNL     1       1.312   8.877  21.676  0.00  0.00    +0.000 C 
ATOM     20  C   UNL     1       0.586  10.179  21.602  0.00  0.00    +0.000 C 
ATOM     21  S   UNL     1       0.487  10.593  19.831  0.00  0.00    +0.000 S 
ATOM     22  C   UNL     1       1.076   8.950  19.270  0.00  0.00    +0.000 C 
BRANCH  22  23
ATOM     23  C   UNL     1       2.064   9.066  18.117  0.00  0.00    +0.000 C 
ATOM     24  O   UNL     1       2.864   8.189  17.805  0.00  0.00    +0.000 OA
BRANCH  23  25
ATOM     25  O   UNL     1       1.895  10.179  17.357  0.00  0.00    +0.000 OA
ATOM     26  H   UNL     1       2.755  10.511  17.018  0.00  0.00    +0.000 HD
ENDBRANCH  23  25
ENDBRANCH  22  23
ENDBRANCH   3  18
TORSDOF 6
ENDMDL
MODEL 7
REMARK VINA RESULT:      -7.7      0.852      1.366
REMARK  Name = 
REMARK  6 active torsions:
REMARK  status: ('A' for Active; 'I' for Inactive)
REMARK    1  A    between atoms: C_2  and  C_12
REMARK    2  A    between atoms: N_3  and  C_4
REMARK    3  A    between atoms: C_8  and  C_9
REMARK    4  A    between atoms: C_9  and  O_11
REMARK    5  A    between atoms: C_16  and  O_17
REMARK    6  A    between atoms: O_17  and  C_18
REMARK                            x       y       z     vdW  Elec       q    Type
REMARK                         _______ _______ _______ _____ _____    ______ ____
ROOT
ATOM      1  O   UNL     1       2.740   7.840  18.112  0.00  0.00    +0.000 OA
ATOM      2  C   UNL     1       2.396   7.564  19.254  0.00  0.00    +0.000 C 
ATOM      3  N   UNL     1       2.690   6.372  19.904  0.00  0.00    +0.000 N 
ATOM      4  H   UNL     1       2.018   6.097  20.629  0.00  0.00    +0.000 HD
ENDROOT
BRANCH   2   5
ATOM      5  C   UNL     1       1.462   8.465  19.988  0.00  0.00    +0.000 A 
ATOM      6  C   UNL     1       1.040   8.185  21.291  0.00  0.00    +0.000 A 
ATOM      7  C   UNL     1       0.104   9.017  21.916  0.00  0.00    +0.000 A 
ATOM      8  C   UNL     1      -0.436  10.104  21.223  0.00  0.00    +0.000 A 
ATOM      9  C   UNL     1      -0.028  10.373  19.915  0.00  0.00    +0.000 A 
ATOM     10  C   UNL     1       0.966   9.592  19.321  0.00  0.00    +0.000 A 
BRANCH   9  11
ATOM     11  O   UNL     1      -0.638  11.435  19.280  0.00  0.00    +0.000 OA
BRANCH  11  12
ATOM     12  C   UNL     1      -1.908  11.267  18.763  0.00  0.00    +0.000 A 
ATOM     13  C   UNL     1      -3.018  12.033  19.154  0.00  0.00    +0.000 A 
ATOM     14  C   UNL     1      -4.277  11.756  18.638  0.00  0.00    +0.000 A 
ATOM     15  C   UNL     1      -4.433  10.762  17.670  0.00  0.00    +0.000 A 
ATOM     16  C   UNL     1      -3.321  10.051  17.218  0.00  0.00    +0.000 A 
ATOM     17  C   UNL     1      -2.059  10.303  17.767  0.00  0.00    +0.000 A 
ENDBRANCH  11  12
ENDBRANCH   9  11
ENDBRANCH   2   5
BRANCH   3  18
ATOM     18  C   UNL     1       3.389   5.342  19.320  0.00  0.00    +0.000 C 
ATOM     19  C   UNL     1       4.723   5.197  19.401  0.00  0.00    +0.000 C 
ATOM     20  C   UNL     1       5.312   3.992  18.746  0.00  0.00    +0.000 C 
ATOM     21  S   UNL     1       3.898   3.001  18.166  0.00  0.00    +0.000 S 
ATOM     22  C   UNL     1       2.663   4.316  18.492  0.00  0.00    +0.000 C 
BRANCH  22  23
ATOM     23  C   UNL     1       1.390   3.756  19.114  0.00  0.00    +0.000 C 
ATOM     24  O   UNL     1       0.881   4.185  20.145  0.00  0.00    +0.000 OA
BRANCH  23  25
ATOM     25  O   UNL     1       0.771   2.818  18.350  0.00  0.00    +0.000 OA
ATOM     26  H   UNL     1      -0.206   2.887  18.427  0.00  0.00    +0.000 HD
ENDBRANCH  23  25
ENDBRANCH  22  23
ENDBRANCH   3  18
TORSDOF 6
ENDMDL
MODEL 8
REMARK VINA RESULT:      -7.6      3.197      8.005
REMARK  Name = 
REMARK  6 active torsions:
REMARK  status: ('A' for Active; 'I' for Inactive)
REMARK    1  A    between atoms: C_2  and  C_12
REMARK    2  A    between atoms: N_3  and  C_4
REMARK    3  A    between atoms: C_8  and  C_9
REMARK    4  A    between atoms: C_9  and  O_11
REMARK    5  A    between atoms: C_16  and  O_17
REMARK    6  A    between atoms: O_17  and  C_18
REMARK                            x       y       z     vdW  Elec       q    Type
REMARK                         _______ _______ _______ _____ _____    ______ ____
ROOT
ATOM      1  O   UNL     1       1.268   5.635  20.709  0.00  0.00    +0.000 OA
ATOM      2  C   UNL     1       1.920   6.079  19.773  0.00  0.00    +0.000 C 
ATOM      3  N   UNL     1       2.076   7.430  19.487  0.00  0.00    +0.000 N 
ATOM      4  H   UNL     1       2.251   7.646  18.500  0.00  0.00    +0.000 HD
ENDROOT
BRANCH   2   5
ATOM      5  C   UNL     1       2.472   5.152  18.745  0.00  0.00    +0.000 A 
ATOM      6  C   UNL     1       1.845   3.942  18.432  0.00  0.00    +0.000 A 
ATOM      7  C   UNL     1       2.438   3.065  17.516  0.00  0.00    +0.000 A 
ATOM      8  C   UNL     1       3.672   3.383  16.943  0.00  0.00    +0.000 A 
ATOM      9  C   UNL     1       4.307   4.584  17.270  0.00  0.00    +0.000 A 
ATOM     10  C   UNL     1       3.677   5.495  18.120  0.00  0.00    +0.000 A 
BRANCH   9  11
ATOM     11  O   UNL     1       5.543   4.807  16.701  0.00  0.00    +0.000 OA
BRANCH  11  12
ATOM     12  C   UNL     1       6.420   5.677  17.320  0.00  0.00    +0.000 A 
ATOM     13  C   UNL     1       6.620   7.005  16.913  0.00  0.00    +0.000 A 
ATOM     14  C   UNL     1       7.571   7.796  17.545  0.00  0.00    +0.000 A 
ATOM     15  C   UNL     1       8.281   7.296  18.639  0.00  0.00    +0.000 A 
ATOM     16  C   UNL     1       8.029   6.003  19.099  0.00  0.00    +0.000 A 
ATOM     17  C   UNL     1       7.100   5.194  18.438  0.00  0.00    +0.000 A 
ENDBRANCH  11  12
ENDBRANCH   9  11
ENDBRANCH   2   5
BRANCH   3  18
ATOM     18  C   UNL     1       1.488   8.434  20.220  0.00  0.00    +0.000 C 
ATOM     19  C   UNL     1       1.478   8.477  21.563  0.00  0.00    +0.000 C 
ATOM     20  C   UNL     1       0.836   9.667  22.195  0.00  0.00    +0.000 C 
ATOM     21  S   UNL     1       0.405  10.786  20.824  0.00  0.00    +0.000 S 
ATOM     22  C   UNL     1       0.762   9.550  19.518  0.00  0.00    +0.000 C 
BRANCH  22  23
ATOM     23  C   UNL     1       1.500  10.169  18.338  0.00  0.00    +0.000 C 
ATOM     24  O   UNL     1       2.059   9.521  17.458  0.00  0.00    +0.000 OA
BRANCH  23  25
ATOM     25  O   UNL     1       1.370  11.519  18.255  0.00  0.00    +0.000 OA
ATOM     26  H   UNL     1       0.696  11.770  17.586  0.00  0.00    +0.000 HD
ENDBRANCH  23  25
ENDBRANCH  22  23
ENDBRANCH   3  18
TORSDOF 6
ENDMDL
MODEL 9
REMARK VINA RESULT:      -7.4      3.210      7.878
REMARK  Name = 
REMARK  6 active torsions:
REMARK  status: ('A' for Active; 'I' for Inactive)
REMARK    1  A    between atoms: C_2  and  C_12
REMARK    2  A    between atoms: N_3  and  C_4
REMARK    3  A    between atoms: C_8  and  C_9
REMARK    4  A    between atoms: C_9  and  O_11
REMARK    5  A    between atoms: C_16  and  O_17
REMARK    6  A    between atoms: O_17  and  C_18
REMARK                            x       y       z     vdW  Elec       q    Type
REMARK                         _______ _______ _______ _____ _____    ______ ____
ROOT
ATOM      1  O   UNL     1       1.351   8.800  21.783  0.00  0.00    +0.000 OA
ATOM      2  C   UNL     1       1.415   8.504  20.597  0.00  0.00    +0.000 C 
ATOM      3  N   UNL     1       1.020   9.331  19.552  0.00  0.00    +0.000 N 
ATOM      4  H   UNL     1       0.722   8.841  18.702  0.00  0.00    +0.000 HD
ENDROOT
BRANCH   2   5
ATOM      5  C   UNL     1       1.785   7.118  20.195  0.00  0.00    +0.000 A 
ATOM      6  C   UNL     1       1.323   5.999  20.896  0.00  0.00    +0.000 A 
ATOM      7  C   UNL     1       1.755   4.719  20.531  0.00  0.00    +0.000 A 
ATOM      8  C   UNL     1       2.676   4.562  19.492  0.00  0.00    +0.000 A 
ATOM      9  C   UNL     1       3.151   5.681  18.803  0.00  0.00    +0.000 A 
ATOM     10  C   UNL     1       2.658   6.950  19.113  0.00  0.00    +0.000 A 
BRANCH   9  11
ATOM     11  O   UNL     1       4.092   5.452  17.821  0.00  0.00    +0.000 OA
BRANCH  11  12
ATOM     12  C   UNL     1       5.381   5.915  18.005  0.00  0.00    +0.000 A 
ATOM     13  C   UNL     1       5.964   6.929  17.229  0.00  0.00    +0.000 A 
ATOM     14  C   UNL     1       7.290   7.290  17.432  0.00  0.00    +0.000 A 
ATOM     15  C   UNL     1       8.027   6.699  18.460  0.00  0.00    +0.000 A 
ATOM     16  C   UNL     1       7.428   5.747  19.286  0.00  0.00    +0.000 A 
ATOM     17  C   UNL     1       6.106   5.354  19.057  0.00  0.00    +0.000 A 
ENDBRANCH  11  12
ENDBRANCH   9  11
ENDBRANCH   2   5
BRANCH   3  18
ATOM     18  C   UNL     1       0.481  10.582  19.737  0.00  0.00    +0.000 C 
ATOM     19  C   UNL     1       1.187  11.652  20.141  0.00  0.00    +0.000 C 
ATOM     20  C   UNL     1       0.451  12.946  20.243  0.00  0.00    +0.000 C 
ATOM     21  S   UNL     1      -1.218  12.622  19.589  0.00  0.00    +0.000 S 
ATOM     22  C   UNL     1      -0.993  10.803  19.529  0.00  0.00    +0.000 C 
BRANCH  22  23
ATOM     23  C   UNL     1      -1.570  10.203  18.254  0.00  0.00    +0.000 C 
ATOM     24  O   UNL     1      -2.769  10.023  18.058  0.00  0.00    +0.000 OA
BRANCH  23  25
ATOM     25  O   UNL     1      -0.651  10.005  17.273  0.00  0.00    +0.000 OA
ATOM     26  H   UNL     1      -0.993   9.392  16.586  0.00  0.00    +0.000 HD
ENDBRANCH  23  25
ENDBRANCH  22  23
ENDBRANCH   3  18
TORSDOF 6
ENDMDL
