MODEL 1
REMARK VINA RESULT:      -6.4      0.000      0.000
REMARK  Name = 
REMARK  2 active torsions:
REMARK  status: ('A' for Active; 'I' for Inactive)
REMARK    1  A    between atoms: C_10  and  C_11
REMARK    2  A    between atoms: C_10  and  C_16
REMARK                            x       y       z     vdW  Elec       q    Type
REMARK                         _______ _______ _______ _____ _____    ______ ____
ROOT
ATOM      1 CL   UNL     1      -2.524  10.779  16.366  0.00  0.00    +0.000 Cl
ATOM      2  C   UNL     1      -2.854  11.520  17.886  0.00  0.00    +0.000 A 
ATOM      3  C   UNL     1      -4.185  11.822  18.188  0.00  0.00    +0.000 A 
ATOM      4  C   UNL     1      -4.510  12.425  19.399  0.00  0.00    +0.000 A 
ATOM      5  C   UNL     1      -3.502  12.732  20.304  0.00  0.00    +0.000 A 
ATOM      6  C   UNL     1      -2.187  12.434  19.969  0.00  0.00    +0.000 A 
ATOM      7  N   UNL     1      -1.890  11.827  18.782  0.00  0.00    +0.000 N 
ATOM      8  C   UNL     1      -0.436  11.518  18.582  0.00  0.00    +0.000 C 
ATOM      9  C   UNL     1       0.281  12.886  18.606  0.00  0.00    +0.000 C 
ATOM     10  C   UNL     1      -0.007  13.652  19.984  0.00  0.00    +0.000 C 
ATOM     11  C   UNL     1      -0.973  12.713  20.846  0.00  0.00    +0.000 C 
ATOM     12  C   UNL     1      -0.293  11.360  21.022  0.00  0.00    +0.000 A 
ATOM     13  C   UNL     1       0.044  10.771  22.232  0.00  0.00    +0.000 A 
ATOM     14  C   UNL     1       0.713   9.547  22.210  0.00  0.00    +0.000 A 
ATOM     15  C   UNL     1       1.032   8.926  20.994  0.00  0.00    +0.000 A 
ATOM     16  C   UNL     1       0.679   9.510  19.776  0.00  0.00    +0.000 A 
ATOM     17  C   UNL     1       0.012  10.727  19.795  0.00  0.00    +0.000 A 
ENDROOT
BRANCH  10  18
ATOM     18  C   UNL     1      -0.701  14.999  19.702  0.00  0.00    +0.000 A 
ATOM     19  C   UNL     1      -1.682  15.669  20.508  0.00  0.00    +0.000 A 
ATOM     20  C   UNL     1      -2.004  16.838  19.863  0.00  0.00    +0.000 A 
ATOM     21  O   UNL     1      -1.281  16.956  18.725  0.00  0.00    +0.000 OA
ATOM     22  C   UNL     1      -0.476  15.870  18.648  0.00  0.00    +0.000 A 
ENDBRANCH  10  18
BRANCH  10  23
ATOM     23  C   UNL     1       1.304  13.919  20.746  0.00  0.00    +0.000 A 
ATOM     24  C   UNL     1       2.636  13.525  20.385  0.00  0.00    +0.000 A 
ATOM     25  C   UNL     1       3.477  13.982  21.372  0.00  0.00    +0.000 A 
ATOM     26  O   UNL     1       2.773  14.654  22.310  0.00  0.00    +0.000 OA
ATOM     27  C   UNL     1       1.474  14.618  21.933  0.00  0.00    +0.000 A 
ENDBRANCH  10  23
TORSDOF 2
ENDMDL
MODEL 2
REMARK VINA RESULT:      -6.1      8.468     10.894
REMARK  Name = 
REMARK  2 active torsions:
REMARK  status: ('A' for Active; 'I' for Inactive)
REMARK    1  A    between atoms: C_10  and  C_11
REMARK    2  A    between atoms: C_10  and  C_16
REMARK                            x       y       z     vdW  Elec       q    Type
REMARK                         _______ _______ _______ _____ _____    ______ ____
ROOT
ATOM      1 CL   UNL     1       7.720  12.679  17.068  0.00  0.00    +0.000 Cl
ATOM      2  C   UNL     1       8.776  12.387  18.398  0.00  0.00    +0.000 A 
ATOM      3  C   UNL     1       9.371  11.125  18.492  0.00  0.00    +0.000 A 
ATOM      4  C   UNL     1      10.228  10.831  19.548  0.00  0.00    +0.000 A 
ATOM      5  C   UNL     1      10.484  11.797  20.512  0.00  0.00    +0.000 A 
ATOM      6  C   UNL     1       9.866  13.036  20.400  0.00  0.00    +0.000 A 
ATOM      7  N   UNL     1       9.040  13.311  19.347  0.00  0.00    +0.000 N 
ATOM      8  C   UNL     1       8.489  14.706  19.330  0.00  0.00    +0.000 C 
ATOM      9  C   UNL     1       7.660  14.836  20.628  0.00  0.00    +0.000 C 
ATOM     10  C   UNL     1       8.572  14.544  21.912  0.00  0.00    +0.000 C 
ATOM     11  C   UNL     1      10.037  14.195  21.375  0.00  0.00    +0.000 C 
ATOM     12  C   UNL     1      10.526  15.360  20.522  0.00  0.00    +0.000 A 
ATOM     13  C   UNL     1      11.662  16.121  20.759  0.00  0.00    +0.000 A 
ATOM     14  C   UNL     1      11.933  17.189  19.906  0.00  0.00    +0.000 A 
ATOM     15  C   UNL     1      11.081  17.484  18.832  0.00  0.00    +0.000 A 
ATOM     16  C   UNL     1       9.947  16.710  18.582  0.00  0.00    +0.000 A 
ATOM     17  C   UNL     1       9.674  15.644  19.430  0.00  0.00    +0.000 A 
ENDROOT
BRANCH  10  18
ATOM     18  C   UNL     1       8.004  13.348  22.701  0.00  0.00    +0.000 A 
ATOM     19  C   UNL     1       8.687  12.516  23.651  0.00  0.00    +0.000 A 
ATOM     20  C   UNL     1       7.780  11.588  24.100  0.00  0.00    +0.000 A 
ATOM     21  O   UNL     1       6.577  11.792  23.516  0.00  0.00    +0.000 OA
ATOM     22  C   UNL     1       6.704  12.869  22.703  0.00  0.00    +0.000 A 
ENDBRANCH  10  18
BRANCH  10  23
ATOM     23  C   UNL     1       8.619  15.773  22.841  0.00  0.00    +0.000 A 
ATOM     24  C   UNL     1       9.489  16.008  23.957  0.00  0.00    +0.000 A 
ATOM     25  C   UNL     1       9.157  17.235  24.479  0.00  0.00    +0.000 A 
ATOM     26  O   UNL     1       8.162  17.796  23.759  0.00  0.00    +0.000 OA
ATOM     27  C   UNL     1       7.843  16.922  22.776  0.00  0.00    +0.000 A 
ENDBRANCH  10  23
TORSDOF 2
ENDMDL
MODEL 3
REMARK VINA RESULT:      -6.1      2.659      4.839
REMARK  Name = 
REMARK  2 active torsions:
REMARK  status: ('A' for Active; 'I' for Inactive)
REMARK    1  A    between atoms: C_10  and  C_11
REMARK    2  A    between atoms: C_10  and  C_16
REMARK                            x       y       z     vdW  Elec       q    Type
REMARK                         _______ _______ _______ _____ _____    ______ ____
ROOT
ATOM      1 CL   UNL     1       0.077   9.620  23.376  0.00  0.00    +0.000 Cl
ATOM      2  C   UNL     1      -0.507  10.327  21.917  0.00  0.00    +0.000 A 
ATOM      3  C   UNL     1      -0.290   9.631  20.725  0.00  0.00    +0.000 A 
ATOM      4  C   UNL     1      -0.736  10.156  19.515  0.00  0.00    +0.000 A 
ATOM      5  C   UNL     1      -1.392  11.379  19.500  0.00  0.00    +0.000 A 
ATOM      6  C   UNL     1      -1.579  12.054  20.699  0.00  0.00    +0.000 A 
ATOM      7  N   UNL     1      -1.148  11.515  21.878  0.00  0.00    +0.000 N 
ATOM      8  C   UNL     1      -1.468  12.331  23.095  0.00  0.00    +0.000 C 
ATOM      9  C   UNL     1      -0.733  13.675  22.893  0.00  0.00    +0.000 C 
ATOM     10  C   UNL     1      -1.203  14.379  21.533  0.00  0.00    +0.000 C 
ATOM     11  C   UNL     1      -2.271  13.404  20.849  0.00  0.00    +0.000 C 
ATOM     12  C   UNL     1      -3.402  13.160  21.841  0.00  0.00    +0.000 A 
ATOM     13  C   UNL     1      -4.741  13.465  21.639  0.00  0.00    +0.000 A 
ATOM     14  C   UNL     1      -5.639  13.224  22.678  0.00  0.00    +0.000 A 
ATOM     15  C   UNL     1      -5.201  12.683  23.895  0.00  0.00    +0.000 A 
ATOM     16  C   UNL     1      -3.857  12.361  24.094  0.00  0.00    +0.000 A 
ATOM     17  C   UNL     1      -2.960  12.598  23.061  0.00  0.00    +0.000 A 
ENDROOT
BRANCH  10  18
ATOM     18  C   UNL     1       0.005  14.573  20.596  0.00  0.00    +0.000 A 
ATOM     19  C   UNL     1      -0.006  14.980  19.219  0.00  0.00    +0.000 A 
ATOM     20  C   UNL     1       1.301  15.023  18.801  0.00  0.00    +0.000 A 
ATOM     21  O   UNL     1       2.127  14.692  19.820  0.00  0.00    +0.000 OA
ATOM     22  C   UNL     1       1.350  14.456  20.904  0.00  0.00    +0.000 A 
ENDBRANCH  10  18
BRANCH  10  23
ATOM     23  C   UNL     1      -1.836  15.754  21.818  0.00  0.00    +0.000 A 
ATOM     24  C   UNL     1      -2.666  16.544  20.955  0.00  0.00    +0.000 A 
ATOM     25  C   UNL     1      -2.986  17.692  21.638  0.00  0.00    +0.000 A 
ATOM     26  O   UNL     1      -2.439  17.669  22.873  0.00  0.00    +0.000 OA
ATOM     27  C   UNL     1      -1.754  16.507  22.981  0.00  0.00    +0.000 A 
ENDBRANCH  10  23
TORSDOF 2
ENDMDL
MODEL 4
REMARK VINA RESULT:      -6.1      2.620      4.818
REMARK  Name = 
REMARK  2 active torsions:
REMARK  status: ('A' for Active; 'I' for Inactive)
REMARK    1  A    between atoms: C_10  and  C_11
REMARK    2  A    between atoms: C_10  and  C_16
REMARK                            x       y       z     vdW  Elec       q    Type
REMARK                         _______ _______ _______ _____ _____    ______ ____
ROOT
ATOM      1 CL   UNL     1       0.157   9.632  23.340  0.00  0.00    +0.000 Cl
ATOM      2  C   UNL     1      -0.454  10.317  21.881  0.00  0.00    +0.000 A 
ATOM      3  C   UNL     1      -0.252   9.606  20.695  0.00  0.00    +0.000 A 
ATOM      4  C   UNL     1      -0.719  10.114  19.485  0.00  0.00    +0.000 A 
ATOM      5  C   UNL     1      -1.381  11.334  19.464  0.00  0.00    +0.000 A 
ATOM      6  C   UNL     1      -1.552  12.024  20.658  0.00  0.00    +0.000 A 
ATOM      7  N   UNL     1      -1.100  11.502  21.837  0.00  0.00    +0.000 N 
ATOM      8  C   UNL     1      -1.405  12.333  23.048  0.00  0.00    +0.000 C 
ATOM      9  C   UNL     1      -0.678  13.677  22.817  0.00  0.00    +0.000 C 
ATOM     10  C   UNL     1      -1.173  14.361  21.456  0.00  0.00    +0.000 C 
ATOM     11  C   UNL     1      -2.247  13.373  20.801  0.00  0.00    +0.000 C 
ATOM     12  C   UNL     1      -3.362  13.137  21.814  0.00  0.00    +0.000 A 
ATOM     13  C   UNL     1      -4.705  13.434  21.629  0.00  0.00    +0.000 A 
ATOM     14  C   UNL     1      -5.585  13.202  22.685  0.00  0.00    +0.000 A 
ATOM     15  C   UNL     1      -5.125  12.679  23.902  0.00  0.00    +0.000 A 
ATOM     16  C   UNL     1      -3.777  12.365  24.084  0.00  0.00    +0.000 A 
ATOM     17  C   UNL     1      -2.898  12.593  23.034  0.00  0.00    +0.000 A 
ENDROOT
BRANCH  10  18
ATOM     18  C   UNL     1       0.019  14.547  20.497  0.00  0.00    +0.000 A 
ATOM     19  C   UNL     1       1.402  14.251  20.744  0.00  0.00    +0.000 A 
ATOM     20  C   UNL     1       2.093  14.571  19.603  0.00  0.00    +0.000 A 
ATOM     21  O   UNL     1       1.242  15.027  18.655  0.00  0.00    +0.000 OA
ATOM     22  C   UNL     1      -0.005  14.979  19.181  0.00  0.00    +0.000 A 
ENDBRANCH  10  18
BRANCH  10  23
ATOM     23  C   UNL     1      -1.807  15.737  21.733  0.00  0.00    +0.000 A 
ATOM     24  C   UNL     1      -1.712  16.533  22.922  0.00  0.00    +0.000 A 
ATOM     25  C   UNL     1      -2.444  17.676  22.707  0.00  0.00    +0.000 A 
ATOM     26  O   UNL     1      -2.971  17.664  21.463  0.00  0.00    +0.000 OA
ATOM     27  C   UNL     1      -2.586  16.505  20.880  0.00  0.00    +0.000 A 
ENDBRANCH  10  23
TORSDOF 2
ENDMDL
MODEL 5
REMARK VINA RESULT:      -5.8      2.670      5.495
REMARK  Name = 
REMARK  2 active torsions:
REMARK  status: ('A' for Active; 'I' for Inactive)
REMARK    1  A    between atoms: C_10  and  C_11
REMARK    2  A    between atoms: C_10  and  C_16
REMARK                            x       y       z     vdW  Elec       q    Type
REMARK                         _______ _______ _______ _____ _____    ______ ____
ROOT
ATOM      1 CL   UNL     1      -5.375  11.051  18.653  0.00  0.00    +0.000 Cl
ATOM      2  C   UNL     1      -3.794  11.724  18.784  0.00  0.00    +0.000 A 
ATOM      3  C   UNL     1      -2.850  11.357  17.821  0.00  0.00    +0.000 A 
ATOM      4  C   UNL     1      -1.555  11.865  17.879  0.00  0.00    +0.000 A 
ATOM      5  C   UNL     1      -1.206  12.734  18.905  0.00  0.00    +0.000 A 
ATOM      6  C   UNL     1      -2.162  13.067  19.855  0.00  0.00    +0.000 A 
ATOM      7  N   UNL     1      -3.432  12.570  19.772  0.00  0.00    +0.000 N 
ATOM      8  C   UNL     1      -4.368  13.060  20.836  0.00  0.00    +0.000 C 
ATOM      9  C   UNL     1      -3.759  12.579  22.172  0.00  0.00    +0.000 C 
ATOM     10  C   UNL     1      -2.270  13.142  22.350  0.00  0.00    +0.000 C 
ATOM     11  C   UNL     1      -1.935  13.998  21.041  0.00  0.00    +0.000 C 
ATOM     12  C   UNL     1      -2.993  15.086  20.897  0.00  0.00    +0.000 A 
ATOM     13  C   UNL     1      -2.756  16.453  20.881  0.00  0.00    +0.000 A 
ATOM     14  C   UNL     1      -3.849  17.314  20.795  0.00  0.00    +0.000 A 
ATOM     15  C   UNL     1      -5.155  16.810  20.723  0.00  0.00    +0.000 A 
ATOM     16  C   UNL     1      -5.394  15.435  20.722  0.00  0.00    +0.000 A 
ATOM     17  C   UNL     1      -4.308  14.575  20.806  0.00  0.00    +0.000 A 
ENDROOT
BRANCH  10  18
ATOM     18  C   UNL     1      -1.277  11.970  22.477  0.00  0.00    +0.000 A 
ATOM     19  C   UNL     1      -1.466  10.727  23.170  0.00  0.00    +0.000 A 
ATOM     20  C   UNL     1      -0.318   9.993  23.003  0.00  0.00    +0.000 A 
ATOM     21  O   UNL     1       0.565  10.677  22.241  0.00  0.00    +0.000 OA
ATOM     22  C   UNL     1      -0.024  11.847  21.897  0.00  0.00    +0.000 A 
ENDBRANCH  10  18
BRANCH  10  23
ATOM     23  C   UNL     1      -2.163  14.021  23.609  0.00  0.00    +0.000 A 
ATOM     24  C   UNL     1      -3.174  14.292  24.590  0.00  0.00    +0.000 A 
ATOM     25  C   UNL     1      -2.619  15.132  25.526  0.00  0.00    +0.000 A 
ATOM     26  O   UNL     1      -1.329  15.387  25.217  0.00  0.00    +0.000 OA
ATOM     27  C   UNL     1      -1.056  14.719  24.072  0.00  0.00    +0.000 A 
ENDBRANCH  10  23
TORSDOF 2
ENDMDL
MODEL 6
REMARK VINA RESULT:      -5.8      1.820      4.248
REMARK  Name = 
REMARK  2 active torsions:
REMARK  status: ('A' for Active; 'I' for Inactive)
REMARK    1  A    between atoms: C_10  and  C_11
REMARK    2  A    between atoms: C_10  and  C_16
REMARK                            x       y       z     vdW  Elec       q    Type
REMARK                         _______ _______ _______ _____ _____    ______ ____
ROOT
ATOM      1 CL   UNL     1       0.923   9.393  17.989  0.00  0.00    +0.000 Cl
ATOM      2  C   UNL     1       0.586  10.020  19.558  0.00  0.00    +0.000 A 
ATOM      3  C   UNL     1       0.367   9.105  20.592  0.00  0.00    +0.000 A 
ATOM      4  C   UNL     1       0.086   9.554  21.879  0.00  0.00    +0.000 A 
ATOM      5  C   UNL     1       0.016  10.918  22.128  0.00  0.00    +0.000 A 
ATOM      6  C   UNL     1       0.223  11.803  21.077  0.00  0.00    +0.000 A 
ATOM      7  N   UNL     1       0.513  11.343  19.824  0.00  0.00    +0.000 N 
ATOM      8  C   UNL     1       0.764  12.414  18.806  0.00  0.00    +0.000 C 
ATOM      9  C   UNL     1      -0.554  13.216  18.720  0.00  0.00    +0.000 C 
ATOM     10  C   UNL     1      -0.950  13.806  20.156  0.00  0.00    +0.000 C 
ATOM     11  C   UNL     1       0.173  13.322  21.186  0.00  0.00    +0.000 C 
ATOM     12  C   UNL     1       1.528  13.799  20.675  0.00  0.00    +0.000 A 
ATOM     13  C   UNL     1       2.402  14.639  21.351  0.00  0.00    +0.000 A 
ATOM     14  C   UNL     1       3.581  15.020  20.712  0.00  0.00    +0.000 A 
ATOM     15  C   UNL     1       3.879  14.562  19.421  0.00  0.00    +0.000 A 
ATOM     16  C   UNL     1       3.008  13.703  18.747  0.00  0.00    +0.000 A 
ATOM     17  C   UNL     1       1.834  13.321  19.380  0.00  0.00    +0.000 A 
ENDROOT
BRANCH  10  18
ATOM     18  C   UNL     1      -2.326  13.261  20.587  0.00  0.00    +0.000 A 
ATOM     19  C   UNL     1      -2.916  13.295  21.896  0.00  0.00    +0.000 A 
ATOM     20  C   UNL     1      -4.149  12.700  21.798  0.00  0.00    +0.000 A 
ATOM     21  O   UNL     1      -4.381  12.316  20.522  0.00  0.00    +0.000 OA
ATOM     22  C   UNL     1      -3.302  12.684  19.791  0.00  0.00    +0.000 A 
ENDBRANCH  10  18
BRANCH  10  23
ATOM     23  C   UNL     1      -1.017  15.345  20.116  0.00  0.00    +0.000 A 
ATOM     24  C   UNL     1      -0.708  16.217  19.021  0.00  0.00    +0.000 A 
ATOM     25  C   UNL     1      -0.910  17.505  19.456  0.00  0.00    +0.000 A 
ATOM     26  O   UNL     1      -1.345  17.502  20.735  0.00  0.00    +0.000 OA
ATOM     27  C   UNL     1      -1.413  16.208  21.128  0.00  0.00    +0.000 A 
ENDBRANCH  10  23
TORSDOF 2
ENDMDL
MODEL 7
REMARK VINA RESULT:      -5.7      1.331      1.616
REMARK  Name = 
REMARK  2 active torsions:
REMARK  status: ('A' for Active; 'I' for Inactive)
REMARK    1  A    between atoms: C_10  and  C_11
REMARK    2  A    between atoms: C_10  and  C_16
REMARK                            x       y       z     vdW  Elec       q    Type
REMARK                         _______ _______ _______ _____ _____    ______ ____
ROOT
ATOM      1 CL   UNL     1      -4.524  11.767  17.668  0.00  0.00    +0.000 Cl
ATOM      2  C   UNL     1      -4.375  12.215  19.325  0.00  0.00    +0.000 A 
ATOM      3  C   UNL     1      -5.552  12.412  20.053  0.00  0.00    +0.000 A 
ATOM      4  C   UNL     1      -5.493  12.780  21.394  0.00  0.00    +0.000 A 
ATOM      5  C   UNL     1      -4.258  12.957  22.002  0.00  0.00    +0.000 A 
ATOM      6  C   UNL     1      -3.106  12.769  21.248  0.00  0.00    +0.000 A 
ATOM      7  N   UNL     1      -3.185  12.393  19.937  0.00  0.00    +0.000 N 
ATOM      8  C   UNL     1      -1.861  12.175  19.267  0.00  0.00    +0.000 C 
ATOM      9  C   UNL     1      -1.142  13.542  19.324  0.00  0.00    +0.000 C 
ATOM     10  C   UNL     1      -0.996  14.041  20.839  0.00  0.00    +0.000 C 
ATOM     11  C   UNL     1      -1.682  12.931  21.764  0.00  0.00    +0.000 C 
ATOM     12  C   UNL     1      -1.006  11.593  21.488  0.00  0.00    +0.000 A 
ATOM     13  C   UNL     1      -0.338  10.811  22.419  0.00  0.00    +0.000 A 
ATOM     14  C   UNL     1       0.271   9.636  21.982  0.00  0.00    +0.000 A 
ATOM     15  C   UNL     1       0.206   9.251  20.635  0.00  0.00    +0.000 A 
ATOM     16  C   UNL     1      -0.481  10.028  19.700  0.00  0.00    +0.000 A 
ATOM     17  C   UNL     1      -1.090  11.198  20.132  0.00  0.00    +0.000 A 
ENDROOT
BRANCH  10  18
ATOM     18  C   UNL     1      -1.717  15.392  21.020  0.00  0.00    +0.000 A 
ATOM     19  C   UNL     1      -2.277  15.936  22.225  0.00  0.00    +0.000 A 
ATOM     20  C   UNL     1      -2.806  17.162  21.906  0.00  0.00    +0.000 A 
ATOM     21  O   UNL     1      -2.599  17.431  20.596  0.00  0.00    +0.000 OA
ATOM     22  C   UNL     1      -1.916  16.385  20.075  0.00  0.00    +0.000 A 
ENDBRANCH  10  18
BRANCH  10  23
ATOM     23  C   UNL     1       0.487  14.215  21.218  0.00  0.00    +0.000 A 
ATOM     24  C   UNL     1       1.643  13.749  20.508  0.00  0.00    +0.000 A 
ATOM     25  C   UNL     1       2.747  14.137  21.230  0.00  0.00    +0.000 A 
ATOM     26  O   UNL     1       2.368  14.831  22.325  0.00  0.00    +0.000 OA
ATOM     27  C   UNL     1       1.015  14.881  22.315  0.00  0.00    +0.000 A 
ENDBRANCH  10  23
TORSDOF 2
ENDMDL
MODEL 8
REMARK VINA RESULT:      -5.7      3.540      4.508
REMARK  Name = 
REMARK  2 active torsions:
REMARK  status: ('A' for Active; 'I' for Inactive)
REMARK    1  A    between atoms: C_10  and  C_11
REMARK    2  A    between atoms: C_10  and  C_16
REMARK                            x       y       z     vdW  Elec       q    Type
REMARK                         _______ _______ _______ _____ _____    ______ ____
ROOT
ATOM      1 CL   UNL     1      -6.502  12.987  19.361  0.00  0.00    +0.000 Cl
ATOM      2  C   UNL     1      -6.175  12.928  21.052  0.00  0.00    +0.000 A 
ATOM      3  C   UNL     1      -7.215  12.540  21.902  0.00  0.00    +0.000 A 
ATOM      4  C   UNL     1      -7.010  12.480  23.278  0.00  0.00    +0.000 A 
ATOM      5  C   UNL     1      -5.768  12.814  23.801  0.00  0.00    +0.000 A 
ATOM      6  C   UNL     1      -4.759  13.211  22.931  0.00  0.00    +0.000 A 
ATOM      7  N   UNL     1      -4.975  13.249  21.583  0.00  0.00    +0.000 N 
ATOM      8  C   UNL     1      -3.780  13.643  20.767  0.00  0.00    +0.000 C 
ATOM      9  C   UNL     1      -3.422  15.074  21.229  0.00  0.00    +0.000 C 
ATOM     10  C   UNL     1      -3.135  15.104  22.805  0.00  0.00    +0.000 C 
ATOM     11  C   UNL     1      -3.350  13.615  23.347  0.00  0.00    +0.000 C 
ATOM     12  C   UNL     1      -2.427  12.684  22.569  0.00  0.00    +0.000 A 
ATOM     13  C   UNL     1      -1.431  11.885  23.113  0.00  0.00    +0.000 A 
ATOM     14  C   UNL     1      -0.640  11.132  22.248  0.00  0.00    +0.000 A 
ATOM     15  C   UNL     1      -0.848  11.177  20.862  0.00  0.00    +0.000 A 
ATOM     16  C   UNL     1      -1.860  11.967  20.314  0.00  0.00    +0.000 A 
ATOM     17  C   UNL     1      -2.651  12.718  21.174  0.00  0.00    +0.000 A 
ENDROOT
BRANCH  10  18
ATOM     18  C   UNL     1      -4.122  16.062  23.501  0.00  0.00    +0.000 A 
ATOM     19  C   UNL     1      -5.177  16.828  22.900  0.00  0.00    +0.000 A 
ATOM     20  C   UNL     1      -5.793  17.526  23.908  0.00  0.00    +0.000 A 
ATOM     21  O   UNL     1      -5.214  17.237  25.096  0.00  0.00    +0.000 OA
ATOM     22  C   UNL     1      -4.235  16.333  24.855  0.00  0.00    +0.000 A 
ENDBRANCH  10  18
BRANCH  10  23
ATOM     23  C   UNL     1      -1.698  15.578  23.091  0.00  0.00    +0.000 A 
ATOM     24  C   UNL     1      -0.791  16.245  22.201  0.00  0.00    +0.000 A 
ATOM     25  C   UNL     1       0.374  16.464  22.897  0.00  0.00    +0.000 A 
ATOM     26  O   UNL     1       0.254  16.006  24.162  0.00  0.00    +0.000 OA
ATOM     27  C   UNL     1      -0.987  15.480  24.278  0.00  0.00    +0.000 A 
ENDBRANCH  10  23
TORSDOF 2
ENDMDL
MODEL 9
REMARK VINA RESULT:      -5.7      2.319      4.525
REMARK  Name = 
REMARK  2 active torsions:
REMARK  status: ('A' for Active; 'I' for Inactive)
REMARK    1  A    between atoms: C_10  and  C_11
REMARK    2  A    between atoms: C_10  and  C_16
REMARK                            x       y       z     vdW  Elec       q    Type
REMARK                         _______ _______ _______ _____ _____    ______ ____
ROOT
ATOM      1 CL   UNL     1      -0.822  10.085  18.129  0.00  0.00    +0.000 Cl
ATOM      2  C   UNL     1      -0.592  10.400  19.808  0.00  0.00    +0.000 A 
ATOM      3  C   UNL     1      -0.482   9.303  20.666  0.00  0.00    +0.000 A 
ATOM      4  C   UNL     1      -0.301   9.497  22.033  0.00  0.00    +0.000 A 
ATOM      5  C   UNL     1      -0.236  10.788  22.539  0.00  0.00    +0.000 A 
ATOM      6  C   UNL     1      -0.364  11.858  21.662  0.00  0.00    +0.000 A 
ATOM      7  N   UNL     1      -0.526  11.647  20.322  0.00  0.00    +0.000 N 
ATOM      8  C   UNL     1      -0.595  12.896  19.495  0.00  0.00    +0.000 C 
ATOM      9  C   UNL     1      -1.837  13.660  20.006  0.00  0.00    +0.000 C 
ATOM     10  C   UNL     1      -1.709  13.961  21.574  0.00  0.00    +0.000 C 
ATOM     11  C   UNL     1      -0.322  13.329  22.059  0.00  0.00    +0.000 C 
ATOM     12  C   UNL     1       0.799  13.933  21.221  0.00  0.00    +0.000 A 
ATOM     13  C   UNL     1       1.877  14.660  21.707  0.00  0.00    +0.000 A 
ATOM     14  C   UNL     1       2.786  15.188  20.792  0.00  0.00    +0.000 A 
ATOM     15  C   UNL     1       2.617  14.986  19.415  0.00  0.00    +0.000 A 
ATOM     16  C   UNL     1       1.543  14.241  18.925  0.00  0.00    +0.000 A 
ATOM     17  C   UNL     1       0.636  13.713  19.834  0.00  0.00    +0.000 A 
ENDROOT
BRANCH  10  18
ATOM     18  C   UNL     1      -2.878  13.304  22.334  0.00  0.00    +0.000 A 
ATOM     19  C   UNL     1      -3.031  13.151  23.753  0.00  0.00    +0.000 A 
ATOM     20  C   UNL     1      -4.229  12.515  23.963  0.00  0.00    +0.000 A 
ATOM     21  O   UNL     1      -4.845  12.278  22.782  0.00  0.00    +0.000 OA
ATOM     22  C   UNL     1      -4.050  12.783  21.808  0.00  0.00    +0.000 A 
ENDBRANCH  10  18
BRANCH  10  23
ATOM     23  C   UNL     1      -1.732  15.478  21.844  0.00  0.00    +0.000 A 
ATOM     24  C   UNL     1      -1.341  16.171  23.037  0.00  0.00    +0.000 A 
ATOM     25  C   UNL     1      -1.541  17.512  22.812  0.00  0.00    +0.000 A 
ATOM     26  O   UNL     1      -2.005  17.711  21.559  0.00  0.00    +0.000 OA
ATOM     27  C   UNL     1      -2.116  16.493  20.979  0.00  0.00    +0.000 A 
ENDBRANCH  10  23
TORSDOF 2
ENDMDL
