MODEL 1
REMARK VINA RESULT:      -6.5      0.000      0.000
REMARK  Name = 
REMARK  12 active torsions:
REMARK  status: ('A' for Active; 'I' for Inactive)
REMARK    1  A    between atoms: C_1  and  C_2
REMARK    2  A    between atoms: C_2  and  O_3
REMARK    3  A    between atoms: O_3  and  C_4
REMARK    4  A    between atoms: C_4  and  C_6
REMARK    5  A    between atoms: C_6  and  C_7
REMARK    6  A    between atoms: C_6  and  N_14
REMARK    7  A    between atoms: C_6  and  C_18
REMARK    8  A    between atoms: C_7  and  C_8
REMARK    9  A    between atoms: C_15  and  C_16
REMARK   10  A    between atoms: C_18  and  O_20
REMARK   11  A    between atoms: O_20  and  C_21
REMARK   12  A    between atoms: C_21  and  C_22
REMARK                            x       y       z     vdW  Elec       q    Type
REMARK                         _______ _______ _______ _____ _____    ______ ____
ROOT
ATOM      1  C   UNL     1       5.973   5.379  17.770  0.00  0.00    +0.000 C 
ENDROOT
BRANCH   1   2
ATOM      2  N   UNL     1       6.764   6.528  18.307  0.00  0.00    +0.000 N 
ATOM      3  C   UNL     1       7.540   7.330  17.515  0.00  0.00    +0.000 C 
ATOM      4  C   UNL     1       8.283   8.427  18.240  0.00  0.00    +0.000 C 
ATOM      5  O   UNL     1       7.653   7.172  16.309  0.00  0.00    +0.000 OA
ATOM      6  H   UNL     1       6.672   6.746  19.291  0.00  0.00    +0.000 HD
ENDBRANCH   1   2
BRANCH   1   7
ATOM      7  C   UNL     1       5.722   4.454  18.998  0.00  0.00    +0.000 C 
ATOM      8  O   UNL     1       6.217   4.597  20.109  0.00  0.00    +0.000 OA
BRANCH   7   9
ATOM      9  O   UNL     1       5.087   3.300  18.619  0.00  0.00    +0.000 OA
BRANCH   9  11
ATOM     10  C   UNL     1       2.859   2.304  18.671  0.00  0.00    +0.000 C 
ATOM     11  C   UNL     1       4.042   2.797  19.472  0.00  0.00    +0.000 C 
ENDBRANCH   9  11
ENDBRANCH   7   9
ENDBRANCH   1   7
BRANCH   1  12
ATOM     12  C   UNL     1       6.741   4.529  16.733  0.00  0.00    +0.000 C 
ATOM     13  O   UNL     1       7.912   4.185  16.885  0.00  0.00    +0.000 OA
BRANCH  12  14
ATOM     14  O   UNL     1       6.045   4.357  15.573  0.00  0.00    +0.000 OA
BRANCH  14  15
ATOM     15  C   UNL     1       6.835   4.445  14.378  0.00  0.00    +0.000 C 
ATOM     16  C   UNL     1       6.090   3.744  13.253  0.00  0.00    +0.000 C 
ENDBRANCH  14  15
ENDBRANCH  12  14
ENDBRANCH   1  12
BRANCH   1  17
ATOM     17  C   UNL     1       4.649   5.788  17.062  0.00  0.00    +0.000 C 
BRANCH  17  18
ATOM     18  C   UNL     1       3.670   6.666  17.806  0.00  0.00    +0.000 A 
ATOM     19  C   UNL     1       3.276   7.901  17.278  0.00  0.00    +0.000 A 
ATOM     20  C   UNL     1       2.375   8.713  17.967  0.00  0.00    +0.000 A 
ATOM     21  C   UNL     1       1.847   8.294  19.187  0.00  0.00    +0.000 A 
ATOM     22  C   UNL     1       2.204   7.051  19.706  0.00  0.00    +0.000 A 
ATOM     23  C   UNL     1       3.101   6.238  19.013  0.00  0.00    +0.000 A 
ENDBRANCH  17  18
ENDBRANCH   1  17
TORSDOF 9
ENDMDL
MODEL 2
REMARK VINA RESULT:      -6.5      1.773      4.222
REMARK  Name = 
REMARK  12 active torsions:
REMARK  status: ('A' for Active; 'I' for Inactive)
REMARK    1  A    between atoms: C_1  and  C_2
REMARK    2  A    between atoms: C_2  and  O_3
REMARK    3  A    between atoms: O_3  and  C_4
REMARK    4  A    between atoms: C_4  and  C_6
REMARK    5  A    between atoms: C_6  and  C_7
REMARK    6  A    between atoms: C_6  and  N_14
REMARK    7  A    between atoms: C_6  and  C_18
REMARK    8  A    between atoms: C_7  and  C_8
REMARK    9  A    between atoms: C_15  and  C_16
REMARK   10  A    between atoms: C_18  and  O_20
REMARK   11  A    between atoms: O_20  and  C_21
REMARK   12  A    between atoms: C_21  and  C_22
REMARK                            x       y       z     vdW  Elec       q    Type
REMARK                         _______ _______ _______ _____ _____    ______ ____
ROOT
ATOM      1  C   UNL     1       5.815   4.831  16.663  0.00  0.00    +0.000 C 
ENDROOT
BRANCH   1   2
ATOM      2  N   UNL     1       6.668   4.793  17.889  0.00  0.00    +0.000 N 
ATOM      3  C   UNL     1       7.414   5.862  18.310  0.00  0.00    +0.000 C 
ATOM      4  C   UNL     1       8.229   5.627  19.559  0.00  0.00    +0.000 C 
ATOM      5  O   UNL     1       7.446   6.930  17.717  0.00  0.00    +0.000 OA
ATOM      6  H   UNL     1       6.644   3.954  18.456  0.00  0.00    +0.000 HD
ENDBRANCH   1   2
BRANCH   1   7
ATOM      7  C   UNL     1       6.814   4.724  15.473  0.00  0.00    +0.000 C 
ATOM      8  O   UNL     1       7.673   5.549  15.190  0.00  0.00    +0.000 OA
BRANCH   7   9
ATOM      9  O   UNL     1       6.447   3.720  14.615  0.00  0.00    +0.000 OA
BRANCH   9  11
ATOM     10  C   UNL     1       5.419   3.368  12.430  0.00  0.00    +0.000 C 
ATOM     11  C   UNL     1       6.571   3.966  13.202  0.00  0.00    +0.000 C 
ENDBRANCH   9  11
ENDBRANCH   7   9
ENDBRANCH   1   7
BRANCH   1  12
ATOM     12  C   UNL     1       5.058   6.166  16.477  0.00  0.00    +0.000 C 
ATOM     13  O   UNL     1       5.073   6.804  15.426  0.00  0.00    +0.000 OA
BRANCH  12  14
ATOM     14  O   UNL     1       4.528   6.638  17.642  0.00  0.00    +0.000 OA
BRANCH  14  15
ATOM     15  C   UNL     1       3.425   7.541  17.480  0.00  0.00    +0.000 C 
ATOM     16  C   UNL     1       2.477   7.363  18.655  0.00  0.00    +0.000 C 
ENDBRANCH  14  15
ENDBRANCH  12  14
ENDBRANCH   1  12
BRANCH   1  17
ATOM     17  C   UNL     1       4.717   3.729  16.611  0.00  0.00    +0.000 C 
BRANCH  17  18
ATOM     18  C   UNL     1       3.664   3.703  17.695  0.00  0.00    +0.000 A 
ATOM     19  C   UNL     1       2.309   3.846  17.376  0.00  0.00    +0.000 A 
ATOM     20  C   UNL     1       1.339   3.826  18.378  0.00  0.00    +0.000 A 
ATOM     21  C   UNL     1       1.710   3.648  19.709  0.00  0.00    +0.000 A 
ATOM     22  C   UNL     1       3.053   3.469  20.036  0.00  0.00    +0.000 A 
ATOM     23  C   UNL     1       4.022   3.485  19.032  0.00  0.00    +0.000 A 
ENDBRANCH  17  18
ENDBRANCH   1  17
TORSDOF 9
ENDMDL
MODEL 3
REMARK VINA RESULT:      -6.4      1.363      4.318
REMARK  Name = 
REMARK  12 active torsions:
REMARK  status: ('A' for Active; 'I' for Inactive)
REMARK    1  A    between atoms: C_1  and  C_2
REMARK    2  A    between atoms: C_2  and  O_3
REMARK    3  A    between atoms: O_3  and  C_4
REMARK    4  A    between atoms: C_4  and  C_6
REMARK    5  A    between atoms: C_6  and  C_7
REMARK    6  A    between atoms: C_6  and  N_14
REMARK    7  A    between atoms: C_6  and  C_18
REMARK    8  A    between atoms: C_7  and  C_8
REMARK    9  A    between atoms: C_15  and  C_16
REMARK   10  A    between atoms: C_18  and  O_20
REMARK   11  A    between atoms: O_20  and  C_21
REMARK   12  A    between atoms: C_21  and  C_22
REMARK                            x       y       z     vdW  Elec       q    Type
REMARK                         _______ _______ _______ _____ _____    ______ ____
ROOT
ATOM      1  C   UNL     1       5.218   4.657  17.605  0.00  0.00    +0.000 C 
ENDROOT
BRANCH   1   2
ATOM      2  N   UNL     1       4.862   3.340  18.217  0.00  0.00    +0.000 N 
ATOM      3  C   UNL     1       3.769   2.612  17.829  0.00  0.00    +0.000 C 
ATOM      4  C   UNL     1       3.559   1.317  18.576  0.00  0.00    +0.000 C 
ATOM      5  O   UNL     1       2.996   2.979  16.957  0.00  0.00    +0.000 OA
ATOM      6  H   UNL     1       5.492   2.953  18.908  0.00  0.00    +0.000 HD
ENDBRANCH   1   2
BRANCH   1   7
ATOM      7  C   UNL     1       6.102   4.302  16.373  0.00  0.00    +0.000 C 
ATOM      8  O   UNL     1       7.307   4.086  16.400  0.00  0.00    +0.000 OA
BRANCH   7   9
ATOM      9  O   UNL     1       5.421   4.521  15.204  0.00  0.00    +0.000 OA
BRANCH   9  11
ATOM     10  C   UNL     1       6.136   3.633  13.045  0.00  0.00    +0.000 C 
ATOM     11  C   UNL     1       6.191   4.788  14.017  0.00  0.00    +0.000 C 
ENDBRANCH   9  11
ENDBRANCH   7   9
ENDBRANCH   1   7
BRANCH   1  12
ATOM     12  C   UNL     1       6.086   5.550  18.521  0.00  0.00    +0.000 C 
ATOM     13  O   UNL     1       6.315   5.280  19.698  0.00  0.00    +0.000 OA
BRANCH  12  14
ATOM     14  O   UNL     1       6.414   6.739  17.939  0.00  0.00    +0.000 OA
BRANCH  14  15
ATOM     15  C   UNL     1       7.795   7.109  18.061  0.00  0.00    +0.000 C 
ATOM     16  C   UNL     1       7.933   8.584  17.718  0.00  0.00    +0.000 C 
ENDBRANCH  14  15
ENDBRANCH  12  14
ENDBRANCH   1  12
BRANCH   1  17
ATOM     17  C   UNL     1       3.994   5.536  17.219  0.00  0.00    +0.000 C 
BRANCH  17  18
ATOM     18  C   UNL     1       3.178   6.168  18.322  0.00  0.00    +0.000 A 
ATOM     19  C   UNL     1       2.787   5.420  19.439  0.00  0.00    +0.000 A 
ATOM     20  C   UNL     1       2.030   6.003  20.455  0.00  0.00    +0.000 A 
ATOM     21  C   UNL     1       1.666   7.346  20.373  0.00  0.00    +0.000 A 
ATOM     22  C   UNL     1       2.078   8.111  19.284  0.00  0.00    +0.000 A 
ATOM     23  C   UNL     1       2.839   7.527  18.271  0.00  0.00    +0.000 A 
ENDBRANCH  17  18
ENDBRANCH   1  17
TORSDOF 9
ENDMDL
MODEL 4
REMARK VINA RESULT:      -6.3      1.703      5.807
REMARK  Name = 
REMARK  12 active torsions:
REMARK  status: ('A' for Active; 'I' for Inactive)
REMARK    1  A    between atoms: C_1  and  C_2
REMARK    2  A    between atoms: C_2  and  O_3
REMARK    3  A    between atoms: O_3  and  C_4
REMARK    4  A    between atoms: C_4  and  C_6
REMARK    5  A    between atoms: C_6  and  C_7
REMARK    6  A    between atoms: C_6  and  N_14
REMARK    7  A    between atoms: C_6  and  C_18
REMARK    8  A    between atoms: C_7  and  C_8
REMARK    9  A    between atoms: C_15  and  C_16
REMARK   10  A    between atoms: C_18  and  O_20
REMARK   11  A    between atoms: O_20  and  C_21
REMARK   12  A    between atoms: C_21  and  C_22
REMARK                            x       y       z     vdW  Elec       q    Type
REMARK                         _______ _______ _______ _____ _____    ______ ____
ROOT
ATOM      1  C   UNL     1       5.333   5.067  17.480  0.00  0.00    +0.000 C 
ENDROOT
BRANCH   1   2
ATOM      2  N   UNL     1       5.080   3.603  17.646  0.00  0.00    +0.000 N 
ATOM      3  C   UNL     1       3.830   3.050  17.560  0.00  0.00    +0.000 C 
ATOM      4  C   UNL     1       3.770   1.556  17.776  0.00  0.00    +0.000 C 
ATOM      5  O   UNL     1       2.822   3.705  17.346  0.00  0.00    +0.000 OA
ATOM      6  H   UNL     1       5.881   2.996  17.772  0.00  0.00    +0.000 HD
ENDBRANCH   1   2
BRANCH   1   7
ATOM      7  C   UNL     1       6.832   5.262  17.853  0.00  0.00    +0.000 C 
ATOM      8  O   UNL     1       7.654   4.364  17.988  0.00  0.00    +0.000 OA
BRANCH   7   9
ATOM      9  O   UNL     1       7.068   6.544  18.277  0.00  0.00    +0.000 OA
BRANCH   9  11
ATOM     10  C   UNL     1       8.129   8.727  18.019  0.00  0.00    +0.000 C 
ATOM     11  C   UNL     1       7.659   7.462  17.339  0.00  0.00    +0.000 C 
ENDBRANCH   9  11
ENDBRANCH   7   9
ENDBRANCH   1   7
BRANCH   1  12
ATOM     12  C   UNL     1       4.522   5.949  18.457  0.00  0.00    +0.000 C 
ATOM     13  O   UNL     1       4.400   5.687  19.652  0.00  0.00    +0.000 OA
BRANCH  12  14
ATOM     14  O   UNL     1       3.823   6.933  17.821  0.00  0.00    +0.000 OA
BRANCH  14  15
ATOM     15  C   UNL     1       2.621   7.345  18.489  0.00  0.00    +0.000 C 
ATOM     16  C   UNL     1       2.163   8.665  17.889  0.00  0.00    +0.000 C 
ENDBRANCH  14  15
ENDBRANCH  12  14
ENDBRANCH   1  12
BRANCH   1  17
ATOM     17  C   UNL     1       5.002   5.618  16.063  0.00  0.00    +0.000 C 
BRANCH  17  18
ATOM     18  C   UNL     1       5.686   4.998  14.866  0.00  0.00    +0.000 A 
ATOM     19  C   UNL     1       5.032   4.034  14.091  0.00  0.00    +0.000 A 
ATOM     20  C   UNL     1       5.666   3.459  12.989  0.00  0.00    +0.000 A 
ATOM     21  C   UNL     1       6.957   3.851  12.642  0.00  0.00    +0.000 A 
ATOM     22  C   UNL     1       7.606   4.835  13.385  0.00  0.00    +0.000 A 
ATOM     23  C   UNL     1       6.969   5.412  14.483  0.00  0.00    +0.000 A 
ENDBRANCH  17  18
ENDBRANCH   1  17
TORSDOF 9
ENDMDL
MODEL 5
REMARK VINA RESULT:      -6.3      1.589      4.331
REMARK  Name = 
REMARK  12 active torsions:
REMARK  status: ('A' for Active; 'I' for Inactive)
REMARK    1  A    between atoms: C_1  and  C_2
REMARK    2  A    between atoms: C_2  and  O_3
REMARK    3  A    between atoms: O_3  and  C_4
REMARK    4  A    between atoms: C_4  and  C_6
REMARK    5  A    between atoms: C_6  and  C_7
REMARK    6  A    between atoms: C_6  and  N_14
REMARK    7  A    between atoms: C_6  and  C_18
REMARK    8  A    between atoms: C_7  and  C_8
REMARK    9  A    between atoms: C_15  and  C_16
REMARK   10  A    between atoms: C_18  and  O_20
REMARK   11  A    between atoms: O_20  and  C_21
REMARK   12  A    between atoms: C_21  and  C_22
REMARK                            x       y       z     vdW  Elec       q    Type
REMARK                         _______ _______ _______ _____ _____    ______ ____
ROOT
ATOM      1  C   UNL     1       5.632   5.375  17.618  0.00  0.00    +0.000 C 
ENDROOT
BRANCH   1   2
ATOM      2  N   UNL     1       5.588   4.541  16.377  0.00  0.00    +0.000 N 
ATOM      3  C   UNL     1       5.534   5.082  15.120  0.00  0.00    +0.000 C 
ATOM      4  C   UNL     1       5.473   4.082  13.990  0.00  0.00    +0.000 C 
ATOM      5  O   UNL     1       5.514   6.285  14.909  0.00  0.00    +0.000 OA
ATOM      6  H   UNL     1       5.655   3.537  16.480  0.00  0.00    +0.000 HD
ENDBRANCH   1   2
BRANCH   1   7
ATOM      7  C   UNL     1       6.916   6.244  17.473  0.00  0.00    +0.000 C 
ATOM      8  O   UNL     1       8.053   5.814  17.319  0.00  0.00    +0.000 OA
BRANCH   7   9
ATOM      9  O   UNL     1       6.663   7.550  17.804  0.00  0.00    +0.000 OA
BRANCH   9  11
ATOM     10  C   UNL     1       8.492   8.990  18.539  0.00  0.00    +0.000 C 
ATOM     11  C   UNL     1       7.618   8.545  17.390  0.00  0.00    +0.000 C 
ENDBRANCH   9  11
ENDBRANCH   7   9
ENDBRANCH   1   7
BRANCH   1  12
ATOM     12  C   UNL     1       5.809   4.549  18.912  0.00  0.00    +0.000 C 
ATOM     13  O   UNL     1       6.325   5.004  19.931  0.00  0.00    +0.000 OA
BRANCH  12  14
ATOM     14  O   UNL     1       5.497   3.232  18.744  0.00  0.00    +0.000 OA
BRANCH  14  15
ATOM     15  C   UNL     1       4.662   2.674  19.768  0.00  0.00    +0.000 C 
ATOM     16  C   UNL     1       3.767   1.617  19.141  0.00  0.00    +0.000 C 
ENDBRANCH  14  15
ENDBRANCH  12  14
ENDBRANCH   1  12
BRANCH   1  17
ATOM     17  C   UNL     1       4.360   6.239  17.855  0.00  0.00    +0.000 C 
BRANCH  17  18
ATOM     18  C   UNL     1       3.168   5.604  18.534  0.00  0.00    +0.000 A 
ATOM     19  C   UNL     1       2.360   4.691  17.848  0.00  0.00    +0.000 A 
ATOM     20  C   UNL     1       1.258   4.108  18.473  0.00  0.00    +0.000 A 
ATOM     21  C   UNL     1       0.959   4.422  19.798  0.00  0.00    +0.000 A 
ATOM     22  C   UNL     1       1.776   5.303  20.503  0.00  0.00    +0.000 A 
ATOM     23  C   UNL     1       2.881   5.881  19.877  0.00  0.00    +0.000 A 
ENDBRANCH  17  18
ENDBRANCH   1  17
TORSDOF 9
ENDMDL
MODEL 6
REMARK VINA RESULT:      -6.3      2.560      5.911
REMARK  Name = 
REMARK  12 active torsions:
REMARK  status: ('A' for Active; 'I' for Inactive)
REMARK    1  A    between atoms: C_1  and  C_2
REMARK    2  A    between atoms: C_2  and  O_3
REMARK    3  A    between atoms: O_3  and  C_4
REMARK    4  A    between atoms: C_4  and  C_6
REMARK    5  A    between atoms: C_6  and  C_7
REMARK    6  A    between atoms: C_6  and  N_14
REMARK    7  A    between atoms: C_6  and  C_18
REMARK    8  A    between atoms: C_7  and  C_8
REMARK    9  A    between atoms: C_15  and  C_16
REMARK   10  A    between atoms: C_18  and  O_20
REMARK   11  A    between atoms: O_20  and  C_21
REMARK   12  A    between atoms: C_21  and  C_22
REMARK                            x       y       z     vdW  Elec       q    Type
REMARK                         _______ _______ _______ _____ _____    ______ ____
ROOT
ATOM      1  C   UNL     1       3.350   4.172  18.383  0.00  0.00    +0.000 C 
ENDROOT
BRANCH   1   2
ATOM      2  N   UNL     1       4.126   3.424  19.419  0.00  0.00    +0.000 N 
ATOM      3  C   UNL     1       4.166   2.056  19.474  0.00  0.00    +0.000 C 
ATOM      4  C   UNL     1       4.986   1.481  20.604  0.00  0.00    +0.000 C 
ATOM      5  O   UNL     1       3.570   1.337  18.687  0.00  0.00    +0.000 OA
ATOM      6  H   UNL     1       4.687   3.961  20.069  0.00  0.00    +0.000 HD
ENDBRANCH   1   2
BRANCH   1   7
ATOM      7  C   UNL     1       3.649   5.675  18.662  0.00  0.00    +0.000 C 
ATOM      8  O   UNL     1       4.392   6.101  19.536  0.00  0.00    +0.000 OA
BRANCH   7   9
ATOM      9  O   UNL     1       2.774   6.482  17.983  0.00  0.00    +0.000 OA
BRANCH   9  11
ATOM     10  C   UNL     1       2.204   8.841  17.722  0.00  0.00    +0.000 C 
ATOM     11  C   UNL     1       2.283   7.656  18.656  0.00  0.00    +0.000 C 
ENDBRANCH   9  11
ENDBRANCH   7   9
ENDBRANCH   1   7
BRANCH   1  12
ATOM     12  C   UNL     1       1.820   4.001  18.512  0.00  0.00    +0.000 C 
ATOM     13  O   UNL     1       1.078   3.848  17.543  0.00  0.00    +0.000 OA
BRANCH  12  14
ATOM     14  O   UNL     1       1.371   4.213  19.783  0.00  0.00    +0.000 OA
BRANCH  14  15
ATOM     15  C   UNL     1       0.708   3.091  20.384  0.00  0.00    +0.000 C 
ATOM     16  C   UNL     1       1.434   2.732  21.670  0.00  0.00    +0.000 C 
ENDBRANCH  14  15
ENDBRANCH  12  14
ENDBRANCH   1  12
BRANCH   1  17
ATOM     17  C   UNL     1       3.683   3.768  16.917  0.00  0.00    +0.000 C 
BRANCH  17  18
ATOM     18  C   UNL     1       5.016   4.180  16.336  0.00  0.00    +0.000 A 
ATOM     19  C   UNL     1       5.131   4.512  14.982  0.00  0.00    +0.000 A 
ATOM     20  C   UNL     1       6.363   4.888  14.446  0.00  0.00    +0.000 A 
ATOM     21  C   UNL     1       7.492   4.949  15.261  0.00  0.00    +0.000 A 
ATOM     22  C   UNL     1       7.383   4.654  16.618  0.00  0.00    +0.000 A 
ATOM     23  C   UNL     1       6.150   4.283  17.154  0.00  0.00    +0.000 A 
ENDBRANCH  17  18
ENDBRANCH   1  17
TORSDOF 9
ENDMDL
MODEL 7
REMARK VINA RESULT:      -6.2      2.241      5.758
REMARK  Name = 
REMARK  12 active torsions:
REMARK  status: ('A' for Active; 'I' for Inactive)
REMARK    1  A    between atoms: C_1  and  C_2
REMARK    2  A    between atoms: C_2  and  O_3
REMARK    3  A    between atoms: O_3  and  C_4
REMARK    4  A    between atoms: C_4  and  C_6
REMARK    5  A    between atoms: C_6  and  C_7
REMARK    6  A    between atoms: C_6  and  N_14
REMARK    7  A    between atoms: C_6  and  C_18
REMARK    8  A    between atoms: C_7  and  C_8
REMARK    9  A    between atoms: C_15  and  C_16
REMARK   10  A    between atoms: C_18  and  O_20
REMARK   11  A    between atoms: O_20  and  C_21
REMARK   12  A    between atoms: C_21  and  C_22
REMARK                            x       y       z     vdW  Elec       q    Type
REMARK                         _______ _______ _______ _____ _____    ______ ____
ROOT
ATOM      1  C   UNL     1       3.482   4.805  18.816  0.00  0.00    +0.000 C 
ENDROOT
BRANCH   1   2
ATOM      2  N   UNL     1       2.695   3.544  18.977  0.00  0.00    +0.000 N 
ATOM      3  C   UNL     1       1.525   3.308  18.306  0.00  0.00    +0.000 C 
ATOM      4  C   UNL     1       0.861   1.987  18.613  0.00  0.00    +0.000 C 
ATOM      5  O   UNL     1       1.027   4.106  17.526  0.00  0.00    +0.000 OA
ATOM      6  H   UNL     1       3.080   2.818  19.568  0.00  0.00    +0.000 HD
ENDBRANCH   1   2
BRANCH   1   7
ATOM      7  C   UNL     1       4.917   4.449  19.305  0.00  0.00    +0.000 C 
ATOM      8  O   UNL     1       5.287   3.344  19.681  0.00  0.00    +0.000 OA
BRANCH   7   9
ATOM      9  O   UNL     1       5.656   5.583  19.520  0.00  0.00    +0.000 OA
BRANCH   9  11
ATOM     10  C   UNL     1       7.710   6.461  18.534  0.00  0.00    +0.000 C 
ATOM     11  C   UNL     1       7.091   5.466  19.488  0.00  0.00    +0.000 C 
ENDBRANCH   9  11
ENDBRANCH   7   9
ENDBRANCH   1   7
BRANCH   1  12
ATOM     12  C   UNL     1       2.989   5.961  19.716  0.00  0.00    +0.000 C 
ATOM     13  O   UNL     1       2.446   5.778  20.804  0.00  0.00    +0.000 OA
BRANCH  12  14
ATOM     14  O   UNL     1       3.061   7.176  19.099  0.00  0.00    +0.000 OA
BRANCH  14  15
ATOM     15  C   UNL     1       1.934   8.034  19.327  0.00  0.00    +0.000 C 
ATOM     16  C   UNL     1       1.745   8.919  18.105  0.00  0.00    +0.000 C 
ENDBRANCH  14  15
ENDBRANCH  12  14
ENDBRANCH   1  12
BRANCH   1  17
ATOM     17  C   UNL     1       3.479   5.382  17.371  0.00  0.00    +0.000 C 
BRANCH  17  18
ATOM     18  C   UNL     1       4.647   5.073  16.464  0.00  0.00    +0.000 A 
ATOM     19  C   UNL     1       4.990   3.749  16.169  0.00  0.00    +0.000 A 
ATOM     20  C   UNL     1       6.070   3.464  15.335  0.00  0.00    +0.000 A 
ATOM     21  C   UNL     1       6.814   4.501  14.775  0.00  0.00    +0.000 A 
ATOM     22  C   UNL     1       6.462   5.824  15.032  0.00  0.00    +0.000 A 
ATOM     23  C   UNL     1       5.377   6.107  15.863  0.00  0.00    +0.000 A 
ENDBRANCH  17  18
ENDBRANCH   1  17
TORSDOF 9
ENDMDL
MODEL 8
REMARK VINA RESULT:      -6.2      1.718      5.784
REMARK  Name = 
REMARK  12 active torsions:
REMARK  status: ('A' for Active; 'I' for Inactive)
REMARK    1  A    between atoms: C_1  and  C_2
REMARK    2  A    between atoms: C_2  and  O_3
REMARK    3  A    between atoms: O_3  and  C_4
REMARK    4  A    between atoms: C_4  and  C_6
REMARK    5  A    between atoms: C_6  and  C_7
REMARK    6  A    between atoms: C_6  and  N_14
REMARK    7  A    between atoms: C_6  and  C_18
REMARK    8  A    between atoms: C_7  and  C_8
REMARK    9  A    between atoms: C_15  and  C_16
REMARK   10  A    between atoms: C_18  and  O_20
REMARK   11  A    between atoms: O_20  and  C_21
REMARK   12  A    between atoms: C_21  and  C_22
REMARK                            x       y       z     vdW  Elec       q    Type
REMARK                         _______ _______ _______ _____ _____    ______ ____
ROOT
ATOM      1  C   UNL     1       5.224   5.145  17.473  0.00  0.00    +0.000 C 
ENDROOT
BRANCH   1   2
ATOM      2  N   UNL     1       5.020   3.676  17.662  0.00  0.00    +0.000 N 
ATOM      3  C   UNL     1       3.784   3.088  17.636  0.00  0.00    +0.000 C 
ATOM      4  C   UNL     1       3.775   1.596  17.868  0.00  0.00    +0.000 C 
ATOM      5  O   UNL     1       2.749   3.713  17.459  0.00  0.00    +0.000 OA
ATOM      6  H   UNL     1       5.842   3.093  17.759  0.00  0.00    +0.000 HD
ENDBRANCH   1   2
BRANCH   1   7
ATOM      7  C   UNL     1       6.710   5.399  17.863  0.00  0.00    +0.000 C 
ATOM      8  O   UNL     1       7.417   4.635  18.508  0.00  0.00    +0.000 OA
BRANCH   7   9
ATOM      9  O   UNL     1       7.062   6.703  17.628  0.00  0.00    +0.000 OA
BRANCH   9  11
ATOM     10  C   UNL     1       8.337   8.730  18.103  0.00  0.00    +0.000 C 
ATOM     11  C   UNL     1       8.085   7.283  18.458  0.00  0.00    +0.000 C 
ENDBRANCH   9  11
ENDBRANCH   7   9
ENDBRANCH   1   7
BRANCH   1  12
ATOM     12  C   UNL     1       4.369   6.016  18.420  0.00  0.00    +0.000 C 
ATOM     13  O   UNL     1       4.251   5.782  19.622  0.00  0.00    +0.000 OA
BRANCH  12  14
ATOM     14  O   UNL     1       3.631   6.951  17.755  0.00  0.00    +0.000 OA
BRANCH  14  15
ATOM     15  C   UNL     1       2.506   7.461  18.484  0.00  0.00    +0.000 C 
ATOM     16  C   UNL     1       2.052   8.756  17.831  0.00  0.00    +0.000 C 
ENDBRANCH  14  15
ENDBRANCH  12  14
ENDBRANCH   1  12
BRANCH   1  17
ATOM     17  C   UNL     1       4.896   5.658  16.040  0.00  0.00    +0.000 C 
BRANCH  17  18
ATOM     18  C   UNL     1       5.622   5.042  14.866  0.00  0.00    +0.000 A 
ATOM     19  C   UNL     1       6.937   5.415  14.566  0.00  0.00    +0.000 A 
ATOM     20  C   UNL     1       7.605   4.850  13.479  0.00  0.00    +0.000 A 
ATOM     21  C   UNL     1       6.969   3.895  12.687  0.00  0.00    +0.000 A 
ATOM     22  C   UNL     1       5.673   3.490  12.996  0.00  0.00    +0.000 A 
ATOM     23  C   UNL     1       5.008   4.053  14.086  0.00  0.00    +0.000 A 
ENDBRANCH  17  18
ENDBRANCH   1  17
TORSDOF 9
ENDMDL
MODEL 9
REMARK VINA RESULT:      -6.1      1.884      4.343
REMARK  Name = 
REMARK  12 active torsions:
REMARK  status: ('A' for Active; 'I' for Inactive)
REMARK    1  A    between atoms: C_1  and  C_2
REMARK    2  A    between atoms: C_2  and  O_3
REMARK    3  A    between atoms: O_3  and  C_4
REMARK    4  A    between atoms: C_4  and  C_6
REMARK    5  A    between atoms: C_6  and  C_7
REMARK    6  A    between atoms: C_6  and  N_14
REMARK    7  A    between atoms: C_6  and  C_18
REMARK    8  A    between atoms: C_7  and  C_8
REMARK    9  A    between atoms: C_15  and  C_16
REMARK   10  A    between atoms: C_18  and  O_20
REMARK   11  A    between atoms: O_20  and  C_21
REMARK   12  A    between atoms: C_21  and  C_22
REMARK                            x       y       z     vdW  Elec       q    Type
REMARK                         _______ _______ _______ _____ _____    ______ ____
ROOT
ATOM      1  C   UNL     1       3.950   4.715  18.210  0.00  0.00    +0.000 C 
ENDROOT
BRANCH   1   2
ATOM      2  N   UNL     1       2.836   4.188  19.056  0.00  0.00    +0.000 N 
ATOM      3  C   UNL     1       1.600   3.882  18.552  0.00  0.00    +0.000 C 
ATOM      4  C   UNL     1       0.597   3.382  19.565  0.00  0.00    +0.000 C 
ATOM      5  O   UNL     1       1.305   4.018  17.375  0.00  0.00    +0.000 OA
ATOM      6  H   UNL     1       3.032   4.001  20.032  0.00  0.00    +0.000 HD
ENDBRANCH   1   2
BRANCH   1   7
ATOM      7  C   UNL     1       4.169   3.632  17.113  0.00  0.00    +0.000 C 
ATOM      8  O   UNL     1       4.136   2.421  17.292  0.00  0.00    +0.000 OA
BRANCH   7   9
ATOM      9  O   UNL     1       4.670   4.191  15.966  0.00  0.00    +0.000 OA
BRANCH   9  11
ATOM     10  C   UNL     1       6.517   4.693  14.451  0.00  0.00    +0.000 C 
ATOM     11  C   UNL     1       5.990   3.797  15.547  0.00  0.00    +0.000 C 
ENDBRANCH   9  11
ENDBRANCH   7   9
ENDBRANCH   1   7
BRANCH   1  12
ATOM     12  C   UNL     1       5.291   4.849  18.965  0.00  0.00    +0.000 C 
ATOM     13  O   UNL     1       5.690   4.015  19.776  0.00  0.00    +0.000 OA
BRANCH  12  14
ATOM     14  O   UNL     1       5.888   6.060  18.769  0.00  0.00    +0.000 OA
BRANCH  14  15
ATOM     15  C   UNL     1       7.254   5.996  18.333  0.00  0.00    +0.000 C 
ATOM     16  C   UNL     1       7.517   7.161  17.393  0.00  0.00    +0.000 C 
ENDBRANCH  14  15
ENDBRANCH  12  14
ENDBRANCH   1  12
BRANCH   1  17
ATOM     17  C   UNL     1       3.681   6.122  17.602  0.00  0.00    +0.000 C 
BRANCH  17  18
ATOM     18  C   UNL     1       2.822   7.095  18.377  0.00  0.00    +0.000 A 
ATOM     19  C   UNL     1       2.551   6.883  19.733  0.00  0.00    +0.000 A 
ATOM     20  C   UNL     1       1.755   7.779  20.447  0.00  0.00    +0.000 A 
ATOM     21  C   UNL     1       1.230   8.905  19.815  0.00  0.00    +0.000 A 
ATOM     22  C   UNL     1       1.521   9.146  18.474  0.00  0.00    +0.000 A 
ATOM     23  C   UNL     1       2.322   8.251  17.763  0.00  0.00    +0.000 A 
ENDBRANCH  17  18
ENDBRANCH   1  17
TORSDOF 9
ENDMDL
