MODEL 1
REMARK VINA RESULT:      -8.4      0.000      0.000
REMARK  Name = 
REMARK  11 active torsions:
REMARK  status: ('A' for Active; 'I' for Inactive)
REMARK    1  A    between atoms: C_1  and  O_2
REMARK    2  A    between atoms: O_2  and  C_3
REMARK    3  A    between atoms: C_8  and  C_9
REMARK    4  A    between atoms: C_11  and  C_12
REMARK    5  A    between atoms: C_19  and  C_20
REMARK    6  A    between atoms: C_20  and  O_22
REMARK    7  A    between atoms: O_22  and  C_23
REMARK    8  A    between atoms: C_23  and  C_24
REMARK    9  A    between atoms: C_24  and  C_25
REMARK   10  A    between atoms: C_26  and  C_27
REMARK   11  A    between atoms: C_30  and  C_31
REMARK                            x       y       z     vdW  Elec       q    Type
REMARK                         _______ _______ _______ _____ _____    ______ ____
ROOT
ATOM      1  C   UNL     1       4.705   4.784  17.271  0.00  0.00    +0.000 A 
ATOM      2  C   UNL     1       4.536   3.500  18.020  0.00  0.00    +0.000 A 
ATOM      3  C   UNL     1       3.697   3.510  19.077  0.00  0.00    +0.000 A 
ATOM      4  N   UNL     1       3.033   4.681  19.416  0.00  0.00    +0.000 N 
ATOM      5  N   UNL     1       2.177   4.907  20.445  0.00  0.00    +0.000 NA
ATOM      6  C   UNL     1       1.799   6.172  20.310  0.00  0.00    +0.000 A 
ATOM      7  C   UNL     1       2.385   6.807  19.203  0.00  0.00    +0.000 A 
ATOM      8  C   UNL     1       3.208   5.844  18.648  0.00  0.00    +0.000 A 
ATOM      9  N   UNL     1       4.067   5.882  17.585  0.00  0.00    +0.000 NA
ENDROOT
BRANCH   1  15
ATOM     10  C   UNL     1       6.922   5.203  16.005  0.00  0.00    +0.000 A 
ATOM     11  C   UNL     1       7.643   5.058  14.807  0.00  0.00    +0.000 A 
ATOM     12  C   UNL     1       7.029   4.576  13.650  0.00  0.00    +0.000 A 
ATOM     13  C   UNL     1       5.686   4.227  13.674  0.00  0.00    +0.000 A 
ATOM     14  C   UNL     1       4.969   4.322  14.867  0.00  0.00    +0.000 A 
ATOM     15  C   UNL     1       5.578   4.784  16.049  0.00  0.00    +0.000 A 
BRANCH  10  17
ATOM     16  C   UNL     1       7.423   7.153  17.257  0.00  0.00    +0.000 C 
ATOM     17  O   UNL     1       7.492   5.732  17.135  0.00  0.00    +0.000 OA
ENDBRANCH  10  17
ENDBRANCH   1  15
BRANCH   3  18
ATOM     18  C   UNL     1       3.440   2.285  19.872  0.00  0.00    +0.000 C 
ATOM     19  F   UNL     1       3.753   2.335  21.188  0.00  0.00    +0.000 F 
ATOM     20  F   UNL     1       2.119   1.951  19.817  0.00  0.00    +0.000 F 
ATOM     21  F   UNL     1       4.112   1.221  19.355  0.00  0.00    +0.000 F 
ENDBRANCH   3  18
BRANCH   7  22
ATOM     22  C   UNL     1       2.197   8.178  18.807  0.00  0.00    +0.000 C 
ATOM     23  O   UNL     1       2.647   8.617  17.756  0.00  0.00    +0.000 OA
BRANCH  22  24
ATOM     24  O   UNL     1       1.508   8.923  19.711  0.00  0.00    +0.000 OA
BRANCH  24  25
ATOM     25  C   UNL     1       0.734  10.024  19.208  0.00  0.00    +0.000 C 
BRANCH  25  26
ATOM     26  C   UNL     1      -0.660  10.215  19.810  0.00  0.00    +0.000 C 
BRANCH  26  27
ATOM     27  C   UNL     1      -0.648  11.133  20.981  0.00  0.00    +0.000 A 
ATOM     28  C   UNL     1      -0.772  12.551  20.991  0.00  0.00    +0.000 A 
ATOM     29  C   UNL     1      -0.954  13.484  19.853  0.00  0.00    +0.000 C 
ATOM     30  N   UNL     1      -0.703  13.036  22.236  0.00  0.00    +0.000 NA
ATOM     31  O   UNL     1      -0.527  11.942  23.059  0.00  0.00    +0.000 OA
ATOM     32  C   UNL     1      -0.496  10.809  22.311  0.00  0.00    +0.000 A 
ATOM     33  C   UNL     1      -0.312   9.541  23.039  0.00  0.00    +0.000 C 
ENDBRANCH  26  27
ENDBRANCH  25  26
ENDBRANCH  24  25
ENDBRANCH  22  24
ENDBRANCH   7  22
TORSDOF 8
ENDMDL
MODEL 2
REMARK VINA RESULT:      -8.3      2.082      2.555
REMARK  Name = 
REMARK  11 active torsions:
REMARK  status: ('A' for Active; 'I' for Inactive)
REMARK    1  A    between atoms: C_1  and  O_2
REMARK    2  A    between atoms: O_2  and  C_3
REMARK    3  A    between atoms: C_8  and  C_9
REMARK    4  A    between atoms: C_11  and  C_12
REMARK    5  A    between atoms: C_19  and  C_20
REMARK    6  A    between atoms: C_20  and  O_22
REMARK    7  A    between atoms: O_22  and  C_23
REMARK    8  A    between atoms: C_23  and  C_24
REMARK    9  A    between atoms: C_24  and  C_25
REMARK   10  A    between atoms: C_26  and  C_27
REMARK   11  A    between atoms: C_30  and  C_31
REMARK                            x       y       z     vdW  Elec       q    Type
REMARK                         _______ _______ _______ _____ _____    ______ ____
ROOT
ATOM      1  C   UNL     1       4.302   5.339  17.980  0.00  0.00    +0.000 A 
ATOM      2  C   UNL     1       4.038   4.195  18.906  0.00  0.00    +0.000 A 
ATOM      3  C   UNL     1       3.123   4.389  19.878  0.00  0.00    +0.000 A 
ATOM      4  N   UNL     1       2.472   5.612  19.975  0.00  0.00    +0.000 N 
ATOM      5  N   UNL     1       1.549   6.014  20.885  0.00  0.00    +0.000 NA
ATOM      6  C   UNL     1       1.221   7.249  20.522  0.00  0.00    +0.000 A 
ATOM      7  C   UNL     1       1.907   7.688  19.378  0.00  0.00    +0.000 A 
ATOM      8  C   UNL     1       2.740   6.634  19.049  0.00  0.00    +0.000 A 
ATOM      9  N   UNL     1       3.677   6.485  18.064  0.00  0.00    +0.000 NA
ENDROOT
BRANCH   1  15
ATOM     10  C   UNL     1       6.611   5.538  16.829  0.00  0.00    +0.000 A 
ATOM     11  C   UNL     1       7.418   5.187  15.733  0.00  0.00    +0.000 A 
ATOM     12  C   UNL     1       6.887   4.506  14.636  0.00  0.00    +0.000 A 
ATOM     13  C   UNL     1       5.543   4.161  14.620  0.00  0.00    +0.000 A 
ATOM     14  C   UNL     1       4.740   4.462  15.720  0.00  0.00    +0.000 A 
ATOM     15  C   UNL     1       5.264   5.127  16.845  0.00  0.00    +0.000 A 
BRANCH  10  17
ATOM     16  C   UNL     1       7.594   7.563  17.574  0.00  0.00    +0.000 C 
ATOM     17  O   UNL     1       7.100   6.260  17.888  0.00  0.00    +0.000 OA
ENDBRANCH  10  17
ENDBRANCH   1  15
BRANCH   3  18
ATOM     18  C   UNL     1       2.769   3.312  20.835  0.00  0.00    +0.000 C 
ATOM     19  F   UNL     1       2.534   3.685  22.114  0.00  0.00    +0.000 F 
ATOM     20  F   UNL     1       1.644   2.662  20.424  0.00  0.00    +0.000 F 
ATOM     21  F   UNL     1       3.746   2.366  20.882  0.00  0.00    +0.000 F 
ENDBRANCH   3  18
BRANCH   7  22
ATOM     22  C   UNL     1       1.793   8.981  18.757  0.00  0.00    +0.000 C 
ATOM     23  O   UNL     1       2.203   9.194  17.623  0.00  0.00    +0.000 OA
BRANCH  22  24
ATOM     24  O   UNL     1       1.218   9.924  19.550  0.00  0.00    +0.000 OA
BRANCH  24  25
ATOM     25  C   UNL     1      -0.193  10.147  19.396  0.00  0.00    +0.000 C 
BRANCH  25  26
ATOM     26  C   UNL     1      -0.614  11.197  18.365  0.00  0.00    +0.000 C 
BRANCH  26  27
ATOM     27  C   UNL     1      -2.093  11.308  18.247  0.00  0.00    +0.000 A 
ATOM     28  C   UNL     1      -2.998  11.980  19.116  0.00  0.00    +0.000 A 
ATOM     29  C   UNL     1      -2.716  12.746  20.354  0.00  0.00    +0.000 C 
ATOM     30  N   UNL     1      -4.262  11.854  18.693  0.00  0.00    +0.000 NA
ATOM     31  O   UNL     1      -4.201  11.094  17.542  0.00  0.00    +0.000 OA
ATOM     32  C   UNL     1      -2.910  10.771  17.276  0.00  0.00    +0.000 A 
ATOM     33  C   UNL     1      -2.666   9.955  16.073  0.00  0.00    +0.000 C 
ENDBRANCH  26  27
ENDBRANCH  25  26
ENDBRANCH  24  25
ENDBRANCH  22  24
ENDBRANCH   7  22
TORSDOF 8
ENDMDL
MODEL 3
REMARK VINA RESULT:      -8.2      2.410      2.851
REMARK  Name = 
REMARK  11 active torsions:
REMARK  status: ('A' for Active; 'I' for Inactive)
REMARK    1  A    between atoms: C_1  and  O_2
REMARK    2  A    between atoms: O_2  and  C_3
REMARK    3  A    between atoms: C_8  and  C_9
REMARK    4  A    between atoms: C_11  and  C_12
REMARK    5  A    between atoms: C_19  and  C_20
REMARK    6  A    between atoms: C_20  and  O_22
REMARK    7  A    between atoms: O_22  and  C_23
REMARK    8  A    between atoms: C_23  and  C_24
REMARK    9  A    between atoms: C_24  and  C_25
REMARK   10  A    between atoms: C_26  and  C_27
REMARK   11  A    between atoms: C_30  and  C_31
REMARK                            x       y       z     vdW  Elec       q    Type
REMARK                         _______ _______ _______ _____ _____    ______ ____
ROOT
ATOM      1  C   UNL     1       4.217   5.436  18.192  0.00  0.00    +0.000 A 
ATOM      2  C   UNL     1       3.840   4.393  19.196  0.00  0.00    +0.000 A 
ATOM      3  C   UNL     1       2.884   4.718  20.091  0.00  0.00    +0.000 A 
ATOM      4  N   UNL     1       2.295   5.975  20.042  0.00  0.00    +0.000 N 
ATOM      5  N   UNL     1       1.346   6.502  20.855  0.00  0.00    +0.000 NA
ATOM      6  C   UNL     1       1.107   7.714  20.368  0.00  0.00    +0.000 A 
ATOM      7  C   UNL     1       1.879   8.014  19.234  0.00  0.00    +0.000 A 
ATOM      8  C   UNL     1       2.670   6.895  19.049  0.00  0.00    +0.000 A 
ATOM      9  N   UNL     1       3.651   6.613  18.139  0.00  0.00    +0.000 NA
ENDROOT
BRANCH   1  15
ATOM     10  C   UNL     1       6.568   4.715  17.385  0.00  0.00    +0.000 A 
ATOM     11  C   UNL     1       7.374   4.312  16.306  0.00  0.00    +0.000 A 
ATOM     12  C   UNL     1       6.890   4.337  14.996  0.00  0.00    +0.000 A 
ATOM     13  C   UNL     1       5.591   4.759  14.747  0.00  0.00    +0.000 A 
ATOM     14  C   UNL     1       4.765   5.117  15.812  0.00  0.00    +0.000 A 
ATOM     15  C   UNL     1       5.229   5.076  17.141  0.00  0.00    +0.000 A 
BRANCH  10  17
ATOM     16  C   UNL     1       7.807   5.913  19.012  0.00  0.00    +0.000 C 
ATOM     17  O   UNL     1       7.044   4.755  18.670  0.00  0.00    +0.000 OA
ENDBRANCH  10  17
ENDBRANCH   1  15
BRANCH   3  18
ATOM     18  C   UNL     1       2.419   3.750  21.113  0.00  0.00    +0.000 C 
ATOM     19  F   UNL     1       2.432   4.168  22.400  0.00  0.00    +0.000 F 
ATOM     20  F   UNL     1       1.135   3.369  20.859  0.00  0.00    +0.000 F 
ATOM     21  F   UNL     1       3.158   2.608  21.071  0.00  0.00    +0.000 F 
ENDBRANCH   3  18
BRANCH   7  22
ATOM     22  C   UNL     1       1.869   9.251  18.497  0.00  0.00    +0.000 C 
ATOM     23  O   UNL     1       2.269   9.320  17.342  0.00  0.00    +0.000 OA
BRANCH  22  24
ATOM     24  O   UNL     1       1.405  10.312  19.208  0.00  0.00    +0.000 OA
BRANCH  24  25
ATOM     25  C   UNL     1       0.174  10.912  18.774  0.00  0.00    +0.000 C 
BRANCH  25  26
ATOM     26  C   UNL     1      -0.916   9.961  18.274  0.00  0.00    +0.000 C 
BRANCH  26  27
ATOM     27  C   UNL     1      -2.161  10.681  17.894  0.00  0.00    +0.000 A 
ATOM     28  C   UNL     1      -2.897  10.589  16.680  0.00  0.00    +0.000 A 
ATOM     29  C   UNL     1      -2.631   9.755  15.483  0.00  0.00    +0.000 C 
ATOM     30  N   UNL     1      -3.963  11.399  16.694  0.00  0.00    +0.000 NA
ATOM     31  O   UNL     1      -3.936  12.037  17.918  0.00  0.00    +0.000 OA
ATOM     32  C   UNL     1      -2.864  11.608  18.632  0.00  0.00    +0.000 A 
ATOM     33  C   UNL     1      -2.685  12.195  19.973  0.00  0.00    +0.000 C 
ENDBRANCH  26  27
ENDBRANCH  25  26
ENDBRANCH  24  25
ENDBRANCH  22  24
ENDBRANCH   7  22
TORSDOF 8
ENDMDL
MODEL 4
REMARK VINA RESULT:      -8.2      1.997      2.499
REMARK  Name = 
REMARK  11 active torsions:
REMARK  status: ('A' for Active; 'I' for Inactive)
REMARK    1  A    between atoms: C_1  and  O_2
REMARK    2  A    between atoms: O_2  and  C_3
REMARK    3  A    between atoms: C_8  and  C_9
REMARK    4  A    between atoms: C_11  and  C_12
REMARK    5  A    between atoms: C_19  and  C_20
REMARK    6  A    between atoms: C_20  and  O_22
REMARK    7  A    between atoms: O_22  and  C_23
REMARK    8  A    between atoms: C_23  and  C_24
REMARK    9  A    between atoms: C_24  and  C_25
REMARK   10  A    between atoms: C_26  and  C_27
REMARK   11  A    between atoms: C_30  and  C_31
REMARK                            x       y       z     vdW  Elec       q    Type
REMARK                         _______ _______ _______ _____ _____    ______ ____
ROOT
ATOM      1  C   UNL     1       4.361   5.233  17.892  0.00  0.00    +0.000 A 
ATOM      2  C   UNL     1       4.117   4.065  18.795  0.00  0.00    +0.000 A 
ATOM      3  C   UNL     1       3.217   4.232  19.786  0.00  0.00    +0.000 A 
ATOM      4  N   UNL     1       2.562   5.449  19.923  0.00  0.00    +0.000 N 
ATOM      5  N   UNL     1       1.652   5.826  20.856  0.00  0.00    +0.000 NA
ATOM      6  C   UNL     1       1.313   7.067  20.528  0.00  0.00    +0.000 A 
ATOM      7  C   UNL     1       1.979   7.536  19.384  0.00  0.00    +0.000 A 
ATOM      8  C   UNL     1       2.810   6.494  19.017  0.00  0.00    +0.000 A 
ATOM      9  N   UNL     1       3.732   6.372  18.013  0.00  0.00    +0.000 NA
ENDROOT
BRANCH   1  15
ATOM     10  C   UNL     1       6.659   5.440  16.721  0.00  0.00    +0.000 A 
ATOM     11  C   UNL     1       7.447   5.121  15.601  0.00  0.00    +0.000 A 
ATOM     12  C   UNL     1       6.890   4.496  14.483  0.00  0.00    +0.000 A 
ATOM     13  C   UNL     1       5.540   4.176  14.470  0.00  0.00    +0.000 A 
ATOM     14  C   UNL     1       4.756   4.444  15.592  0.00  0.00    +0.000 A 
ATOM     15  C   UNL     1       5.305   5.052  16.737  0.00  0.00    +0.000 A 
BRANCH  10  17
ATOM     16  C   UNL     1       7.563   7.461  17.568  0.00  0.00    +0.000 C 
ATOM     17  O   UNL     1       7.174   6.107  17.803  0.00  0.00    +0.000 OA
ENDBRANCH  10  17
ENDBRANCH   1  15
BRANCH   3  18
ATOM     18  C   UNL     1       2.884   3.131  20.723  0.00  0.00    +0.000 C 
ATOM     19  F   UNL     1       1.824   2.355  20.399  0.00  0.00    +0.000 F 
ATOM     20  F   UNL     1       3.942   2.281  20.851  0.00  0.00    +0.000 F 
ATOM     21  F   UNL     1       2.644   3.613  21.972  0.00  0.00    +0.000 F 
ENDBRANCH   3  18
BRANCH   7  22
ATOM     22  C   UNL     1       1.848   8.843  18.795  0.00  0.00    +0.000 C 
ATOM     23  O   UNL     1       2.207   9.076  17.648  0.00  0.00    +0.000 OA
BRANCH  22  24
ATOM     24  O   UNL     1       1.321   9.774  19.633  0.00  0.00    +0.000 OA
BRANCH  24  25
ATOM     25  C   UNL     1      -0.081  10.061  19.505  0.00  0.00    +0.000 C 
BRANCH  25  26
ATOM     26  C   UNL     1      -0.485  11.026  18.388  0.00  0.00    +0.000 C 
BRANCH  26  27
ATOM     27  C   UNL     1      -1.956  11.246  18.339  0.00  0.00    +0.000 A 
ATOM     28  C   UNL     1      -2.884  10.782  17.365  0.00  0.00    +0.000 A 
ATOM     29  C   UNL     1      -2.642   9.958  16.155  0.00  0.00    +0.000 C 
ATOM     30  N   UNL     1      -4.128  11.189  17.646  0.00  0.00    +0.000 NA
ATOM     31  O   UNL     1      -4.030  11.930  18.807  0.00  0.00    +0.000 OA
ATOM     32  C   UNL     1      -2.737  11.962  19.219  0.00  0.00    +0.000 A 
ATOM     33  C   UNL     1      -2.455  12.718  20.453  0.00  0.00    +0.000 C 
ENDBRANCH  26  27
ENDBRANCH  25  26
ENDBRANCH  24  25
ENDBRANCH  22  24
ENDBRANCH   7  22
TORSDOF 8
ENDMDL
MODEL 5
REMARK VINA RESULT:      -8.1      0.997      1.255
REMARK  Name = 
REMARK  11 active torsions:
REMARK  status: ('A' for Active; 'I' for Inactive)
REMARK    1  A    between atoms: C_1  and  O_2
REMARK    2  A    between atoms: O_2  and  C_3
REMARK    3  A    between atoms: C_8  and  C_9
REMARK    4  A    between atoms: C_11  and  C_12
REMARK    5  A    between atoms: C_19  and  C_20
REMARK    6  A    between atoms: C_20  and  O_22
REMARK    7  A    between atoms: O_22  and  C_23
REMARK    8  A    between atoms: C_23  and  C_24
REMARK    9  A    between atoms: C_24  and  C_25
REMARK   10  A    between atoms: C_26  and  C_27
REMARK   11  A    between atoms: C_30  and  C_31
REMARK                            x       y       z     vdW  Elec       q    Type
REMARK                         _______ _______ _______ _____ _____    ______ ____
ROOT
ATOM      1  C   UNL     1       4.278   5.398  17.948  0.00  0.00    +0.000 A 
ATOM      2  C   UNL     1       3.958   4.278  18.887  0.00  0.00    +0.000 A 
ATOM      3  C   UNL     1       3.039   4.523  19.845  0.00  0.00    +0.000 A 
ATOM      4  N   UNL     1       2.435   5.771  19.916  0.00  0.00    +0.000 N 
ATOM      5  N   UNL     1       1.518   6.223  20.808  0.00  0.00    +0.000 NA
ATOM      6  C   UNL     1       1.244   7.464  20.424  0.00  0.00    +0.000 A 
ATOM      7  C   UNL     1       1.960   7.858  19.283  0.00  0.00    +0.000 A 
ATOM      8  C   UNL     1       2.755   6.768  18.979  0.00  0.00    +0.000 A 
ATOM      9  N   UNL     1       3.697   6.568  18.008  0.00  0.00    +0.000 NA
ENDROOT
BRANCH   1  15
ATOM     10  C   UNL     1       6.606   5.494  16.822  0.00  0.00    +0.000 A 
ATOM     11  C   UNL     1       7.412   5.095  15.742  0.00  0.00    +0.000 A 
ATOM     12  C   UNL     1       6.870   4.414  14.651  0.00  0.00    +0.000 A 
ATOM     13  C   UNL     1       5.515   4.116  14.625  0.00  0.00    +0.000 A 
ATOM     14  C   UNL     1       4.711   4.465  15.710  0.00  0.00    +0.000 A 
ATOM     15  C   UNL     1       5.244   5.132  16.830  0.00  0.00    +0.000 A 
BRANCH  10  17
ATOM     16  C   UNL     1       7.579   7.527  17.557  0.00  0.00    +0.000 C 
ATOM     17  O   UNL     1       7.108   6.217  17.874  0.00  0.00    +0.000 OA
ENDBRANCH  10  17
ENDBRANCH   1  15
BRANCH   3  18
ATOM     18  C   UNL     1       2.632   3.474  20.812  0.00  0.00    +0.000 C 
ATOM     19  F   UNL     1       3.445   2.399  20.924  0.00  0.00    +0.000 F 
ATOM     20  F   UNL     1       2.534   3.998  22.067  0.00  0.00    +0.000 F 
ATOM     21  F   UNL     1       1.394   2.994  20.515  0.00  0.00    +0.000 F 
ENDBRANCH   3  18
BRANCH   7  22
ATOM     22  C   UNL     1       1.904   9.146  18.641  0.00  0.00    +0.000 C 
ATOM     23  O   UNL     1       2.528   9.387  17.616  0.00  0.00    +0.000 OA
BRANCH  22  24
ATOM     24  O   UNL     1       1.125  10.051  19.290  0.00  0.00    +0.000 OA
BRANCH  24  25
ATOM     25  C   UNL     1      -0.120  10.415  18.674  0.00  0.00    +0.000 C 
BRANCH  25  26
ATOM     26  C   UNL     1      -1.276  10.766  19.614  0.00  0.00    +0.000 C 
BRANCH  26  27
ATOM     27  C   UNL     1      -0.819  11.525  20.809  0.00  0.00    +0.000 A 
ATOM     28  C   UNL     1      -0.523  12.914  20.911  0.00  0.00    +0.000 A 
ATOM     29  C   UNL     1      -0.597  13.967  19.869  0.00  0.00    +0.000 C 
ATOM     30  N   UNL     1      -0.127  13.237  22.148  0.00  0.00    +0.000 NA
ATOM     31  O   UNL     1      -0.154  12.062  22.872  0.00  0.00    +0.000 OA
ATOM     32  C   UNL     1      -0.567  11.044  22.075  0.00  0.00    +0.000 A 
ATOM     33  C   UNL     1      -0.651   9.710  22.696  0.00  0.00    +0.000 C 
ENDBRANCH  26  27
ENDBRANCH  25  26
ENDBRANCH  24  25
ENDBRANCH  22  24
ENDBRANCH   7  22
TORSDOF 8
ENDMDL
MODEL 6
REMARK VINA RESULT:      -8.1      1.439      2.016
REMARK  Name = 
REMARK  11 active torsions:
REMARK  status: ('A' for Active; 'I' for Inactive)
REMARK    1  A    between atoms: C_1  and  O_2
REMARK    2  A    between atoms: O_2  and  C_3
REMARK    3  A    between atoms: C_8  and  C_9
REMARK    4  A    between atoms: C_11  and  C_12
REMARK    5  A    between atoms: C_19  and  C_20
REMARK    6  A    between atoms: C_20  and  O_22
REMARK    7  A    between atoms: O_22  and  C_23
REMARK    8  A    between atoms: C_23  and  C_24
REMARK    9  A    between atoms: C_24  and  C_25
REMARK   10  A    between atoms: C_26  and  C_27
REMARK   11  A    between atoms: C_30  and  C_31
REMARK                            x       y       z     vdW  Elec       q    Type
REMARK                         _______ _______ _______ _____ _____    ______ ____
ROOT
ATOM      1  C   UNL     1       4.442   5.125  17.748  0.00  0.00    +0.000 A 
ATOM      2  C   UNL     1       4.224   3.932  18.624  0.00  0.00    +0.000 A 
ATOM      3  C   UNL     1       3.351   4.068  19.643  0.00  0.00    +0.000 A 
ATOM      4  N   UNL     1       2.698   5.279  19.832  0.00  0.00    +0.000 N 
ATOM      5  N   UNL     1       1.813   5.626  20.800  0.00  0.00    +0.000 NA
ATOM      6  C   UNL     1       1.463   6.875  20.516  0.00  0.00    +0.000 A 
ATOM      7  C   UNL     1       2.096   7.378  19.369  0.00  0.00    +0.000 A 
ATOM      8  C   UNL     1       2.919   6.349  18.950  0.00  0.00    +0.000 A 
ATOM      9  N   UNL     1       3.814   6.259  17.919  0.00  0.00    +0.000 NA
ENDROOT
BRANCH   1  15
ATOM     10  C   UNL     1       6.713   5.351  16.529  0.00  0.00    +0.000 A 
ATOM     11  C   UNL     1       7.469   5.069  15.378  0.00  0.00    +0.000 A 
ATOM     12  C   UNL     1       6.877   4.497  14.250  0.00  0.00    +0.000 A 
ATOM     13  C   UNL     1       5.523   4.193  14.258  0.00  0.00    +0.000 A 
ATOM     14  C   UNL     1       4.770   4.425  15.409  0.00  0.00    +0.000 A 
ATOM     15  C   UNL     1       5.355   4.980  16.564  0.00  0.00    +0.000 A 
BRANCH  10  17
ATOM     16  C   UNL     1       7.485   7.374  17.496  0.00  0.00    +0.000 C 
ATOM     17  O   UNL     1       7.263   5.968  17.624  0.00  0.00    +0.000 OA
ENDBRANCH  10  17
ENDBRANCH   1  15
BRANCH   3  18
ATOM     18  C   UNL     1       3.046   2.940  20.557  0.00  0.00    +0.000 C 
ATOM     19  F   UNL     1       2.052   2.103  20.180  0.00  0.00    +0.000 F 
ATOM     20  F   UNL     1       4.148   2.156  20.727  0.00  0.00    +0.000 F 
ATOM     21  F   UNL     1       2.720   3.394  21.797  0.00  0.00    +0.000 F 
ENDBRANCH   3  18
BRANCH   7  22
ATOM     22  C   UNL     1       1.947   8.701  18.821  0.00  0.00    +0.000 C 
ATOM     23  O   UNL     1       2.595   9.079  17.854  0.00  0.00    +0.000 OA
BRANCH  22  24
ATOM     24  O   UNL     1       1.052   9.476  19.489  0.00  0.00    +0.000 OA
BRANCH  24  25
ATOM     25  C   UNL     1      -0.082   9.961  18.753  0.00  0.00    +0.000 C 
BRANCH  25  26
ATOM     26  C   UNL     1      -0.335  11.470  18.797  0.00  0.00    +0.000 C 
BRANCH  26  27
ATOM     27  C   UNL     1       0.646  12.180  19.662  0.00  0.00    +0.000 A 
ATOM     28  C   UNL     1       0.546  12.474  21.051  0.00  0.00    +0.000 A 
ATOM     29  C   UNL     1      -0.545  12.150  22.002  0.00  0.00    +0.000 C 
ATOM     30  N   UNL     1       1.622  13.140  21.486  0.00  0.00    +0.000 NA
ATOM     31  O   UNL     1       2.441  13.295  20.386  0.00  0.00    +0.000 OA
ATOM     32  C   UNL     1       1.860  12.723  19.300  0.00  0.00    +0.000 A 
ATOM     33  C   UNL     1       2.607  12.800  18.032  0.00  0.00    +0.000 C 
ENDBRANCH  26  27
ENDBRANCH  25  26
ENDBRANCH  24  25
ENDBRANCH  22  24
ENDBRANCH   7  22
TORSDOF 8
ENDMDL
MODEL 7
REMARK VINA RESULT:      -8.1      1.342      2.055
REMARK  Name = 
REMARK  11 active torsions:
REMARK  status: ('A' for Active; 'I' for Inactive)
REMARK    1  A    between atoms: C_1  and  O_2
REMARK    2  A    between atoms: O_2  and  C_3
REMARK    3  A    between atoms: C_8  and  C_9
REMARK    4  A    between atoms: C_11  and  C_12
REMARK    5  A    between atoms: C_19  and  C_20
REMARK    6  A    between atoms: C_20  and  O_22
REMARK    7  A    between atoms: O_22  and  C_23
REMARK    8  A    between atoms: C_23  and  C_24
REMARK    9  A    between atoms: C_24  and  C_25
REMARK   10  A    between atoms: C_26  and  C_27
REMARK   11  A    between atoms: C_30  and  C_31
REMARK                            x       y       z     vdW  Elec       q    Type
REMARK                         _______ _______ _______ _____ _____    ______ ____
ROOT
ATOM      1  C   UNL     1       4.202   5.369  18.252  0.00  0.00    +0.000 A 
ATOM      2  C   UNL     1       3.850   4.269  19.204  0.00  0.00    +0.000 A 
ATOM      3  C   UNL     1       2.882   4.525  20.108  0.00  0.00    +0.000 A 
ATOM      4  N   UNL     1       2.260   5.767  20.117  0.00  0.00    +0.000 N 
ATOM      5  N   UNL     1       1.294   6.229  20.950  0.00  0.00    +0.000 NA
ATOM      6  C   UNL     1       1.023   7.455  20.520  0.00  0.00    +0.000 A 
ATOM      7  C   UNL     1       1.791   7.830  19.406  0.00  0.00    +0.000 A 
ATOM      8  C   UNL     1       2.613   6.744  19.171  0.00  0.00    +0.000 A 
ATOM      9  N   UNL     1       3.605   6.532  18.253  0.00  0.00    +0.000 NA
ENDROOT
BRANCH   1  15
ATOM     10  C   UNL     1       6.573   4.745  17.424  0.00  0.00    +0.000 A 
ATOM     11  C   UNL     1       7.393   4.417  16.330  0.00  0.00    +0.000 A 
ATOM     12  C   UNL     1       6.915   4.498  15.021  0.00  0.00    +0.000 A 
ATOM     13  C   UNL     1       5.609   4.903  14.785  0.00  0.00    +0.000 A 
ATOM     14  C   UNL     1       4.769   5.186  15.862  0.00  0.00    +0.000 A 
ATOM     15  C   UNL     1       5.227   5.088  17.190  0.00  0.00    +0.000 A 
BRANCH  10  17
ATOM     16  C   UNL     1       7.772   5.888  19.119  0.00  0.00    +0.000 C 
ATOM     17  O   UNL     1       7.042   4.729  18.712  0.00  0.00    +0.000 OA
ENDBRANCH  10  17
ENDBRANCH   1  15
BRANCH   3  18
ATOM     18  C   UNL     1       2.440   3.497  21.081  0.00  0.00    +0.000 C 
ATOM     19  F   UNL     1       2.412   3.862  22.384  0.00  0.00    +0.000 F 
ATOM     20  F   UNL     1       1.178   3.075  20.786  0.00  0.00    +0.000 F 
ATOM     21  F   UNL     1       3.227   2.389  21.007  0.00  0.00    +0.000 F 
ENDBRANCH   3  18
BRANCH   7  22
ATOM     22  C   UNL     1       1.751   9.100  18.728  0.00  0.00    +0.000 C 
ATOM     23  O   UNL     1       2.680   9.496  18.037  0.00  0.00    +0.000 OA
BRANCH  22  24
ATOM     24  O   UNL     1       0.612   9.807  18.953  0.00  0.00    +0.000 OA
BRANCH  24  25
ATOM     25  C   UNL     1       0.753  11.177  19.364  0.00  0.00    +0.000 C 
BRANCH  25  26
ATOM     26  C   UNL     1       1.043  11.422  20.847  0.00  0.00    +0.000 C 
BRANCH  26  27
ATOM     27  C   UNL     1      -0.201  11.636  21.636  0.00  0.00    +0.000 A 
ATOM     28  C   UNL     1      -0.720  10.841  22.696  0.00  0.00    +0.000 A 
ATOM     29  C   UNL     1      -0.166   9.605  23.299  0.00  0.00    +0.000 C 
ATOM     30  N   UNL     1      -1.872  11.341  23.159  0.00  0.00    +0.000 NA
ATOM     31  O   UNL     1      -2.126  12.468  22.405  0.00  0.00    +0.000 OA
ATOM     32  C   UNL     1      -1.130  12.644  21.499  0.00  0.00    +0.000 A 
ATOM     33  C   UNL     1      -1.247  13.811  20.605  0.00  0.00    +0.000 C 
ENDBRANCH  26  27
ENDBRANCH  25  26
ENDBRANCH  24  25
ENDBRANCH  22  24
ENDBRANCH   7  22
TORSDOF 8
ENDMDL
MODEL 8
REMARK VINA RESULT:      -8.1      0.818      1.597
REMARK  Name = 
REMARK  11 active torsions:
REMARK  status: ('A' for Active; 'I' for Inactive)
REMARK    1  A    between atoms: C_1  and  O_2
REMARK    2  A    between atoms: O_2  and  C_3
REMARK    3  A    between atoms: C_8  and  C_9
REMARK    4  A    between atoms: C_11  and  C_12
REMARK    5  A    between atoms: C_19  and  C_20
REMARK    6  A    between atoms: C_20  and  O_22
REMARK    7  A    between atoms: O_22  and  C_23
REMARK    8  A    between atoms: C_23  and  C_24
REMARK    9  A    between atoms: C_24  and  C_25
REMARK   10  A    between atoms: C_26  and  C_27
REMARK   11  A    between atoms: C_30  and  C_31
REMARK                            x       y       z     vdW  Elec       q    Type
REMARK                         _______ _______ _______ _____ _____    ______ ____
ROOT
ATOM      1  C   UNL     1       4.419   5.135  17.602  0.00  0.00    +0.000 A 
ATOM      2  C   UNL     1       4.235   3.963  18.512  0.00  0.00    +0.000 A 
ATOM      3  C   UNL     1       3.387   4.118  19.550  0.00  0.00    +0.000 A 
ATOM      4  N   UNL     1       2.729   5.328  19.726  0.00  0.00    +0.000 N 
ATOM      5  N   UNL     1       1.867   5.692  20.708  0.00  0.00    +0.000 NA
ATOM      6  C   UNL     1       1.499   6.931  20.403  0.00  0.00    +0.000 A 
ATOM      7  C   UNL     1       2.098   7.410  19.227  0.00  0.00    +0.000 A 
ATOM      8  C   UNL     1       2.919   6.378  18.812  0.00  0.00    +0.000 A 
ATOM      9  N   UNL     1       3.787   6.268  17.761  0.00  0.00    +0.000 NA
ENDROOT
BRANCH   1  15
ATOM     10  C   UNL     1       6.387   5.799  16.058  0.00  0.00    +0.000 A 
ATOM     11  C   UNL     1       7.184   5.463  14.950  0.00  0.00    +0.000 A 
ATOM     12  C   UNL     1       6.872   4.367  14.144  0.00  0.00    +0.000 A 
ATOM     13  C   UNL     1       5.763   3.586  14.438  0.00  0.00    +0.000 A 
ATOM     14  C   UNL     1       4.990   3.879  15.561  0.00  0.00    +0.000 A 
ATOM     15  C   UNL     1       5.303   4.967  16.398  0.00  0.00    +0.000 A 
BRANCH  10  17
ATOM     16  C   UNL     1       7.651   6.751  17.824  0.00  0.00    +0.000 C 
ATOM     17  O   UNL     1       6.642   6.907  16.825  0.00  0.00    +0.000 OA
ENDBRANCH  10  17
ENDBRANCH   1  15
BRANCH   3  18
ATOM     18  C   UNL     1       3.115   3.010  20.499  0.00  0.00    +0.000 C 
ATOM     19  F   UNL     1       2.802   3.358  21.768  0.00  0.00    +0.000 F 
ATOM     20  F   UNL     1       2.074   2.250  20.055  0.00  0.00    +0.000 F 
ATOM     21  F   UNL     1       4.179   2.167  20.580  0.00  0.00    +0.000 F 
ENDBRANCH   3  18
BRANCH   7  22
ATOM     22  C   UNL     1       1.925   8.718  18.651  0.00  0.00    +0.000 C 
ATOM     23  O   UNL     1       2.242   8.964  17.494  0.00  0.00    +0.000 OA
BRANCH  22  24
ATOM     24  O   UNL     1       1.408   9.634  19.512  0.00  0.00    +0.000 OA
BRANCH  24  25
ATOM     25  C   UNL     1       0.511  10.618  18.971  0.00  0.00    +0.000 C 
BRANCH  25  26
ATOM     26  C   UNL     1      -0.878  10.705  19.608  0.00  0.00    +0.000 C 
BRANCH  26  27
ATOM     27  C   UNL     1      -0.848  11.378  20.935  0.00  0.00    +0.000 A 
ATOM     28  C   UNL     1      -0.651  10.791  22.217  0.00  0.00    +0.000 A 
ATOM     29  C   UNL     1      -0.418   9.370  22.572  0.00  0.00    +0.000 C 
ATOM     30  N   UNL     1      -0.700  11.713  23.186  0.00  0.00    +0.000 NA
ATOM     31  O   UNL     1      -0.934  12.917  22.552  0.00  0.00    +0.000 OA
ATOM     32  C   UNL     1      -1.021  12.716  21.212  0.00  0.00    +0.000 A 
ATOM     33  C   UNL     1      -1.271  13.907  20.380  0.00  0.00    +0.000 C 
ENDBRANCH  26  27
ENDBRANCH  25  26
ENDBRANCH  24  25
ENDBRANCH  22  24
ENDBRANCH   7  22
TORSDOF 8
ENDMDL
MODEL 9
REMARK VINA RESULT:      -7.9      1.627      2.015
REMARK  Name = 
REMARK  11 active torsions:
REMARK  status: ('A' for Active; 'I' for Inactive)
REMARK    1  A    between atoms: C_1  and  O_2
REMARK    2  A    between atoms: O_2  and  C_3
REMARK    3  A    between atoms: C_8  and  C_9
REMARK    4  A    between atoms: C_11  and  C_12
REMARK    5  A    between atoms: C_19  and  C_20
REMARK    6  A    between atoms: C_20  and  O_22
REMARK    7  A    between atoms: O_22  and  C_23
REMARK    8  A    between atoms: C_23  and  C_24
REMARK    9  A    between atoms: C_24  and  C_25
REMARK   10  A    between atoms: C_26  and  C_27
REMARK   11  A    between atoms: C_30  and  C_31
REMARK                            x       y       z     vdW  Elec       q    Type
REMARK                         _______ _______ _______ _____ _____    ______ ____
ROOT
ATOM      1  C   UNL     1       4.242   5.253  18.162  0.00  0.00    +0.000 A 
ATOM      2  C   UNL     1       3.924   4.103  19.065  0.00  0.00    +0.000 A 
ATOM      3  C   UNL     1       2.994   4.310  20.020  0.00  0.00    +0.000 A 
ATOM      4  N   UNL     1       2.377   5.550  20.121  0.00  0.00    +0.000 N 
ATOM      5  N   UNL     1       1.446   5.966  21.016  0.00  0.00    +0.000 NA
ATOM      6  C   UNL     1       1.163   7.215  20.666  0.00  0.00    +0.000 A 
ATOM      7  C   UNL     1       1.887   7.650  19.544  0.00  0.00    +0.000 A 
ATOM      8  C   UNL     1       2.695   6.577  19.217  0.00  0.00    +0.000 A 
ATOM      9  N   UNL     1       3.649   6.415  18.251  0.00  0.00    +0.000 NA
ENDROOT
BRANCH   1  15
ATOM     10  C   UNL     1       6.615   5.227  17.130  0.00  0.00    +0.000 A 
ATOM     11  C   UNL     1       7.420   4.886  16.029  0.00  0.00    +0.000 A 
ATOM     12  C   UNL     1       6.855   4.427  14.837  0.00  0.00    +0.000 A 
ATOM     13  C   UNL     1       5.477   4.296  14.731  0.00  0.00    +0.000 A 
ATOM     14  C   UNL     1       4.669   4.587  15.830  0.00  0.00    +0.000 A 
ATOM     15  C   UNL     1       5.223   5.029  17.046  0.00  0.00    +0.000 A 
BRANCH  10  17
ATOM     16  C   UNL     1       7.790   7.007  18.166  0.00  0.00    +0.000 C 
ATOM     17  O   UNL     1       7.147   5.737  18.286  0.00  0.00    +0.000 OA
ENDBRANCH  10  17
ENDBRANCH   1  15
BRANCH   3  18
ATOM     18  C   UNL     1       2.588   3.230  20.952  0.00  0.00    +0.000 C 
ATOM     19  F   UNL     1       1.408   2.618  20.699  0.00  0.00    +0.000 F 
ATOM     20  F   UNL     1       3.524   2.239  20.968  0.00  0.00    +0.000 F 
ATOM     21  F   UNL     1       2.517   3.692  22.229  0.00  0.00    +0.000 F 
ENDBRANCH   3  18
BRANCH   7  22
ATOM     22  C   UNL     1       1.824   8.956  18.940  0.00  0.00    +0.000 C 
ATOM     23  O   UNL     1       2.368   9.202  17.872  0.00  0.00    +0.000 OA
BRANCH  22  24
ATOM     24  O   UNL     1       1.138   9.869  19.675  0.00  0.00    +0.000 OA
BRANCH  24  25
ATOM     25  C   UNL     1      -0.081  10.387  19.117  0.00  0.00    +0.000 C 
BRANCH  25  26
ATOM     26  C   UNL     1      -0.133  11.896  18.862  0.00  0.00    +0.000 C 
BRANCH  26  27
ATOM     27  C   UNL     1       0.757  12.653  19.784  0.00  0.00    +0.000 A 
ATOM     28  C   UNL     1       2.029  13.228  19.507  0.00  0.00    +0.000 A 
ATOM     29  C   UNL     1       2.799  13.235  18.240  0.00  0.00    +0.000 C 
ATOM     30  N   UNL     1       2.539  13.825  20.591  0.00  0.00    +0.000 NA
ATOM     31  O   UNL     1       1.608  13.645  21.595  0.00  0.00    +0.000 OA
ATOM     32  C   UNL     1       0.547  12.949  21.113  0.00  0.00    +0.000 A 
ATOM     33  C   UNL     1      -0.545  12.667  22.063  0.00  0.00    +0.000 C 
ENDBRANCH  26  27
ENDBRANCH  25  26
ENDBRANCH  24  25
ENDBRANCH  22  24
ENDBRANCH   7  22
TORSDOF 8
ENDMDL
