MODEL 1
REMARK VINA RESULT:      -7.9      0.000      0.000
REMARK  Name = 
REMARK  6 active torsions:
REMARK  status: ('A' for Active; 'I' for Inactive)
REMARK    1  A    between atoms: C_1  and  C_2
REMARK    2  A    between atoms: C_5  and  C_6
REMARK    3  A    between atoms: C_7  and  C_8
REMARK    4  A    between atoms: N_10  and  C_11
REMARK    5  A    between atoms: C_16  and  C_17
REMARK    6  A    between atoms: C_17  and  C_18
REMARK                            x       y       z     vdW  Elec       q    Type
REMARK                         _______ _______ _______ _____ _____    ______ ____
ROOT
ATOM      1  C   UNL     1       5.648   5.378  17.736  0.00  0.00    +0.000 C 
ATOM      2  C   UNL     1       5.627   6.761  17.042  0.00  0.00    +0.000 C 
ATOM      3  C   UNL     1       6.539   7.847  17.617  0.00  0.00    +0.000 C 
ATOM      4  C   UNL     1       7.902   7.354  18.072  0.00  0.00    +0.000 C 
ATOM      5  C   UNL     1       7.771   6.110  18.938  0.00  0.00    +0.000 C 
ATOM      6  C   UNL     1       7.067   4.957  18.204  0.00  0.00    +0.000 C 
ENDROOT
BRANCH   1   9
ATOM      7  C   UNL     1       3.814   4.101  18.765  0.00  0.00    +0.000 C 
ATOM      8  O   UNL     1       3.656   3.434  17.748  0.00  0.00    +0.000 OA
ATOM      9  N   UNL     1       4.646   5.211  18.805  0.00  0.00    +0.000 N 
ATOM     10  H   UNL     1       4.954   5.469  19.733  0.00  0.00    +0.000 HD
BRANCH   7  17
ATOM     11  C   UNL     1       1.174   5.219  20.545  0.00  0.00    +0.000 C 
ATOM     12  C   UNL     1       2.150   4.140  20.817  0.00  0.00    +0.000 A 
ATOM     13  N   UNL     1       2.003   3.415  21.935  0.00  0.00    +0.000 NA
ATOM     14  O   UNL     1       2.967   2.432  21.879  0.00  0.00    +0.000 OA
ATOM     15  C   UNL     1       3.692   2.574  20.744  0.00  0.00    +0.000 A 
ATOM     16  C   UNL     1       4.761   1.578  20.526  0.00  0.00    +0.000 C 
ATOM     17  C   UNL     1       3.238   3.670  20.031  0.00  0.00    +0.000 A 
ENDBRANCH   7  17
ENDBRANCH   1   9
BRANCH   6  18
ATOM     18  C   UNL     1       7.848   4.435  16.975  0.00  0.00    +0.000 C 
BRANCH  18  19
ATOM     19  C   UNL     1       7.084   4.411  15.702  0.00  0.00    +0.000 A 
ATOM     20  C   UNL     1       6.036   3.636  15.251  0.00  0.00    +0.000 A 
ATOM     21  C   UNL     1       5.862   3.961  13.884  0.00  0.00    +0.000 A 
ATOM     22  C   UNL     1       6.791   4.934  13.600  0.00  0.00    +0.000 A 
ATOM     23  O   UNL     1       7.535   5.217  14.700  0.00  0.00    +0.000 OA
ENDBRANCH  18  19
ENDBRANCH   6  18
TORSDOF 4
ENDMDL
MODEL 2
REMARK VINA RESULT:      -7.8      2.661      6.344
REMARK  Name = 
REMARK  6 active torsions:
REMARK  status: ('A' for Active; 'I' for Inactive)
REMARK    1  A    between atoms: C_1  and  C_2
REMARK    2  A    between atoms: C_5  and  C_6
REMARK    3  A    between atoms: C_7  and  C_8
REMARK    4  A    between atoms: N_10  and  C_11
REMARK    5  A    between atoms: C_16  and  C_17
REMARK    6  A    between atoms: C_17  and  C_18
REMARK                            x       y       z     vdW  Elec       q    Type
REMARK                         _______ _______ _______ _____ _____    ______ ____
ROOT
ATOM      1  C   UNL     1       2.461   4.900  18.565  0.00  0.00    +0.000 C 
ATOM      2  C   UNL     1       1.244   3.956  18.413  0.00  0.00    +0.000 C 
ATOM      3  C   UNL     1       1.005   2.935  19.527  0.00  0.00    +0.000 C 
ATOM      4  C   UNL     1       1.270   3.455  20.930  0.00  0.00    +0.000 C 
ATOM      5  C   UNL     1       2.610   4.173  21.002  0.00  0.00    +0.000 C 
ATOM      6  C   UNL     1       2.690   5.362  20.030  0.00  0.00    +0.000 C 
ENDROOT
BRANCH   1   9
ATOM      7  C   UNL     1       4.497   5.301  17.243  0.00  0.00    +0.000 C 
ATOM      8  O   UNL     1       4.075   6.383  16.850  0.00  0.00    +0.000 OA
ATOM      9  N   UNL     1       3.705   4.404  17.946  0.00  0.00    +0.000 N 
ATOM     10  H   UNL     1       4.223   3.729  18.492  0.00  0.00    +0.000 HD
BRANCH   7  17
ATOM     11  C   UNL     1       7.060   5.401  19.435  0.00  0.00    +0.000 C 
ATOM     12  C   UNL     1       7.012   5.025  18.004  0.00  0.00    +0.000 A 
ATOM     13  N   UNL     1       8.142   4.610  17.416  0.00  0.00    +0.000 NA
ATOM     14  O   UNL     1       7.789   4.231  16.140  0.00  0.00    +0.000 OA
ATOM     15  C   UNL     1       6.461   4.427  15.962  0.00  0.00    +0.000 A 
ATOM     16  C   UNL     1       5.919   4.047  14.641  0.00  0.00    +0.000 C 
ATOM     17  C   UNL     1       5.907   4.963  17.111  0.00  0.00    +0.000 A 
ENDBRANCH   7  17
ENDBRANCH   1   9
BRANCH   6  18
ATOM     18  C   UNL     1       1.681   6.491  20.345  0.00  0.00    +0.000 C 
BRANCH  18  19
ATOM     19  C   UNL     1       1.733   7.660  19.432  0.00  0.00    +0.000 A 
ATOM     20  C   UNL     1       2.341   7.871  18.211  0.00  0.00    +0.000 A 
ATOM     21  C   UNL     1       2.186   9.249  17.923  0.00  0.00    +0.000 A 
ATOM     22  C   UNL     1       1.468   9.780  18.969  0.00  0.00    +0.000 A 
ATOM     23  O   UNL     1       1.185   8.821  19.888  0.00  0.00    +0.000 OA
ENDBRANCH  18  19
ENDBRANCH   6  18
TORSDOF 4
ENDMDL
MODEL 3
REMARK VINA RESULT:      -7.8      1.316      2.004
REMARK  Name = 
REMARK  6 active torsions:
REMARK  status: ('A' for Active; 'I' for Inactive)
REMARK    1  A    between atoms: C_1  and  C_2
REMARK    2  A    between atoms: C_5  and  C_6
REMARK    3  A    between atoms: C_7  and  C_8
REMARK    4  A    between atoms: N_10  and  C_11
REMARK    5  A    between atoms: C_16  and  C_17
REMARK    6  A    between atoms: C_17  and  C_18
REMARK                            x       y       z     vdW  Elec       q    Type
REMARK                         _______ _______ _______ _____ _____    ______ ____
ROOT
ATOM      1  C   UNL     1       5.663   5.835  17.534  0.00  0.00    +0.000 C 
ATOM      2  C   UNL     1       6.113   7.201  16.964  0.00  0.00    +0.000 C 
ATOM      3  C   UNL     1       7.122   8.007  17.786  0.00  0.00    +0.000 C 
ATOM      4  C   UNL     1       8.208   7.173  18.447  0.00  0.00    +0.000 C 
ATOM      5  C   UNL     1       7.612   5.974  19.169  0.00  0.00    +0.000 C 
ATOM      6  C   UNL     1       6.818   5.058  18.224  0.00  0.00    +0.000 C 
ENDROOT
BRANCH   1   9
ATOM      7  C   UNL     1       3.387   5.065  18.057  0.00  0.00    +0.000 C 
ATOM      8  O   UNL     1       3.269   4.540  16.956  0.00  0.00    +0.000 OA
ATOM      9  N   UNL     1       4.457   5.888  18.380  0.00  0.00    +0.000 N 
ATOM     10  H   UNL     1       4.625   5.985  19.372  0.00  0.00    +0.000 HD
BRANCH   7  17
ATOM     11  C   UNL     1       2.212   2.114  19.196  0.00  0.00    +0.000 C 
ATOM     12  C   UNL     1       1.935   3.505  19.619  0.00  0.00    +0.000 A 
ATOM     13  N   UNL     1       1.104   3.703  20.652  0.00  0.00    +0.000 NA
ATOM     14  O   UNL     1       1.113   5.059  20.892  0.00  0.00    +0.000 OA
ATOM     15  C   UNL     1       1.934   5.669  20.003  0.00  0.00    +0.000 A 
ATOM     16  C   UNL     1       2.068   7.134  20.142  0.00  0.00    +0.000 C 
ATOM     17  C   UNL     1       2.470   4.731  19.139  0.00  0.00    +0.000 A 
ENDBRANCH   7  17
ENDBRANCH   1   9
BRANCH   6  18
ATOM     18  C   UNL     1       7.683   4.398  17.125  0.00  0.00    +0.000 C 
BRANCH  18  19
ATOM     19  C   UNL     1       7.085   4.392  15.766  0.00  0.00    +0.000 A 
ATOM     20  C   UNL     1       6.078   3.646  15.187  0.00  0.00    +0.000 A 
ATOM     21  C   UNL     1       6.087   3.970  13.809  0.00  0.00    +0.000 A 
ATOM     22  C   UNL     1       7.074   4.913  13.643  0.00  0.00    +0.000 A 
ATOM     23  O   UNL     1       7.682   5.178  14.828  0.00  0.00    +0.000 OA
ENDBRANCH  18  19
ENDBRANCH   6  18
TORSDOF 4
ENDMDL
MODEL 4
REMARK VINA RESULT:      -7.7      2.793      6.356
REMARK  Name = 
REMARK  6 active torsions:
REMARK  status: ('A' for Active; 'I' for Inactive)
REMARK    1  A    between atoms: C_1  and  C_2
REMARK    2  A    between atoms: C_5  and  C_6
REMARK    3  A    between atoms: C_7  and  C_8
REMARK    4  A    between atoms: N_10  and  C_11
REMARK    5  A    between atoms: C_16  and  C_17
REMARK    6  A    between atoms: C_17  and  C_18
REMARK                            x       y       z     vdW  Elec       q    Type
REMARK                         _______ _______ _______ _____ _____    ______ ____
ROOT
ATOM      1  C   UNL     1       2.401   5.026  18.460  0.00  0.00    +0.000 C 
ATOM      2  C   UNL     1       1.167   4.096  18.383  0.00  0.00    +0.000 C 
ATOM      3  C   UNL     1       1.000   3.060  19.497  0.00  0.00    +0.000 C 
ATOM      4  C   UNL     1       1.370   3.558  20.885  0.00  0.00    +0.000 C 
ATOM      5  C   UNL     1       2.719   4.263  20.869  0.00  0.00    +0.000 C 
ATOM      6  C   UNL     1       2.739   5.465  19.911  0.00  0.00    +0.000 C 
ENDROOT
BRANCH   1   9
ATOM      7  C   UNL     1       4.485   5.454  17.224  0.00  0.00    +0.000 C 
ATOM      8  O   UNL     1       4.187   6.632  17.053  0.00  0.00    +0.000 OA
ATOM      9  N   UNL     1       3.592   4.529  17.746  0.00  0.00    +0.000 N 
ATOM     10  H   UNL     1       4.027   3.708  18.145  0.00  0.00    +0.000 HD
BRANCH   7  17
ATOM     11  C   UNL     1       6.090   4.288  14.495  0.00  0.00    +0.000 C 
ATOM     12  C   UNL     1       6.544   4.474  15.891  0.00  0.00    +0.000 A 
ATOM     13  N   UNL     1       7.817   4.178  16.192  0.00  0.00    +0.000 NA
ATOM     14  O   UNL     1       7.990   4.542  17.509  0.00  0.00    +0.000 OA
ATOM     15  C   UNL     1       6.829   5.041  17.996  0.00  0.00    +0.000 A 
ATOM     16  C   UNL     1       6.856   5.498  19.401  0.00  0.00    +0.000 C 
ATOM     17  C   UNL     1       5.852   4.998  17.017  0.00  0.00    +0.000 A 
ENDBRANCH   7  17
ENDBRANCH   1   9
BRANCH   6  18
ATOM     18  C   UNL     1       1.768   6.598  20.314  0.00  0.00    +0.000 C 
BRANCH  18  19
ATOM     19  C   UNL     1       1.732   7.761  19.391  0.00  0.00    +0.000 A 
ATOM     20  C   UNL     1       2.270   7.983  18.140  0.00  0.00    +0.000 A 
ATOM     21  C   UNL     1       2.051   9.351  17.851  0.00  0.00    +0.000 A 
ATOM     22  C   UNL     1       1.367   9.865  18.927  0.00  0.00    +0.000 A 
ATOM     23  O   UNL     1       1.164   8.904  19.865  0.00  0.00    +0.000 OA
ENDBRANCH  18  19
ENDBRANCH   6  18
TORSDOF 4
ENDMDL
MODEL 5
REMARK VINA RESULT:      -7.7      2.406      6.462
REMARK  Name = 
REMARK  6 active torsions:
REMARK  status: ('A' for Active; 'I' for Inactive)
REMARK    1  A    between atoms: C_1  and  C_2
REMARK    2  A    between atoms: C_5  and  C_6
REMARK    3  A    between atoms: C_7  and  C_8
REMARK    4  A    between atoms: N_10  and  C_11
REMARK    5  A    between atoms: C_16  and  C_17
REMARK    6  A    between atoms: C_17  and  C_18
REMARK                            x       y       z     vdW  Elec       q    Type
REMARK                         _______ _______ _______ _____ _____    ______ ____
ROOT
ATOM      1  C   UNL     1       2.333   4.209  18.528  0.00  0.00    +0.000 C 
ATOM      2  C   UNL     1       1.287   3.071  18.449  0.00  0.00    +0.000 C 
ATOM      3  C   UNL     1       1.357   1.979  19.518  0.00  0.00    +0.000 C 
ATOM      4  C   UNL     1       1.687   2.481  20.914  0.00  0.00    +0.000 C 
ATOM      5  C   UNL     1       2.883   3.421  20.887  0.00  0.00    +0.000 C 
ATOM      6  C   UNL     1       2.645   4.644  19.986  0.00  0.00    +0.000 C 
ENDROOT
BRANCH   1   9
ATOM      7  C   UNL     1       4.272   5.063  17.279  0.00  0.00    +0.000 C 
ATOM      8  O   UNL     1       3.778   6.183  17.200  0.00  0.00    +0.000 OA
ATOM      9  N   UNL     1       3.565   3.968  17.753  0.00  0.00    +0.000 N 
ATOM     10  H   UNL     1       4.143   3.207  18.082  0.00  0.00    +0.000 HD
BRANCH   7  17
ATOM     11  C   UNL     1       5.945   4.298  14.450  0.00  0.00    +0.000 C 
ATOM     12  C   UNL     1       6.416   4.506  15.838  0.00  0.00    +0.000 A 
ATOM     13  N   UNL     1       7.731   4.422  16.084  0.00  0.00    +0.000 NA
ATOM     14  O   UNL     1       7.891   4.759  17.410  0.00  0.00    +0.000 OA
ATOM     15  C   UNL     1       6.681   5.032  17.956  0.00  0.00    +0.000 A 
ATOM     16  C   UNL     1       6.685   5.432  19.379  0.00  0.00    +0.000 C 
ATOM     17  C   UNL     1       5.689   4.859  17.008  0.00  0.00    +0.000 A 
ENDBRANCH   7  17
ENDBRANCH   1   9
BRANCH   6  18
ATOM     18  C   UNL     1       1.500   5.562  20.474  0.00  0.00    +0.000 C 
BRANCH  18  19
ATOM     19  C   UNL     1       1.664   7.003  20.155  0.00  0.00    +0.000 A 
ATOM     20  C   UNL     1       1.417   8.156  20.872  0.00  0.00    +0.000 A 
ATOM     21  C   UNL     1       1.595   9.231  19.967  0.00  0.00    +0.000 A 
ATOM     22  C   UNL     1       1.970   8.666  18.770  0.00  0.00    +0.000 A 
ATOM     23  O   UNL     1       2.019   7.314  18.877  0.00  0.00    +0.000 OA
ENDBRANCH  18  19
ENDBRANCH   6  18
TORSDOF 4
ENDMDL
MODEL 6
REMARK VINA RESULT:      -7.7      2.140      6.632
REMARK  Name = 
REMARK  6 active torsions:
REMARK  status: ('A' for Active; 'I' for Inactive)
REMARK    1  A    between atoms: C_1  and  C_2
REMARK    2  A    between atoms: C_5  and  C_6
REMARK    3  A    between atoms: C_7  and  C_8
REMARK    4  A    between atoms: N_10  and  C_11
REMARK    5  A    between atoms: C_16  and  C_17
REMARK    6  A    between atoms: C_17  and  C_18
REMARK                            x       y       z     vdW  Elec       q    Type
REMARK                         _______ _______ _______ _____ _____    ______ ____
ROOT
ATOM      1  C   UNL     1       3.966   4.043  19.697  0.00  0.00    +0.000 C 
ATOM      2  C   UNL     1       2.464   4.316  19.952  0.00  0.00    +0.000 C 
ATOM      3  C   UNL     1       1.456   3.431  19.215  0.00  0.00    +0.000 C 
ATOM      4  C   UNL     1       1.857   1.969  19.110  0.00  0.00    +0.000 C 
ATOM      5  C   UNL     1       3.294   1.830  18.631  0.00  0.00    +0.000 C 
ATOM      6  C   UNL     1       4.293   2.530  19.566  0.00  0.00    +0.000 C 
ENDROOT
BRANCH   1   9
ATOM      7  C   UNL     1       5.904   5.153  18.665  0.00  0.00    +0.000 C 
ATOM      8  O   UNL     1       6.543   5.096  19.711  0.00  0.00    +0.000 OA
ATOM      9  N   UNL     1       4.556   4.828  18.597  0.00  0.00    +0.000 N 
ATOM     10  H   UNL     1       4.230   4.592  17.670  0.00  0.00    +0.000 HD
BRANCH   7  17
ATOM     11  C   UNL     1       5.818   3.601  15.670  0.00  0.00    +0.000 C 
ATOM     12  C   UNL     1       6.580   4.780  16.139  0.00  0.00    +0.000 A 
ATOM     13  N   UNL     1       7.375   5.414  15.264  0.00  0.00    +0.000 NA
ATOM     14  O   UNL     1       7.868   6.514  15.929  0.00  0.00    +0.000 OA
ATOM     15  C   UNL     1       7.383   6.534  17.193  0.00  0.00    +0.000 A 
ATOM     16  C   UNL     1       7.807   7.672  18.035  0.00  0.00    +0.000 C 
ATOM     17  C   UNL     1       6.573   5.432  17.402  0.00  0.00    +0.000 A 
ENDBRANCH   7  17
ENDBRANCH   1   9
BRANCH   6  18
ATOM     18  C   UNL     1       4.347   1.922  20.987  0.00  0.00    +0.000 C 
BRANCH  18  19
ATOM     19  C   UNL     1       5.324   0.818  21.167  0.00  0.00    +0.000 A 
ATOM     20  C   UNL     1       5.606  -0.315  20.431  0.00  0.00    +0.000 A 
ATOM     21  C   UNL     1       6.512  -1.077  21.207  0.00  0.00    +0.000 A 
ATOM     22  C   UNL     1       6.749  -0.345  22.348  0.00  0.00    +0.000 A 
ATOM     23  O   UNL     1       6.035   0.810  22.329  0.00  0.00    +0.000 OA
ENDBRANCH  18  19
ENDBRANCH   6  18
TORSDOF 4
ENDMDL
MODEL 7
REMARK VINA RESULT:      -7.7      0.471      1.731
REMARK  Name = 
REMARK  6 active torsions:
REMARK  status: ('A' for Active; 'I' for Inactive)
REMARK    1  A    between atoms: C_1  and  C_2
REMARK    2  A    between atoms: C_5  and  C_6
REMARK    3  A    between atoms: C_7  and  C_8
REMARK    4  A    between atoms: N_10  and  C_11
REMARK    5  A    between atoms: C_16  and  C_17
REMARK    6  A    between atoms: C_17  and  C_18
REMARK                            x       y       z     vdW  Elec       q    Type
REMARK                         _______ _______ _______ _____ _____    ______ ____
ROOT
ATOM      1  C   UNL     1       5.710   5.460  17.737  0.00  0.00    +0.000 C 
ATOM      2  C   UNL     1       5.708   6.850  17.058  0.00  0.00    +0.000 C 
ATOM      3  C   UNL     1       6.641   7.916  17.639  0.00  0.00    +0.000 C 
ATOM      4  C   UNL     1       7.999   7.395  18.080  0.00  0.00    +0.000 C 
ATOM      5  C   UNL     1       7.852   6.144  18.934  0.00  0.00    +0.000 C 
ATOM      6  C   UNL     1       7.126   5.011  18.192  0.00  0.00    +0.000 C 
ENDROOT
BRANCH   1   9
ATOM      7  C   UNL     1       3.820   4.239  18.729  0.00  0.00    +0.000 C 
ATOM      8  O   UNL     1       3.614   3.630  17.685  0.00  0.00    +0.000 OA
ATOM      9  N   UNL     1       4.713   5.298  18.811  0.00  0.00    +0.000 N 
ATOM     10  H   UNL     1       5.044   5.494  19.745  0.00  0.00    +0.000 HD
BRANCH   7  17
ATOM     11  C   UNL     1       4.511   1.600  20.716  0.00  0.00    +0.000 C 
ATOM     12  C   UNL     1       3.483   2.660  20.821  0.00  0.00    +0.000 A 
ATOM     13  N   UNL     1       2.666   2.652  21.884  0.00  0.00    +0.000 NA
ATOM     14  O   UNL     1       1.897   3.790  21.779  0.00  0.00    +0.000 OA
ATOM     15  C   UNL     1       2.242   4.467  20.658  0.00  0.00    +0.000 A 
ATOM     16  C   UNL     1       1.516   5.730  20.412  0.00  0.00    +0.000 C 
ATOM     17  C   UNL     1       3.234   3.780  19.981  0.00  0.00    +0.000 A 
ENDBRANCH   7  17
ENDBRANCH   1   9
BRANCH   6  18
ATOM     18  C   UNL     1       7.890   4.489  16.953  0.00  0.00    +0.000 C 
BRANCH  18  19
ATOM     19  C   UNL     1       7.103   4.443  15.695  0.00  0.00    +0.000 A 
ATOM     20  C   UNL     1       6.049   3.657  15.276  0.00  0.00    +0.000 A 
ATOM     21  C   UNL     1       5.848   3.959  13.908  0.00  0.00    +0.000 A 
ATOM     22  C   UNL     1       6.769   4.930  13.591  0.00  0.00    +0.000 A 
ATOM     23  O   UNL     1       7.532   5.233  14.672  0.00  0.00    +0.000 OA
ENDBRANCH  18  19
ENDBRANCH   6  18
TORSDOF 4
ENDMDL
MODEL 8
REMARK VINA RESULT:      -7.5      3.969      6.161
REMARK  Name = 
REMARK  6 active torsions:
REMARK  status: ('A' for Active; 'I' for Inactive)
REMARK    1  A    between atoms: C_1  and  C_2
REMARK    2  A    between atoms: C_5  and  C_6
REMARK    3  A    between atoms: C_7  and  C_8
REMARK    4  A    between atoms: N_10  and  C_11
REMARK    5  A    between atoms: C_16  and  C_17
REMARK    6  A    between atoms: C_17  and  C_18
REMARK                            x       y       z     vdW  Elec       q    Type
REMARK                         _______ _______ _______ _____ _____    ______ ____
ROOT
ATOM      1  C   UNL     1       2.192   5.869  20.138  0.00  0.00    +0.000 C 
ATOM      2  C   UNL     1       1.459   4.649  20.745  0.00  0.00    +0.000 C 
ATOM      3  C   UNL     1       0.929   3.593  19.772  0.00  0.00    +0.000 C 
ATOM      4  C   UNL     1       1.847   3.299  18.596  0.00  0.00    +0.000 C 
ATOM      5  C   UNL     1       2.323   4.587  17.941  0.00  0.00    +0.000 C 
ATOM      6  C   UNL     1       3.082   5.497  18.921  0.00  0.00    +0.000 C 
ENDROOT
BRANCH   1   9
ATOM      7  C   UNL     1       1.369   8.117  20.706  0.00  0.00    +0.000 C 
ATOM      8  O   UNL     1       1.844   8.048  21.834  0.00  0.00    +0.000 OA
ATOM      9  N   UNL     1       1.324   7.026  19.849  0.00  0.00    +0.000 N 
ATOM     10  H   UNL     1       1.231   7.266  18.871  0.00  0.00    +0.000 HD
BRANCH   7  17
ATOM     11  C   UNL     1      -0.326  10.711  22.042  0.00  0.00    +0.000 C 
ATOM     12  C   UNL     1       0.215  10.493  20.681  0.00  0.00    +0.000 A 
ATOM     13  N   UNL     1       0.071  11.470  19.774  0.00  0.00    +0.000 NA
ATOM     14  O   UNL     1       0.749  11.049  18.652  0.00  0.00    +0.000 OA
ATOM     15  C   UNL     1       1.285   9.826  18.880  0.00  0.00    +0.000 A 
ATOM     16  C   UNL     1       2.065   9.241  17.770  0.00  0.00    +0.000 C 
ATOM     17  C   UNL     1       0.954   9.399  20.154  0.00  0.00    +0.000 A 
ENDBRANCH   7  17
ENDBRANCH   1   9
BRANCH   6  18
ATOM     18  C   UNL     1       4.396   4.879  19.452  0.00  0.00    +0.000 C 
BRANCH  18  19
ATOM     19  C   UNL     1       5.642   5.521  18.963  0.00  0.00    +0.000 A 
ATOM     20  C   UNL     1       5.965   6.166  17.787  0.00  0.00    +0.000 A 
ATOM     21  C   UNL     1       7.361   6.398  17.833  0.00  0.00    +0.000 A 
ATOM     22  C   UNL     1       7.791   5.910  19.045  0.00  0.00    +0.000 A 
ATOM     23  O   UNL     1       6.752   5.380  19.740  0.00  0.00    +0.000 OA
ENDBRANCH  18  19
ENDBRANCH   6  18
TORSDOF 4
ENDMDL
MODEL 9
REMARK VINA RESULT:      -7.4      4.127      6.054
REMARK  Name = 
REMARK  6 active torsions:
REMARK  status: ('A' for Active; 'I' for Inactive)
REMARK    1  A    between atoms: C_1  and  C_2
REMARK    2  A    between atoms: C_5  and  C_6
REMARK    3  A    between atoms: C_7  and  C_8
REMARK    4  A    between atoms: N_10  and  C_11
REMARK    5  A    between atoms: C_16  and  C_17
REMARK    6  A    between atoms: C_17  and  C_18
REMARK                            x       y       z     vdW  Elec       q    Type
REMARK                         _______ _______ _______ _____ _____    ______ ____
ROOT
ATOM      1  C   UNL     1       2.129   6.148  20.184  0.00  0.00    +0.000 C 
ATOM      2  C   UNL     1       1.825   4.808  20.897  0.00  0.00    +0.000 C 
ATOM      3  C   UNL     1       1.197   3.694  20.057  0.00  0.00    +0.000 C 
ATOM      4  C   UNL     1       1.741   3.585  18.642  0.00  0.00    +0.000 C 
ATOM      5  C   UNL     1       1.779   4.947  17.965  0.00  0.00    +0.000 C 
ATOM      6  C   UNL     1       2.647   5.957  18.733  0.00  0.00    +0.000 C 
ENDROOT
BRANCH   1   9
ATOM      7  C   UNL     1       1.212   8.255  21.061  0.00  0.00    +0.000 C 
ATOM      8  O   UNL     1       2.064   8.304  21.943  0.00  0.00    +0.000 OA
ATOM      9  N   UNL     1       1.041   7.141  20.252  0.00  0.00    +0.000 N 
ATOM     10  H   UNL     1       0.567   7.327  19.379  0.00  0.00    +0.000 HD
BRANCH   7  17
ATOM     11  C   UNL     1      -0.709  10.302  22.934  0.00  0.00    +0.000 C 
ATOM     12  C   UNL     1      -0.414  10.294  21.483  0.00  0.00    +0.000 A 
ATOM     13  N   UNL     1      -0.945  11.260  20.720  0.00  0.00    +0.000 NA
ATOM     14  O   UNL     1      -0.428  11.073  19.457  0.00  0.00    +0.000 OA
ATOM     15  C   UNL     1       0.396   9.998  19.461  0.00  0.00    +0.000 A 
ATOM     16  C   UNL     1       1.050   9.675  18.176  0.00  0.00    +0.000 C 
ATOM     17  C   UNL     1       0.426   9.434  20.724  0.00  0.00    +0.000 A 
ENDBRANCH   7  17
ENDBRANCH   1   9
BRANCH   6  18
ATOM     18  C   UNL     1       4.142   5.569  18.798  0.00  0.00    +0.000 C 
BRANCH  18  19
ATOM     19  C   UNL     1       4.806   5.380  17.484  0.00  0.00    +0.000 A 
ATOM     20  C   UNL     1       5.033   6.225  16.417  0.00  0.00    +0.000 A 
ATOM     21  C   UNL     1       5.549   5.419  15.374  0.00  0.00    +0.000 A 
ATOM     22  C   UNL     1       5.633   4.143  15.883  0.00  0.00    +0.000 A 
ATOM     23  O   UNL     1       5.188   4.112  17.165  0.00  0.00    +0.000 OA
ENDBRANCH  18  19
ENDBRANCH   6  18
TORSDOF 4
ENDMDL
