MODEL 1
REMARK VINA RESULT:      -6.4      0.000      0.000
REMARK  Name = 
REMARK  8 active torsions:
REMARK  status: ('A' for Active; 'I' for Inactive)
REMARK    1  A    between atoms: C_1  and  O_2
REMARK    2  A    between atoms: O_2  and  C_3
REMARK    3  A    between atoms: N_9  and  O_10
REMARK    4  A    between atoms: O_10  and  C_11
REMARK    5  A    between atoms: C_19  and  O_20
REMARK    6  A    between atoms: C_19  and  C_21
REMARK    7  A    between atoms: C_21  and  C_22
REMARK    8  A    between atoms: C_21  and  O_23
REMARK                            x       y       z     vdW  Elec       q    Type
REMARK                         _______ _______ _______ _____ _____    ______ ____
ROOT
ATOM      1  C   UNL     1      -2.604  10.751  17.109  0.00  0.00    +0.000 A 
ATOM      2  C   UNL     1      -1.470  11.396  17.615  0.00  0.00    +0.000 A 
ATOM      3  C   UNL     1      -1.554  12.221  18.740  0.00  0.00    +0.000 A 
ATOM      4  C   UNL     1      -2.783  12.384  19.365  0.00  0.00    +0.000 A 
ATOM      5  C   UNL     1      -3.910  11.761  18.830  0.00  0.00    +0.000 A 
ATOM      6  C   UNL     1      -3.851  10.933  17.727  0.00  0.00    +0.000 A 
ATOM      7  N   UNL     1      -5.020  12.066  19.585  0.00  0.00    +0.000 N 
ATOM      8  C   UNL     1      -4.714  12.769  20.752  0.00  0.00    +0.000 C 
ATOM      9  O   UNL     1      -5.533  13.059  21.597  0.00  0.00    +0.000 OA
ATOM     10  C   UNL     1      -3.139  12.959  20.790  0.00  0.00    +0.000 C 
ATOM     11  C   UNL     1      -2.552  11.816  21.672  0.00  0.00    +0.000 C 
ATOM     12  C   UNL     1      -2.324  12.181  23.121  0.00  0.00    +0.000 C 
ATOM     13  N   UNL     1      -3.646  12.196  23.710  0.00  0.00    +0.000 NA
ATOM     14  C   UNL     1      -3.863  13.092  24.817  0.00  0.00    +0.000 C 
ATOM     15  C   UNL     1      -3.658  14.581  24.419  0.00  0.00    +0.000 C 
ATOM     16  C   UNL     1      -2.319  14.709  23.591  0.00  0.00    +0.000 C 
ATOM     17  C   UNL     1      -2.495  15.356  22.235  0.00  0.00    +0.000 C 
ATOM     18  C   UNL     1      -2.529  14.403  21.009  0.00  0.00    +0.000 C 
ATOM     19  O   UNL     1      -1.102  14.220  20.858  0.00  0.00    +0.000 OA
ATOM     20  C   UNL     1      -0.490  13.691  22.056  0.00  0.00    +0.000 C 
ATOM     21  C   UNL     1      -1.460  13.444  23.292  0.00  0.00    +0.000 C 
ATOM     22  H   UNL     1      -4.004  11.259  23.894  0.00  0.00    +0.000 HD
ENDROOT
BRANCH   1  24
ATOM     23  C   UNL     1      -3.142  10.398  14.815  0.00  0.00    +0.000 C 
ATOM     24  O   UNL     1      -2.633   9.897  16.043  0.00  0.00    +0.000 OA
ENDBRANCH   1  24
BRANCH   7  25
ATOM     25  O   UNL     1      -6.130  11.200  19.564  0.00  0.00    +0.000 OA
ATOM     26  C   UNL     1      -7.184  11.795  18.830  0.00  0.00    +0.000 C 
ENDBRANCH   7  25
BRANCH  15  27
ATOM     27  O   UNL     1      -3.482  15.345  25.647  0.00  0.00    +0.000 OA
ATOM     28  H   UNL     1      -3.785  16.256  25.494  0.00  0.00    +0.000 HD
ENDBRANCH  15  27
BRANCH  15  29
ATOM     29  C   UNL     1      -4.974  15.192  23.767  0.00  0.00    +0.000 C 
ATOM     30  C   UNL     1      -5.514  16.586  24.144  0.00  0.00    +0.000 C 
BRANCH  29  31
ATOM     31  O   UNL     1      -6.087  14.326  24.078  0.00  0.00    +0.000 OA
ATOM     32  H   UNL     1      -5.764  13.423  23.913  0.00  0.00    +0.000 HD
ENDBRANCH  29  31
ENDBRANCH  15  29
TORSDOF 5
ENDMDL
MODEL 2
REMARK VINA RESULT:      -6.1      1.794      2.329
REMARK  Name = 
REMARK  8 active torsions:
REMARK  status: ('A' for Active; 'I' for Inactive)
REMARK    1  A    between atoms: C_1  and  O_2
REMARK    2  A    between atoms: O_2  and  C_3
REMARK    3  A    between atoms: N_9  and  O_10
REMARK    4  A    between atoms: O_10  and  C_11
REMARK    5  A    between atoms: C_19  and  O_20
REMARK    6  A    between atoms: C_19  and  C_21
REMARK    7  A    between atoms: C_21  and  C_22
REMARK    8  A    between atoms: C_21  and  O_23
REMARK                            x       y       z     vdW  Elec       q    Type
REMARK                         _______ _______ _______ _____ _____    ______ ____
ROOT
ATOM      1  C   UNL     1       0.183  10.560  18.577  0.00  0.00    +0.000 A 
ATOM      2  C   UNL     1       0.780  11.325  19.586  0.00  0.00    +0.000 A 
ATOM      3  C   UNL     1       0.029  12.224  20.346  0.00  0.00    +0.000 A 
ATOM      4  C   UNL     1      -1.333  12.343  20.097  0.00  0.00    +0.000 A 
ATOM      5  C   UNL     1      -1.906  11.598  19.066  0.00  0.00    +0.000 A 
ATOM      6  C   UNL     1      -1.187  10.695  18.309  0.00  0.00    +0.000 A 
ATOM      7  N   UNL     1      -3.252  11.877  18.977  0.00  0.00    +0.000 N 
ATOM      8  C   UNL     1      -3.714  12.688  20.015  0.00  0.00    +0.000 C 
ATOM      9  O   UNL     1      -4.880  12.980  20.172  0.00  0.00    +0.000 OA
ATOM     10  C   UNL     1      -2.479  12.997  20.960  0.00  0.00    +0.000 C 
ATOM     11  C   UNL     1      -2.520  11.972  22.134  0.00  0.00    +0.000 C 
ATOM     12  C   UNL     1      -3.210  12.463  23.386  0.00  0.00    +0.000 C 
ATOM     13  N   UNL     1      -4.621  12.424  23.069  0.00  0.00    +0.000 NA
ATOM     14  C   UNL     1      -5.470  13.384  23.728  0.00  0.00    +0.000 C 
ATOM     15  C   UNL     1      -5.089  14.849  23.375  0.00  0.00    +0.000 C 
ATOM     16  C   UNL     1      -3.522  15.013  23.496  0.00  0.00    +0.000 C 
ATOM     17  C   UNL     1      -2.861  15.539  22.242  0.00  0.00    +0.000 C 
ATOM     18  C   UNL     1      -2.141  14.495  21.345  0.00  0.00    +0.000 C 
ATOM     19  O   UNL     1      -0.905  14.408  22.091  0.00  0.00    +0.000 OA
ATOM     20  C   UNL     1      -1.125  14.019  23.467  0.00  0.00    +0.000 C 
ATOM     21  C   UNL     1      -2.638  13.796  23.902  0.00  0.00    +0.000 C 
ATOM     22  H   UNL     1      -5.006  11.480  23.102  0.00  0.00    +0.000 HD
ENDROOT
BRANCH   1  24
ATOM     23  C   UNL     1       1.816   8.832  18.412  0.00  0.00    +0.000 C 
ATOM     24  O   UNL     1       0.811   9.628  17.800  0.00  0.00    +0.000 OA
ENDBRANCH   1  24
BRANCH   7  25
ATOM     25  O   UNL     1      -4.116  10.931  18.392  0.00  0.00    +0.000 OA
ATOM     26  C   UNL     1      -4.539  11.394  17.124  0.00  0.00    +0.000 C 
ENDBRANCH   7  25
BRANCH  15  27
ATOM     27  O   UNL     1      -5.693  15.715  24.378  0.00  0.00    +0.000 OA
ATOM     28  H   UNL     1      -5.074  16.438  24.580  0.00  0.00    +0.000 HD
ENDBRANCH  15  27
BRANCH  15  29
ATOM     29  C   UNL     1      -5.761  15.308  22.008  0.00  0.00    +0.000 C 
ATOM     30  C   UNL     1      -6.503  16.652  21.862  0.00  0.00    +0.000 C 
BRANCH  29  31
ATOM     31  O   UNL     1      -6.775  14.345  21.647  0.00  0.00    +0.000 OA
ATOM     32  H   UNL     1      -6.468  13.499  22.016  0.00  0.00    +0.000 HD
ENDBRANCH  29  31
ENDBRANCH  15  29
TORSDOF 5
ENDMDL
MODEL 3
REMARK VINA RESULT:      -6.1      8.114     11.120
REMARK  Name = 
REMARK  8 active torsions:
REMARK  status: ('A' for Active; 'I' for Inactive)
REMARK    1  A    between atoms: C_1  and  O_2
REMARK    2  A    between atoms: O_2  and  C_3
REMARK    3  A    between atoms: N_9  and  O_10
REMARK    4  A    between atoms: O_10  and  C_11
REMARK    5  A    between atoms: C_19  and  O_20
REMARK    6  A    between atoms: C_19  and  C_21
REMARK    7  A    between atoms: C_21  and  C_22
REMARK    8  A    between atoms: C_21  and  O_23
REMARK                            x       y       z     vdW  Elec       q    Type
REMARK                         _______ _______ _______ _____ _____    ______ ____
ROOT
ATOM      1  C   UNL     1       1.419  10.121  18.605  0.00  0.00    +0.000 A 
ATOM      2  C   UNL     1       2.337   9.704  17.635  0.00  0.00    +0.000 A 
ATOM      3  C   UNL     1       2.931   8.441  17.703  0.00  0.00    +0.000 A 
ATOM      4  C   UNL     1       2.586   7.590  18.746  0.00  0.00    +0.000 A 
ATOM      5  C   UNL     1       1.694   8.033  19.723  0.00  0.00    +0.000 A 
ATOM      6  C   UNL     1       1.086   9.272  19.671  0.00  0.00    +0.000 A 
ATOM      7  N   UNL     1       1.505   7.050  20.668  0.00  0.00    +0.000 N 
ATOM      8  C   UNL     1       2.112   5.839  20.330  0.00  0.00    +0.000 C 
ATOM      9  O   UNL     1       1.995   4.823  20.980  0.00  0.00    +0.000 OA
ATOM     10  C   UNL     1       2.815   6.040  18.922  0.00  0.00    +0.000 C 
ATOM     11  C   UNL     1       1.833   5.518  17.830  0.00  0.00    +0.000 C 
ATOM     12  C   UNL     1       2.062   4.089  17.396  0.00  0.00    +0.000 C 
ATOM     13  N   UNL     1       1.552   3.287  18.488  0.00  0.00    +0.000 NA
ATOM     14  C   UNL     1       2.170   2.003  18.705  0.00  0.00    +0.000 C 
ATOM     15  C   UNL     1       3.679   2.127  19.058  0.00  0.00    +0.000 C 
ATOM     16  C   UNL     1       4.359   3.135  18.049  0.00  0.00    +0.000 C 
ATOM     17  C   UNL     1       5.079   4.283  18.719  0.00  0.00    +0.000 C 
ATOM     18  C   UNL     1       4.339   5.649  18.745  0.00  0.00    +0.000 C 
ATOM     19  O   UNL     1       4.670   6.080  17.404  0.00  0.00    +0.000 OA
ATOM     20  C   UNL     1       4.227   5.137  16.402  0.00  0.00    +0.000 C 
ATOM     21  C   UNL     1       3.508   3.824  16.941  0.00  0.00    +0.000 C 
ATOM     22  H   UNL     1       0.534   3.232  18.493  0.00  0.00    +0.000 HD
ENDROOT
BRANCH   1  24
ATOM     23  C   UNL     1      -0.557  11.329  19.168  0.00  0.00    +0.000 C 
ATOM     24  O   UNL     1       0.752  11.314  18.618  0.00  0.00    +0.000 OA
ENDBRANCH   1  24
BRANCH   7  25
ATOM     25  O   UNL     1       0.326   7.049  21.437  0.00  0.00    +0.000 OA
ATOM     26  C   UNL     1       0.099   8.343  21.963  0.00  0.00    +0.000 C 
ENDBRANCH   7  25
BRANCH  15  27
ATOM     27  O   UNL     1       4.290   0.822  18.844  0.00  0.00    +0.000 OA
ATOM     28  H   UNL     1       4.765   0.564  19.652  0.00  0.00    +0.000 HD
ENDBRANCH  15  27
BRANCH  15  29
ATOM     29  C   UNL     1       3.888   2.405  20.611  0.00  0.00    +0.000 C 
ATOM     30  C   UNL     1       4.857   1.574  21.476  0.00  0.00    +0.000 C 
BRANCH  29  31
ATOM     31  O   UNL     1       2.625   2.224  21.286  0.00  0.00    +0.000 OA
ATOM     32  H   UNL     1       1.947   2.356  20.601  0.00  0.00    +0.000 HD
ENDBRANCH  29  31
ENDBRANCH  15  29
TORSDOF 5
ENDMDL
MODEL 4
REMARK VINA RESULT:      -5.7      3.808      5.207
REMARK  Name = 
REMARK  8 active torsions:
REMARK  status: ('A' for Active; 'I' for Inactive)
REMARK    1  A    between atoms: C_1  and  O_2
REMARK    2  A    between atoms: O_2  and  C_3
REMARK    3  A    between atoms: N_9  and  O_10
REMARK    4  A    between atoms: O_10  and  C_11
REMARK    5  A    between atoms: C_19  and  O_20
REMARK    6  A    between atoms: C_19  and  C_21
REMARK    7  A    between atoms: C_21  and  C_22
REMARK    8  A    between atoms: C_21  and  O_23
REMARK                            x       y       z     vdW  Elec       q    Type
REMARK                         _______ _______ _______ _____ _____    ______ ____
ROOT
ATOM      1  C   UNL     1       2.366   7.875  18.673  0.00  0.00    +0.000 A 
ATOM      2  C   UNL     1       1.948   8.840  17.749  0.00  0.00    +0.000 A 
ATOM      3  C   UNL     1       1.022   9.823  18.106  0.00  0.00    +0.000 A 
ATOM      4  C   UNL     1       0.526   9.842  19.403  0.00  0.00    +0.000 A 
ATOM      5  C   UNL     1       0.928   8.854  20.303  0.00  0.00    +0.000 A 
ATOM      6  C   UNL     1       1.850   7.880  19.978  0.00  0.00    +0.000 A 
ATOM      7  N   UNL     1       0.309   9.044  21.518  0.00  0.00    +0.000 N 
ATOM      8  C   UNL     1      -0.416  10.236  21.584  0.00  0.00    +0.000 C 
ATOM      9  O   UNL     1      -0.963  10.636  22.589  0.00  0.00    +0.000 OA
ATOM     10  C   UNL     1      -0.248  10.970  20.188  0.00  0.00    +0.000 C 
ATOM     11  C   UNL     1       0.907  12.005  20.339  0.00  0.00    +0.000 C 
ATOM     12  C   UNL     1       0.466  13.410  20.678  0.00  0.00    +0.000 C 
ATOM     13  N   UNL     1       0.097  13.353  22.076  0.00  0.00    +0.000 NA
ATOM     14  C   UNL     1      -0.927  14.262  22.523  0.00  0.00    +0.000 C 
ATOM     15  C   UNL     1      -2.287  14.017  21.809  0.00  0.00    +0.000 C 
ATOM     16  C   UNL     1      -2.030  13.869  20.258  0.00  0.00    +0.000 C 
ATOM     17  C   UNL     1      -2.565  12.585  19.666  0.00  0.00    +0.000 C 
ATOM     18  C   UNL     1      -1.531  11.456  19.399  0.00  0.00    +0.000 C 
ATOM     19  O   UNL     1      -1.018  11.950  18.140  0.00  0.00    +0.000 OA
ATOM     20  C   UNL     1      -0.482  13.288  18.256  0.00  0.00    +0.000 C 
ATOM     21  C   UNL     1      -0.580  13.963  19.693  0.00  0.00    +0.000 C 
ATOM     22  H   UNL     1       0.906  13.346  22.696  0.00  0.00    +0.000 HD
ENDROOT
BRANCH   1  24
ATOM     23  C   UNL     1       3.334   5.808  19.360  0.00  0.00    +0.000 C 
ATOM     24  O   UNL     1       3.291   6.894  18.446  0.00  0.00    +0.000 OA
ENDBRANCH   1  24
BRANCH   7  25
ATOM     25  O   UNL     1       0.901   8.522  22.684  0.00  0.00    +0.000 OA
ATOM     26  C   UNL     1       1.997   9.332  23.065  0.00  0.00    +0.000 C 
ENDBRANCH   7  25
BRANCH  15  27
ATOM     27  O   UNL     1      -3.105  15.207  22.000  0.00  0.00    +0.000 OA
ATOM     28  H   UNL     1      -2.669  15.959  21.564  0.00  0.00    +0.000 HD
ENDBRANCH  15  27
BRANCH  15  29
ATOM     29  C   UNL     1      -3.113  12.858  22.520  0.00  0.00    +0.000 C 
ATOM     30  C   UNL     1      -4.607  13.005  22.876  0.00  0.00    +0.000 C 
BRANCH  29  31
ATOM     31  O   UNL     1      -2.508  12.580  23.801  0.00  0.00    +0.000 OA
ATOM     32  H   UNL     1      -2.116  11.694  23.714  0.00  0.00    +0.000 HD
ENDBRANCH  29  31
ENDBRANCH  15  29
TORSDOF 5
ENDMDL
MODEL 5
REMARK VINA RESULT:      -5.6      4.139      7.247
REMARK  Name = 
REMARK  8 active torsions:
REMARK  status: ('A' for Active; 'I' for Inactive)
REMARK    1  A    between atoms: C_1  and  O_2
REMARK    2  A    between atoms: O_2  and  C_3
REMARK    3  A    between atoms: N_9  and  O_10
REMARK    4  A    between atoms: O_10  and  C_11
REMARK    5  A    between atoms: C_19  and  O_20
REMARK    6  A    between atoms: C_19  and  C_21
REMARK    7  A    between atoms: C_21  and  C_22
REMARK    8  A    between atoms: C_21  and  O_23
REMARK                            x       y       z     vdW  Elec       q    Type
REMARK                         _______ _______ _______ _____ _____    ______ ____
ROOT
ATOM      1  C   UNL     1      -2.707  12.800  22.769  0.00  0.00    +0.000 A 
ATOM      2  C   UNL     1      -1.963  13.696  23.545  0.00  0.00    +0.000 A 
ATOM      3  C   UNL     1      -0.768  14.240  23.067  0.00  0.00    +0.000 A 
ATOM      4  C   UNL     1      -0.328  13.888  21.797  0.00  0.00    +0.000 A 
ATOM      5  C   UNL     1      -1.064  12.968  21.050  0.00  0.00    +0.000 A 
ATOM      6  C   UNL     1      -2.253  12.427  21.495  0.00  0.00    +0.000 A 
ATOM      7  N   UNL     1      -0.449  12.748  19.838  0.00  0.00    +0.000 N 
ATOM      8  C   UNL     1       0.635  13.597  19.610  0.00  0.00    +0.000 C 
ATOM      9  O   UNL     1       1.260  13.628  18.571  0.00  0.00    +0.000 OA
ATOM     10  C   UNL     1       0.762  14.551  20.871  0.00  0.00    +0.000 C 
ATOM     11  C   UNL     1       0.023  15.880  20.529  0.00  0.00    +0.000 C 
ATOM     12  C   UNL     1       0.905  16.982  19.990  0.00  0.00    +0.000 C 
ATOM     13  N   UNL     1       1.197  16.587  18.629  0.00  0.00    +0.000 NA
ATOM     14  C   UNL     1       2.458  17.015  18.076  0.00  0.00    +0.000 C 
ATOM     15  C   UNL     1       3.671  16.438  18.858  0.00  0.00    +0.000 C 
ATOM     16  C   UNL     1       3.419  16.627  20.406  0.00  0.00    +0.000 C 
ATOM     17  C   UNL     1       3.502  15.346  21.204  0.00  0.00    +0.000 C 
ATOM     18  C   UNL     1       2.154  14.690  21.612  0.00  0.00    +0.000 C 
ATOM     19  O   UNL     1       1.871  15.517  22.764  0.00  0.00    +0.000 OA
ATOM     20  C   UNL     1       1.817  16.922  22.428  0.00  0.00    +0.000 C 
ATOM     21  C   UNL     1       2.102  17.293  20.907  0.00  0.00    +0.000 C 
ATOM     22  H   UNL     1       0.418  16.760  17.994  0.00  0.00    +0.000 HD
ENDROOT
BRANCH   1  24
ATOM     23  C   UNL     1      -4.332  12.391  24.464  0.00  0.00    +0.000 C 
ATOM     24  O   UNL     1      -3.903  12.238  23.118  0.00  0.00    +0.000 OA
ENDBRANCH   1  24
BRANCH   7  25
ATOM     25  O   UNL     1      -1.212  12.282  18.750  0.00  0.00    +0.000 OA
ATOM     26  C   UNL     1      -0.930  10.915  18.522  0.00  0.00    +0.000 C 
ENDBRANCH   7  25
BRANCH  15  27
ATOM     27  O   UNL     1       4.839  17.235  18.510  0.00  0.00    +0.000 OA
ATOM     28  H   UNL     1       5.589  16.637  18.347  0.00  0.00    +0.000 HD
ENDBRANCH  15  27
BRANCH  15  29
ATOM     29  C   UNL     1       4.037  14.972  18.358  0.00  0.00    +0.000 C 
ATOM     30  C   UNL     1       5.474  14.563  17.977  0.00  0.00    +0.000 C 
BRANCH  29  31
ATOM     31  O   UNL     1       3.298  14.700  17.148  0.00  0.00    +0.000 OA
ATOM     32  H   UNL     1       2.829  13.865  17.316  0.00  0.00    +0.000 HD
ENDBRANCH  29  31
ENDBRANCH  15  29
TORSDOF 5
ENDMDL
MODEL 6
REMARK VINA RESULT:      -5.6      4.133      5.363
REMARK  Name = 
REMARK  8 active torsions:
REMARK  status: ('A' for Active; 'I' for Inactive)
REMARK    1  A    between atoms: C_1  and  O_2
REMARK    2  A    between atoms: O_2  and  C_3
REMARK    3  A    between atoms: N_9  and  O_10
REMARK    4  A    between atoms: O_10  and  C_11
REMARK    5  A    between atoms: C_19  and  O_20
REMARK    6  A    between atoms: C_19  and  C_21
REMARK    7  A    between atoms: C_21  and  C_22
REMARK    8  A    between atoms: C_21  and  O_23
REMARK                            x       y       z     vdW  Elec       q    Type
REMARK                         _______ _______ _______ _____ _____    ______ ____
ROOT
ATOM      1  C   UNL     1       1.844   8.557  18.824  0.00  0.00    +0.000 A 
ATOM      2  C   UNL     1       1.914   9.592  17.884  0.00  0.00    +0.000 A 
ATOM      3  C   UNL     1       1.494  10.885  18.205  0.00  0.00    +0.000 A 
ATOM      4  C   UNL     1       1.014  11.139  19.483  0.00  0.00    +0.000 A 
ATOM      5  C   UNL     1       0.919  10.090  20.398  0.00  0.00    +0.000 A 
ATOM      6  C   UNL     1       1.339   8.807  20.109  0.00  0.00    +0.000 A 
ATOM      7  N   UNL     1       0.405  10.551  21.589  0.00  0.00    +0.000 N 
ATOM      8  C   UNL     1       0.266  11.940  21.627  0.00  0.00    +0.000 C 
ATOM      9  O   UNL     1      -0.086  12.554  22.611  0.00  0.00    +0.000 OA
ATOM     10  C   UNL     1       0.779  12.504  20.236  0.00  0.00    +0.000 C 
ATOM     11  C   UNL     1       2.263  12.940  20.428  0.00  0.00    +0.000 C 
ATOM     12  C   UNL     1       2.463  14.404  20.748  0.00  0.00    +0.000 C 
ATOM     13  N   UNL     1       2.061  14.536  22.132  0.00  0.00    +0.000 NA
ATOM     14  C   UNL     1       1.517  15.807  22.540  0.00  0.00    +0.000 C 
ATOM     15  C   UNL     1       0.209  16.162  21.777  0.00  0.00    +0.000 C 
ATOM     16  C   UNL     1       0.427  15.889  20.236  0.00  0.00    +0.000 C 
ATOM     17  C   UNL     1      -0.593  14.953  19.627  0.00  0.00    +0.000 C 
ATOM     18  C   UNL     1      -0.141  13.484  19.400  0.00  0.00    +0.000 C 
ATOM     19  O   UNL     1       0.576  13.685  18.160  0.00  0.00    +0.000 OA
ATOM     20  C   UNL     1       1.634  14.661  18.294  0.00  0.00    +0.000 C 
ATOM     21  C   UNL     1       1.792  15.338  19.725  0.00  0.00    +0.000 C 
ATOM     22  H   UNL     1       2.767  14.191  22.781  0.00  0.00    +0.000 HD
ENDROOT
BRANCH   1  24
ATOM     23  C   UNL     1       2.394   6.446  19.781  0.00  0.00    +0.000 C 
ATOM     24  O   UNL     1       2.259   7.270  18.632  0.00  0.00    +0.000 OA
ENDBRANCH   1  24
BRANCH   7  25
ATOM     25  O   UNL     1       0.674   9.844  22.777  0.00  0.00    +0.000 OA
ATOM     26  C   UNL     1      -0.537   9.366  23.331  0.00  0.00    +0.000 C 
ENDBRANCH   7  25
BRANCH  15  27
ATOM     27  O   UNL     1      -0.019  17.591  21.935  0.00  0.00    +0.000 OA
ATOM     28  H   UNL     1       0.410  17.887  22.757  0.00  0.00    +0.000 HD
ENDBRANCH  15  27
BRANCH  15  29
ATOM     29  C   UNL     1      -1.059  15.486  22.459  0.00  0.00    +0.000 C 
ATOM     30  C   UNL     1      -2.340  16.280  22.792  0.00  0.00    +0.000 C 
BRANCH  29  31
ATOM     31  O   UNL     1      -0.666  14.964  23.746  0.00  0.00    +0.000 OA
ATOM     32  H   UNL     1      -0.612  15.738  24.333  0.00  0.00    +0.000 HD
ENDBRANCH  29  31
ENDBRANCH  15  29
TORSDOF 5
ENDMDL
MODEL 7
REMARK VINA RESULT:      -5.5      3.396      5.190
REMARK  Name = 
REMARK  8 active torsions:
REMARK  status: ('A' for Active; 'I' for Inactive)
REMARK    1  A    between atoms: C_1  and  O_2
REMARK    2  A    between atoms: O_2  and  C_3
REMARK    3  A    between atoms: N_9  and  O_10
REMARK    4  A    between atoms: O_10  and  C_11
REMARK    5  A    between atoms: C_19  and  O_20
REMARK    6  A    between atoms: C_19  and  C_21
REMARK    7  A    between atoms: C_21  and  C_22
REMARK    8  A    between atoms: C_21  and  O_23
REMARK                            x       y       z     vdW  Elec       q    Type
REMARK                         _______ _______ _______ _____ _____    ______ ____
ROOT
ATOM      1  C   UNL     1       3.227  14.983  18.318  0.00  0.00    +0.000 A 
ATOM      2  C   UNL     1       3.274  13.847  19.133  0.00  0.00    +0.000 A 
ATOM      3  C   UNL     1       2.210  13.525  19.980  0.00  0.00    +0.000 A 
ATOM      4  C   UNL     1       1.088  14.344  19.993  0.00  0.00    +0.000 A 
ATOM      5  C   UNL     1       1.070  15.490  19.198  0.00  0.00    +0.000 A 
ATOM      6  C   UNL     1       2.104  15.824  18.346  0.00  0.00    +0.000 A 
ATOM      7  N   UNL     1      -0.117  16.165  19.373  0.00  0.00    +0.000 N 
ATOM      8  C   UNL     1      -1.037  15.464  20.156  0.00  0.00    +0.000 C 
ATOM      9  O   UNL     1      -2.171  15.840  20.360  0.00  0.00    +0.000 OA
ATOM     10  C   UNL     1      -0.359  14.090  20.565  0.00  0.00    +0.000 C 
ATOM     11  C   UNL     1      -0.841  13.010  19.550  0.00  0.00    +0.000 C 
ATOM     12  C   UNL     1      -2.037  12.201  19.997  0.00  0.00    +0.000 C 
ATOM     13  N   UNL     1      -3.163  13.097  19.849  0.00  0.00    +0.000 NA
ATOM     14  C   UNL     1      -4.275  12.910  20.747  0.00  0.00    +0.000 C 
ATOM     15  C   UNL     1      -3.873  13.122  22.234  0.00  0.00    +0.000 C 
ATOM     16  C   UNL     1      -2.530  12.341  22.517  0.00  0.00    +0.000 C 
ATOM     17  C   UNL     1      -1.424  13.204  23.081  0.00  0.00    +0.000 C 
ATOM     18  C   UNL     1      -0.319  13.658  22.087  0.00  0.00    +0.000 C 
ATOM     19  O   UNL     1       0.471  12.447  22.101  0.00  0.00    +0.000 OA
ATOM     20  C   UNL     1      -0.300  11.288  21.708  0.00  0.00    +0.000 C 
ATOM     21  C   UNL     1      -1.834  11.543  21.374  0.00  0.00    +0.000 C 
ATOM     22  H   UNL     1      -3.462  13.195  18.879  0.00  0.00    +0.000 HD
ENDROOT
BRANCH   1  24
ATOM     23  C   UNL     1       5.542  15.104  17.766  0.00  0.00    +0.000 C 
ATOM     24  O   UNL     1       4.189  15.373  17.429  0.00  0.00    +0.000 OA
ENDBRANCH   1  24
BRANCH   7  25
ATOM     25  O   UNL     1      -0.578  17.028  18.360  0.00  0.00    +0.000 OA
ATOM     26  C   UNL     1      -0.464  18.371  18.791  0.00  0.00    +0.000 C 
ENDBRANCH   7  25
BRANCH  15  27
ATOM     27  O   UNL     1      -4.909  12.516  23.060  0.00  0.00    +0.000 OA
ATOM     28  H   UNL     1      -5.284  11.757  22.582  0.00  0.00    +0.000 HD
ENDBRANCH  15  27
BRANCH  15  29
ATOM     29  C   UNL     1      -3.912  14.663  22.629  0.00  0.00    +0.000 C 
ATOM     30  C   UNL     1      -4.595  15.170  23.916  0.00  0.00    +0.000 C 
BRANCH  29  31
ATOM     31  O   UNL     1      -4.610  15.387  21.593  0.00  0.00    +0.000 OA
ATOM     32  H   UNL     1      -5.470  14.942  21.504  0.00  0.00    +0.000 HD
ENDBRANCH  29  31
ENDBRANCH  15  29
TORSDOF 5
ENDMDL
MODEL 8
REMARK VINA RESULT:      -5.5      3.129      4.641
REMARK  Name = 
REMARK  8 active torsions:
REMARK  status: ('A' for Active; 'I' for Inactive)
REMARK    1  A    between atoms: C_1  and  O_2
REMARK    2  A    between atoms: O_2  and  C_3
REMARK    3  A    between atoms: N_9  and  O_10
REMARK    4  A    between atoms: O_10  and  C_11
REMARK    5  A    between atoms: C_19  and  O_20
REMARK    6  A    between atoms: C_19  and  C_21
REMARK    7  A    between atoms: C_21  and  C_22
REMARK    8  A    between atoms: C_21  and  O_23
REMARK                            x       y       z     vdW  Elec       q    Type
REMARK                         _______ _______ _______ _____ _____    ______ ____
ROOT
ATOM      1  C   UNL     1       1.157   9.248  19.846  0.00  0.00    +0.000 A 
ATOM      2  C   UNL     1       0.395   9.083  21.008  0.00  0.00    +0.000 A 
ATOM      3  C   UNL     1      -0.204  10.178  21.635  0.00  0.00    +0.000 A 
ATOM      4  C   UNL     1      -0.044  11.442  21.082  0.00  0.00    +0.000 A 
ATOM      5  C   UNL     1       0.746  11.594  19.942  0.00  0.00    +0.000 A 
ATOM      6  C   UNL     1       1.338  10.526  19.298  0.00  0.00    +0.000 A 
ATOM      7  N   UNL     1       0.787  12.919  19.571  0.00  0.00    +0.000 N 
ATOM      8  C   UNL     1      -0.078  13.725  20.315  0.00  0.00    +0.000 C 
ATOM      9  O   UNL     1      -0.259  14.902  20.092  0.00  0.00    +0.000 OA
ATOM     10  C   UNL     1      -0.829  12.784  21.347  0.00  0.00    +0.000 C 
ATOM     11  C   UNL     1      -2.201  12.397  20.715  0.00  0.00    +0.000 C 
ATOM     12  C   UNL     1      -3.364  13.269  21.131  0.00  0.00    +0.000 C 
ATOM     13  N   UNL     1      -3.176  14.505  20.403  0.00  0.00    +0.000 NA
ATOM     14  C   UNL     1      -3.672  15.711  21.016  0.00  0.00    +0.000 C 
ATOM     15  C   UNL     1      -2.972  16.014  22.372  0.00  0.00    +0.000 C 
ATOM     16  C   UNL     1      -2.928  14.688  23.231  0.00  0.00    +0.000 C 
ATOM     17  C   UNL     1      -1.541  14.295  23.684  0.00  0.00    +0.000 C 
ATOM     18  C   UNL     1      -0.843  13.160  22.885  0.00  0.00    +0.000 C 
ATOM     19  O   UNL     1      -1.489  12.037  23.528  0.00  0.00    +0.000 OA
ATOM     20  C   UNL     1      -2.930  12.099  23.416  0.00  0.00    +0.000 C 
ATOM     21  C   UNL     1      -3.523  13.366  22.659  0.00  0.00    +0.000 C 
ATOM     22  H   UNL     1      -3.449  14.429  19.423  0.00  0.00    +0.000 HD
ENDROOT
BRANCH   1  24
ATOM     23  C   UNL     1       2.186   8.552  17.812  0.00  0.00    +0.000 C 
ATOM     24  O   UNL     1       1.755   8.248  19.131  0.00  0.00    +0.000 OA
ENDBRANCH   1  24
BRANCH   7  25
ATOM     25  O   UNL     1       1.077  13.254  18.235  0.00  0.00    +0.000 OA
ATOM     26  C   UNL     1       2.397  13.754  18.145  0.00  0.00    +0.000 C 
ENDBRANCH   7  25
BRANCH  15  27
ATOM     27  O   UNL     1      -3.803  16.969  23.093  0.00  0.00    +0.000 OA
ATOM     28  H   UNL     1      -4.735  16.711  22.991  0.00  0.00    +0.000 HD
ENDBRANCH  15  27
BRANCH  15  29
ATOM     29  C   UNL     1      -1.596  16.781  22.154  0.00  0.00    +0.000 C 
ATOM     30  C   UNL     1      -1.207  18.031  22.970  0.00  0.00    +0.000 C 
BRANCH  29  31
ATOM     31  O   UNL     1      -1.546  17.262  20.794  0.00  0.00    +0.000 OA
ATOM     32  H   UNL     1      -0.817  16.772  20.374  0.00  0.00    +0.000 HD
ENDBRANCH  29  31
ENDBRANCH  15  29
TORSDOF 5
ENDMDL
MODEL 9
REMARK VINA RESULT:      -5.5      2.224      5.989
REMARK  Name = 
REMARK  8 active torsions:
REMARK  status: ('A' for Active; 'I' for Inactive)
REMARK    1  A    between atoms: C_1  and  O_2
REMARK    2  A    between atoms: O_2  and  C_3
REMARK    3  A    between atoms: N_9  and  O_10
REMARK    4  A    between atoms: O_10  and  C_11
REMARK    5  A    between atoms: C_19  and  O_20
REMARK    6  A    between atoms: C_19  and  C_21
REMARK    7  A    between atoms: C_21  and  C_22
REMARK    8  A    between atoms: C_21  and  O_23
REMARK                            x       y       z     vdW  Elec       q    Type
REMARK                         _______ _______ _______ _____ _____    ______ ____
ROOT
ATOM      1  C   UNL     1      -6.471  13.847  22.640  0.00  0.00    +0.000 A 
ATOM      2  C   UNL     1      -5.354  14.037  23.461  0.00  0.00    +0.000 A 
ATOM      3  C   UNL     1      -4.084  13.618  23.055  0.00  0.00    +0.000 A 
ATOM      4  C   UNL     1      -3.939  13.017  21.811  0.00  0.00    +0.000 A 
ATOM      5  C   UNL     1      -5.068  12.805  21.019  0.00  0.00    +0.000 A 
ATOM      6  C   UNL     1      -6.330  13.221  21.392  0.00  0.00    +0.000 A 
ATOM      7  N   UNL     1      -4.708  12.184  19.844  0.00  0.00    +0.000 N 
ATOM      8  C   UNL     1      -3.325  12.075  19.682  0.00  0.00    +0.000 C 
ATOM      9  O   UNL     1      -2.797  11.640  18.682  0.00  0.00    +0.000 OA
ATOM     10  C   UNL     1      -2.646  12.740  20.953  0.00  0.00    +0.000 C 
ATOM     11  C   UNL     1      -2.281  14.207  20.573  0.00  0.00    +0.000 C 
ATOM     12  C   UNL     1      -0.863  14.408  20.091  0.00  0.00    +0.000 C 
ATOM     13  N   UNL     1      -0.852  13.871  18.747  0.00  0.00    +0.000 NA
ATOM     14  C   UNL     1       0.391  13.320  18.270  0.00  0.00    +0.000 C 
ATOM     15  C   UNL     1       0.862  12.105  19.119  0.00  0.00    +0.000 C 
ATOM     16  C   UNL     1       0.733  12.471  20.650  0.00  0.00    +0.000 C 
ATOM     17  C   UNL     1      -0.105  11.496  21.447  0.00  0.00    +0.000 C 
ATOM     18  C   UNL     1      -1.559  11.933  21.773  0.00  0.00    +0.000 C 
ATOM     19  O   UNL     1      -1.264  12.776  22.911  0.00  0.00    +0.000 OA
ATOM     20  C   UNL     1      -0.341  13.839  22.577  0.00  0.00    +0.000 C 
ATOM     21  C   UNL     1       0.188  13.867  21.077  0.00  0.00    +0.000 C 
ATOM     22  H   UNL     1      -1.281  14.500  18.069  0.00  0.00    +0.000 HD
ENDROOT
BRANCH   1  24
ATOM     23  C   UNL     1      -7.913  15.348  23.802  0.00  0.00    +0.000 C 
ATOM     24  O   UNL     1      -7.748  14.249  22.917  0.00  0.00    +0.000 OA
ENDBRANCH   1  24
BRANCH   7  25
ATOM     25  O   UNL     1      -5.534  12.314  18.712  0.00  0.00    +0.000 OA
ATOM     26  C   UNL     1      -6.298  11.135  18.543  0.00  0.00    +0.000 C 
ENDBRANCH   7  25
BRANCH  15  27
ATOM     27  O   UNL     1       2.277  11.896  18.842  0.00  0.00    +0.000 OA
ATOM     28  H   UNL     1       2.649  11.321  19.533  0.00  0.00    +0.000 HD
ENDBRANCH  15  27
BRANCH  15  29
ATOM     29  C   UNL     1       0.168  10.758  18.635  0.00  0.00    +0.000 C 
ATOM     30  C   UNL     1       0.977   9.513  18.218  0.00  0.00    +0.000 C 
BRANCH  29  31
ATOM     31  O   UNL     1      -0.612  11.040  17.453  0.00  0.00    +0.000 OA
ATOM     32  H   UNL     1      -0.145  10.596  16.725  0.00  0.00    +0.000 HD
ENDBRANCH  29  31
ENDBRANCH  15  29
TORSDOF 5
ENDMDL
