MODEL 1
REMARK VINA RESULT:      -8.2      0.000      0.000
REMARK  Name = 
REMARK  7 active torsions:
REMARK  status: ('A' for Active; 'I' for Inactive)
REMARK    1  A    between atoms: C_1  and  C_2
REMARK    2  A    between atoms: C_2  and  N_3
REMARK    3  A    between atoms: N_16  and  C_17
REMARK    4  A    between atoms: C_17  and  C_18
REMARK    5  A    between atoms: C_21  and  C_22
REMARK    6  A    between atoms: C_22  and  C_23
REMARK    7  A    between atoms: C_22  and  C_24
REMARK                            x       y       z     vdW  Elec       q    Type
REMARK                         _______ _______ _______ _____ _____    ______ ____
ROOT
ATOM      1  N   UNL     1      -6.593  11.855  17.361  0.00  0.00    +0.000 N 
ATOM      2  C   UNL     1      -5.293  11.745  17.835  0.00  0.00    +0.000 A 
ATOM      3  N   UNL     1      -4.936  12.347  18.971  0.00  0.00    +0.000 NA
ATOM      4  C   UNL     1      -3.683  12.148  19.409  0.00  0.00    +0.000 A 
ATOM      5  N   UNL     1      -3.393  12.815  20.604  0.00  0.00    +0.000 N 
ATOM      6  C   UNL     1      -2.743  11.360  18.729  0.00  0.00    +0.000 A 
ATOM      7  C   UNL     1      -3.223  10.803  17.537  0.00  0.00    +0.000 A 
ATOM      8  C   UNL     1      -2.377  10.016  16.774  0.00  0.00    +0.000 A 
ATOM      9  C   UNL     1      -1.053   9.742  17.141  0.00  0.00    +0.000 A 
ATOM     10  C   UNL     1      -0.578  10.279  18.343  0.00  0.00    +0.000 A 
ATOM     11  C   UNL     1      -1.390  11.091  19.148  0.00  0.00    +0.000 A 
ATOM     12  C   UNL     1      -0.584  11.482  20.259  0.00  0.00    +0.000 A 
ATOM     13  C   UNL     1       0.650  10.892  20.132  0.00  0.00    +0.000 A 
ATOM     14  N   UNL     1       0.656  10.177  18.962  0.00  0.00    +0.000 N 
ATOM     15  N   UNL     1      -4.471  10.995  17.095  0.00  0.00    +0.000 NA
ATOM     16  H   UNL     1      -6.561  11.637  16.372  0.00  0.00    +0.000 HD
ATOM     17  H   UNL     1      -4.254  13.273  20.896  0.00  0.00    +0.000 HD
ATOM     18  H   UNL     1      -3.069  12.159  21.304  0.00  0.00    +0.000 HD
ENDROOT
BRANCH   1  20
ATOM     19  C   UNL     1      -7.071  14.131  16.675  0.00  0.00    +0.000 C 
ATOM     20  C   UNL     1      -7.300  13.065  17.734  0.00  0.00    +0.000 C 
ENDBRANCH   1  20
BRANCH  14  21
ATOM     21  C   UNL     1       1.871   9.601  18.387  0.00  0.00    +0.000 C 
BRANCH  21  22
ATOM     22  C   UNL     1       2.143   8.166  18.774  0.00  0.00    +0.000 A 
ATOM     23  C   UNL     1       1.862   7.691  20.059  0.00  0.00    +0.000 A 
ATOM     24  C   UNL     1       1.894   6.321  20.341  0.00  0.00    +0.000 A 
ATOM     25  C   UNL     1       2.212   5.387  19.347  0.00  0.00    +0.000 A 
ATOM     26  C   UNL     1       2.580   5.866  18.083  0.00  0.00    +0.000 A 
ATOM     27  C   UNL     1       2.542   7.237  17.799  0.00  0.00    +0.000 A 
BRANCH  25  28
ATOM     28  C   UNL     1       2.093   3.902  19.647  0.00  0.00    +0.000 C 
ATOM     29  C   UNL     1       3.450   3.298  20.031  0.00  0.00    +0.000 C 
ATOM     30  C   UNL     1       1.047   3.604  20.720  0.00  0.00    +0.000 C 
ENDBRANCH  25  28
ENDBRANCH  21  22
ENDBRANCH  14  21
TORSDOF 4
ENDMDL
MODEL 2
REMARK VINA RESULT:      -8.0      2.764      8.816
REMARK  Name = 
REMARK  7 active torsions:
REMARK  status: ('A' for Active; 'I' for Inactive)
REMARK    1  A    between atoms: C_1  and  C_2
REMARK    2  A    between atoms: C_2  and  N_3
REMARK    3  A    between atoms: N_16  and  C_17
REMARK    4  A    between atoms: C_17  and  C_18
REMARK    5  A    between atoms: C_21  and  C_22
REMARK    6  A    between atoms: C_22  and  C_23
REMARK    7  A    between atoms: C_22  and  C_24
REMARK                            x       y       z     vdW  Elec       q    Type
REMARK                         _______ _______ _______ _____ _____    ______ ____
ROOT
ATOM      1  N   UNL     1       4.465   3.483  17.836  0.00  0.00    +0.000 N 
ATOM      2  C   UNL     1       3.731   4.509  18.414  0.00  0.00    +0.000 A 
ATOM      3  N   UNL     1       3.337   4.424  19.687  0.00  0.00    +0.000 NA
ATOM      4  C   UNL     1       2.688   5.477  20.205  0.00  0.00    +0.000 A 
ATOM      5  N   UNL     1       2.311   5.303  21.541  0.00  0.00    +0.000 N 
ATOM      6  C   UNL     1       2.397   6.641  19.477  0.00  0.00    +0.000 A 
ATOM      7  C   UNL     1       2.835   6.604  18.148  0.00  0.00    +0.000 A 
ATOM      8  C   UNL     1       2.591   7.694  17.329  0.00  0.00    +0.000 A 
ATOM      9  C   UNL     1       1.926   8.845  17.770  0.00  0.00    +0.000 A 
ATOM     10  C   UNL     1       1.508   8.893  19.105  0.00  0.00    +0.000 A 
ATOM     11  C   UNL     1       1.720   7.813  19.973  0.00  0.00    +0.000 A 
ATOM     12  C   UNL     1       1.146   8.189  21.224  0.00  0.00    +0.000 A 
ATOM     13  C   UNL     1       0.642   9.461  21.108  0.00  0.00    +0.000 A 
ATOM     14  N   UNL     1       0.848   9.880  19.818  0.00  0.00    +0.000 N 
ATOM     15  N   UNL     1       3.485   5.558  17.624  0.00  0.00    +0.000 NA
ATOM     16  H   UNL     1       4.361   3.581  16.834  0.00  0.00    +0.000 HD
ATOM     17  H   UNL     1       2.679   4.398  21.830  0.00  0.00    +0.000 HD
ATOM     18  H   UNL     1       2.684   6.051  22.112  0.00  0.00    +0.000 HD
ENDROOT
BRANCH   1  20
ATOM     19  C   UNL     1       2.775   1.784  18.208  0.00  0.00    +0.000 C 
ATOM     20  C   UNL     1       4.238   2.159  18.384  0.00  0.00    +0.000 C 
ENDBRANCH   1  20
BRANCH  14  21
ATOM     21  C   UNL     1       0.246  11.093  19.268  0.00  0.00    +0.000 C 
BRANCH  21  22
ATOM     22  C   UNL     1      -1.236  11.001  18.988  0.00  0.00    +0.000 A 
ATOM     23  C   UNL     1      -2.130  11.969  19.460  0.00  0.00    +0.000 A 
ATOM     24  C   UNL     1      -3.452  12.006  19.006  0.00  0.00    +0.000 A 
ATOM     25  C   UNL     1      -3.921  11.076  18.069  0.00  0.00    +0.000 A 
ATOM     26  C   UNL     1      -3.054  10.053  17.663  0.00  0.00    +0.000 A 
ATOM     27  C   UNL     1      -1.728  10.019  18.113  0.00  0.00    +0.000 A 
BRANCH  25  28
ATOM     28  C   UNL     1      -5.315  11.234  17.487  0.00  0.00    +0.000 C 
ATOM     29  C   UNL     1      -6.380  10.631  18.410  0.00  0.00    +0.000 C 
ATOM     30  C   UNL     1      -5.648  12.688  17.156  0.00  0.00    +0.000 C 
ENDBRANCH  25  28
ENDBRANCH  21  22
ENDBRANCH  14  21
TORSDOF 4
ENDMDL
MODEL 3
REMARK VINA RESULT:      -7.9      3.029      4.664
REMARK  Name = 
REMARK  7 active torsions:
REMARK  status: ('A' for Active; 'I' for Inactive)
REMARK    1  A    between atoms: C_1  and  C_2
REMARK    2  A    between atoms: C_2  and  N_3
REMARK    3  A    between atoms: N_16  and  C_17
REMARK    4  A    between atoms: C_17  and  C_18
REMARK    5  A    between atoms: C_21  and  C_22
REMARK    6  A    between atoms: C_22  and  C_23
REMARK    7  A    between atoms: C_22  and  C_24
REMARK                            x       y       z     vdW  Elec       q    Type
REMARK                         _______ _______ _______ _____ _____    ______ ____
ROOT
ATOM      1  N   UNL     1      -2.379  13.295  22.363  0.00  0.00    +0.000 N 
ATOM      2  C   UNL     1      -1.669  12.425  21.547  0.00  0.00    +0.000 A 
ATOM      3  N   UNL     1      -1.571  12.657  20.236  0.00  0.00    +0.000 NA
ATOM      4  C   UNL     1      -0.817  11.815  19.513  0.00  0.00    +0.000 A 
ATOM      5  N   UNL     1      -0.771  12.132  18.151  0.00  0.00    +0.000 N 
ATOM      6  C   UNL     1      -0.148  10.711  20.062  0.00  0.00    +0.000 A 
ATOM      7  C   UNL     1      -0.347  10.554  21.439  0.00  0.00    +0.000 A 
ATOM      8  C   UNL     1       0.255   9.488  22.088  0.00  0.00    +0.000 A 
ATOM      9  C   UNL     1       1.064   8.554  21.429  0.00  0.00    +0.000 A 
ATOM     10  C   UNL     1       1.283   8.723  20.056  0.00  0.00    +0.000 A 
ATOM     11  C   UNL     1       0.688   9.778  19.350  0.00  0.00    +0.000 A 
ATOM     12  C   UNL     1       1.095   9.626  17.991  0.00  0.00    +0.000 A 
ATOM     13  C   UNL     1       1.929   8.537  17.905  0.00  0.00    +0.000 A 
ATOM     14  N   UNL     1       2.028   7.982  19.155  0.00  0.00    +0.000 N 
ATOM     15  N   UNL     1      -1.096  11.390  22.168  0.00  0.00    +0.000 NA
ATOM     16  H   UNL     1      -2.612  12.778  23.203  0.00  0.00    +0.000 HD
ATOM     17  H   UNL     1      -1.303  12.992  18.035  0.00  0.00    +0.000 HD
ATOM     18  H   UNL     1       0.189  12.249  17.850  0.00  0.00    +0.000 HD
ENDROOT
BRANCH   1  20
ATOM     19  C   UNL     1      -3.443  15.466  22.183  0.00  0.00    +0.000 C 
ATOM     20  C   UNL     1      -3.462  14.016  21.724  0.00  0.00    +0.000 C 
ENDBRANCH   1  20
BRANCH  14  21
ATOM     21  C   UNL     1       2.650   6.682  19.402  0.00  0.00    +0.000 C 
BRANCH  21  22
ATOM     22  C   UNL     1       3.339   6.065  18.207  0.00  0.00    +0.000 A 
ATOM     23  C   UNL     1       4.301   6.769  17.476  0.00  0.00    +0.000 A 
ATOM     24  C   UNL     1       5.098   6.120  16.526  0.00  0.00    +0.000 A 
ATOM     25  C   UNL     1       4.952   4.750  16.278  0.00  0.00    +0.000 A 
ATOM     26  C   UNL     1       3.929   4.062  16.944  0.00  0.00    +0.000 A 
ATOM     27  C   UNL     1       3.136   4.710  17.899  0.00  0.00    +0.000 A 
BRANCH  25  28
ATOM     28  C   UNL     1       5.929   4.047  15.351  0.00  0.00    +0.000 C 
ATOM     29  C   UNL     1       5.435   4.064  13.899  0.00  0.00    +0.000 C 
ATOM     30  C   UNL     1       7.342   4.621  15.447  0.00  0.00    +0.000 C 
ENDBRANCH  25  28
ENDBRANCH  21  22
ENDBRANCH  14  21
TORSDOF 4
ENDMDL
MODEL 4
REMARK VINA RESULT:      -7.8      0.701      1.161
REMARK  Name = 
REMARK  7 active torsions:
REMARK  status: ('A' for Active; 'I' for Inactive)
REMARK    1  A    between atoms: C_1  and  C_2
REMARK    2  A    between atoms: C_2  and  N_3
REMARK    3  A    between atoms: N_16  and  C_17
REMARK    4  A    between atoms: C_17  and  C_18
REMARK    5  A    between atoms: C_21  and  C_22
REMARK    6  A    between atoms: C_22  and  C_23
REMARK    7  A    between atoms: C_22  and  C_24
REMARK                            x       y       z     vdW  Elec       q    Type
REMARK                         _______ _______ _______ _____ _____    ______ ____
ROOT
ATOM      1  N   UNL     1      -6.762  12.203  17.134  0.00  0.00    +0.000 N 
ATOM      2  C   UNL     1      -5.520  12.099  17.746  0.00  0.00    +0.000 A 
ATOM      3  N   UNL     1      -5.304  12.670  18.934  0.00  0.00    +0.000 NA
ATOM      4  C   UNL     1      -4.104  12.477  19.502  0.00  0.00    +0.000 A 
ATOM      5  N   UNL     1      -3.962  13.109  20.742  0.00  0.00    +0.000 N 
ATOM      6  C   UNL     1      -3.078  11.727  18.908  0.00  0.00    +0.000 A 
ATOM      7  C   UNL     1      -3.412  11.202  17.653  0.00  0.00    +0.000 A 
ATOM      8  C   UNL     1      -2.470  10.454  16.966  0.00  0.00    +0.000 A 
ATOM      9  C   UNL     1      -1.190  10.190  17.470  0.00  0.00    +0.000 A 
ATOM     10  C   UNL     1      -0.863  10.695  18.734  0.00  0.00    +0.000 A 
ATOM     11  C   UNL     1      -1.775  11.467  19.467  0.00  0.00    +0.000 A 
ATOM     12  C   UNL     1      -1.106  11.835  20.673  0.00  0.00    +0.000 A 
ATOM     13  C   UNL     1       0.146  11.270  20.666  0.00  0.00    +0.000 A 
ATOM     14  N   UNL     1       0.297  10.593  19.483  0.00  0.00    +0.000 N 
ATOM     15  N   UNL     1      -4.607  11.388  17.081  0.00  0.00    +0.000 NA
ATOM     16  H   UNL     1      -6.615  12.018  16.149  0.00  0.00    +0.000 HD
ATOM     17  H   UNL     1      -4.860  13.543  20.950  0.00  0.00    +0.000 HD
ATOM     18  H   UNL     1      -3.705  12.436  21.453  0.00  0.00    +0.000 HD
ENDROOT
BRANCH   1  20
ATOM     19  C   UNL     1      -7.189  14.499  16.482  0.00  0.00    +0.000 C 
ATOM     20  C   UNL     1      -7.530  13.388  17.462  0.00  0.00    +0.000 C 
ENDBRANCH   1  20
BRANCH  14  21
ATOM     21  C   UNL     1       1.580  10.057  19.030  0.00  0.00    +0.000 C 
BRANCH  21  22
ATOM     22  C   UNL     1       1.708   8.553  19.113  0.00  0.00    +0.000 A 
ATOM     23  C   UNL     1       2.182   7.801  18.033  0.00  0.00    +0.000 A 
ATOM     24  C   UNL     1       2.519   6.452  18.192  0.00  0.00    +0.000 A 
ATOM     25  C   UNL     1       2.389   5.816  19.433  0.00  0.00    +0.000 A 
ATOM     26  C   UNL     1       1.832   6.544  20.493  0.00  0.00    +0.000 A 
ATOM     27  C   UNL     1       1.500   7.895  20.336  0.00  0.00    +0.000 A 
BRANCH  25  28
ATOM     28  C   UNL     1       2.902   4.397  19.606  0.00  0.00    +0.000 C 
ATOM     29  C   UNL     1       4.425   4.327  19.438  0.00  0.00    +0.000 C 
ATOM     30  C   UNL     1       2.476   3.780  20.937  0.00  0.00    +0.000 C 
ENDBRANCH  25  28
ENDBRANCH  21  22
ENDBRANCH  14  21
TORSDOF 4
ENDMDL
MODEL 5
REMARK VINA RESULT:      -7.7      2.928      8.773
REMARK  Name = 
REMARK  7 active torsions:
REMARK  status: ('A' for Active; 'I' for Inactive)
REMARK    1  A    between atoms: C_1  and  C_2
REMARK    2  A    between atoms: C_2  and  N_3
REMARK    3  A    between atoms: N_16  and  C_17
REMARK    4  A    between atoms: C_17  and  C_18
REMARK    5  A    between atoms: C_21  and  C_22
REMARK    6  A    between atoms: C_22  and  C_23
REMARK    7  A    between atoms: C_22  and  C_24
REMARK                            x       y       z     vdW  Elec       q    Type
REMARK                         _______ _______ _______ _____ _____    ______ ____
ROOT
ATOM      1  N   UNL     1       4.336   3.247  17.813  0.00  0.00    +0.000 N 
ATOM      2  C   UNL     1       3.659   4.319  18.378  0.00  0.00    +0.000 A 
ATOM      3  N   UNL     1       3.105   4.205  19.587  0.00  0.00    +0.000 NA
ATOM      4  C   UNL     1       2.522   5.297  20.105  0.00  0.00    +0.000 A 
ATOM      5  N   UNL     1       1.967   5.089  21.372  0.00  0.00    +0.000 N 
ATOM      6  C   UNL     1       2.459   6.529  19.438  0.00  0.00    +0.000 A 
ATOM      7  C   UNL     1       3.049   6.520  18.168  0.00  0.00    +0.000 A 
ATOM      8  C   UNL     1       3.033   7.679  17.411  0.00  0.00    +0.000 A 
ATOM      9  C   UNL     1       2.456   8.874  17.858  0.00  0.00    +0.000 A 
ATOM     10  C   UNL     1       1.885   8.892  19.136  0.00  0.00    +0.000 A 
ATOM     11  C   UNL     1       1.865   7.743  19.940  0.00  0.00    +0.000 A 
ATOM     12  C   UNL     1       1.188   8.110  21.141  0.00  0.00    +0.000 A 
ATOM     13  C   UNL     1       0.852   9.440  21.063  0.00  0.00    +0.000 A 
ATOM     14  N   UNL     1       1.261   9.907  19.841  0.00  0.00    +0.000 N 
ATOM     15  N   UNL     1       3.634   5.435  17.645  0.00  0.00    +0.000 NA
ATOM     16  H   UNL     1       4.367   3.418  16.815  0.00  0.00    +0.000 HD
ATOM     17  H   UNL     1       2.191   4.131  21.633  0.00  0.00    +0.000 HD
ATOM     18  H   UNL     1       2.350   5.750  22.037  0.00  0.00    +0.000 HD
ENDROOT
BRANCH   1  20
ATOM     19  C   UNL     1       2.431   1.747  17.854  0.00  0.00    +0.000 C 
ATOM     20  C   UNL     1       3.893   1.931  18.230  0.00  0.00    +0.000 C 
ENDBRANCH   1  20
BRANCH  14  21
ATOM     21  C   UNL     1       0.873  11.217  19.318  0.00  0.00    +0.000 C 
BRANCH  21  22
ATOM     22  C   UNL     1      -0.573  11.335  18.898  0.00  0.00    +0.000 A 
ATOM     23  C   UNL     1      -1.133  10.465  17.956  0.00  0.00    +0.000 A 
ATOM     24  C   UNL     1      -2.516  10.427  17.747  0.00  0.00    +0.000 A 
ATOM     25  C   UNL     1      -3.378  11.260  18.470  0.00  0.00    +0.000 A 
ATOM     26  C   UNL     1      -2.813  12.193  19.349  0.00  0.00    +0.000 A 
ATOM     27  C   UNL     1      -1.429  12.227  19.563  0.00  0.00    +0.000 A 
BRANCH  25  28
ATOM     28  C   UNL     1      -4.881  11.090  18.327  0.00  0.00    +0.000 C 
ATOM     29  C   UNL     1      -5.635  11.784  19.468  0.00  0.00    +0.000 C 
ATOM     30  C   UNL     1      -5.397  11.567  16.970  0.00  0.00    +0.000 C 
ENDBRANCH  25  28
ENDBRANCH  21  22
ENDBRANCH  14  21
TORSDOF 4
ENDMDL
MODEL 6
REMARK VINA RESULT:      -7.7      3.673      9.172
REMARK  Name = 
REMARK  7 active torsions:
REMARK  status: ('A' for Active; 'I' for Inactive)
REMARK    1  A    between atoms: C_1  and  C_2
REMARK    2  A    between atoms: C_2  and  N_3
REMARK    3  A    between atoms: N_16  and  C_17
REMARK    4  A    between atoms: C_17  and  C_18
REMARK    5  A    between atoms: C_21  and  C_22
REMARK    6  A    between atoms: C_22  and  C_23
REMARK    7  A    between atoms: C_22  and  C_24
REMARK                            x       y       z     vdW  Elec       q    Type
REMARK                         _______ _______ _______ _____ _____    ______ ____
ROOT
ATOM      1  N   UNL     1       4.584   5.987  16.995  0.00  0.00    +0.000 N 
ATOM      2  C   UNL     1       3.664   6.590  17.842  0.00  0.00    +0.000 A 
ATOM      3  N   UNL     1       3.311   5.999  18.986  0.00  0.00    +0.000 NA
ATOM      4  C   UNL     1       2.469   6.664  19.791  0.00  0.00    +0.000 A 
ATOM      5  N   UNL     1       2.152   5.973  20.965  0.00  0.00    +0.000 N 
ATOM      6  C   UNL     1       1.940   7.926  19.483  0.00  0.00    +0.000 A 
ATOM      7  C   UNL     1       2.359   8.433  18.247  0.00  0.00    +0.000 A 
ATOM      8  C   UNL     1       1.889   9.668  17.832  0.00  0.00    +0.000 A 
ATOM      9  C   UNL     1       1.011  10.445  18.596  0.00  0.00    +0.000 A 
ATOM     10  C   UNL     1       0.608   9.951  19.843  0.00  0.00    +0.000 A 
ATOM     11  C   UNL     1       1.046   8.702  20.306  0.00  0.00    +0.000 A 
ATOM     12  C   UNL     1       0.422   8.507  21.575  0.00  0.00    +0.000 A 
ATOM     13  C   UNL     1      -0.330   9.619  21.866  0.00  0.00    +0.000 A 
ATOM     14  N   UNL     1      -0.229  10.486  20.807  0.00  0.00    +0.000 N 
ATOM     15  N   UNL     1       3.201   7.777  17.439  0.00  0.00    +0.000 NA
ATOM     16  H   UNL     1       4.449   6.401  16.080  0.00  0.00    +0.000 HD
ATOM     17  H   UNL     1       2.698   5.114  20.952  0.00  0.00    +0.000 HD
ATOM     18  H   UNL     1       2.372   6.537  21.776  0.00  0.00    +0.000 HD
ENDROOT
BRANCH   1  20
ATOM     19  C   UNL     1       5.550   4.025  15.949  0.00  0.00    +0.000 C 
ATOM     20  C   UNL     1       4.636   4.539  17.049  0.00  0.00    +0.000 C 
ENDBRANCH   1  20
BRANCH  14  21
ATOM     21  C   UNL     1      -1.071  11.672  20.666  0.00  0.00    +0.000 C 
BRANCH  21  22
ATOM     22  C   UNL     1      -1.424  12.364  21.962  0.00  0.00    +0.000 A 
ATOM     23  C   UNL     1      -0.632  13.397  22.477  0.00  0.00    +0.000 A 
ATOM     24  C   UNL     1      -1.084  14.184  23.541  0.00  0.00    +0.000 A 
ATOM     25  C   UNL     1      -2.338  13.961  24.124  0.00  0.00    +0.000 A 
ATOM     26  C   UNL     1      -3.093  12.872  23.669  0.00  0.00    +0.000 A 
ATOM     27  C   UNL     1      -2.644  12.087  22.599  0.00  0.00    +0.000 A 
BRANCH  25  28
ATOM     28  C   UNL     1      -2.859  14.925  25.175  0.00  0.00    +0.000 C 
ATOM     29  C   UNL     1      -1.711  15.618  25.918  0.00  0.00    +0.000 C 
ATOM     30  C   UNL     1      -3.827  15.955  24.595  0.00  0.00    +0.000 C 
ENDBRANCH  25  28
ENDBRANCH  21  22
ENDBRANCH  14  21
TORSDOF 4
ENDMDL
MODEL 7
REMARK VINA RESULT:      -7.7      2.581      8.720
REMARK  Name = 
REMARK  7 active torsions:
REMARK  status: ('A' for Active; 'I' for Inactive)
REMARK    1  A    between atoms: C_1  and  C_2
REMARK    2  A    between atoms: C_2  and  N_3
REMARK    3  A    between atoms: N_16  and  C_17
REMARK    4  A    between atoms: C_17  and  C_18
REMARK    5  A    between atoms: C_21  and  C_22
REMARK    6  A    between atoms: C_22  and  C_23
REMARK    7  A    between atoms: C_22  and  C_24
REMARK                            x       y       z     vdW  Elec       q    Type
REMARK                         _______ _______ _______ _____ _____    ______ ____
ROOT
ATOM      1  N   UNL     1       4.549   5.238  17.573  0.00  0.00    +0.000 N 
ATOM      2  C   UNL     1       3.641   6.049  18.239  0.00  0.00    +0.000 A 
ATOM      3  N   UNL     1       3.142   5.676  19.420  0.00  0.00    +0.000 NA
ATOM      4  C   UNL     1       2.320   6.534  20.043  0.00  0.00    +0.000 A 
ATOM      5  N   UNL     1       1.845   6.064  21.272  0.00  0.00    +0.000 N 
ATOM      6  C   UNL     1       1.956   7.780  19.512  0.00  0.00    +0.000 A 
ATOM      7  C   UNL     1       2.518   8.049  18.257  0.00  0.00    +0.000 A 
ATOM      8  C   UNL     1       2.216   9.246  17.629  0.00  0.00    +0.000 A 
ATOM      9  C   UNL     1       1.373  10.212  18.192  0.00  0.00    +0.000 A 
ATOM     10  C   UNL     1       0.829   9.955  19.456  0.00  0.00    +0.000 A 
ATOM     11  C   UNL     1       1.093   8.754  20.131  0.00  0.00    +0.000 A 
ATOM     12  C   UNL     1       0.361   8.816  21.354  0.00  0.00    +0.000 A 
ATOM     13  C   UNL     1      -0.286  10.027  21.414  0.00  0.00    +0.000 A 
ATOM     14  N   UNL     1      -0.014  10.708  20.256  0.00  0.00    +0.000 N 
ATOM     15  N   UNL     1       3.340   7.200  17.630  0.00  0.00    +0.000 NA
ATOM     16  H   UNL     1       4.528   5.519  16.600  0.00  0.00    +0.000 HD
ATOM     17  H   UNL     1       2.294   5.165  21.431  0.00  0.00    +0.000 HD
ATOM     18  H   UNL     1       2.065   6.721  22.010  0.00  0.00    +0.000 HD
ENDROOT
BRANCH   1  20
ATOM     19  C   UNL     1       3.216   3.262  17.126  0.00  0.00    +0.000 C 
ATOM     20  C   UNL     1       4.439   3.817  17.840  0.00  0.00    +0.000 C 
ENDBRANCH   1  20
BRANCH  14  21
ATOM     21  C   UNL     1      -0.710  11.935  19.870  0.00  0.00    +0.000 C 
BRANCH  21  22
ATOM     22  C   UNL     1      -2.163  11.756  19.498  0.00  0.00    +0.000 A 
ATOM     23  C   UNL     1      -3.182  12.408  20.201  0.00  0.00    +0.000 A 
ATOM     24  C   UNL     1      -4.493  12.425  19.712  0.00  0.00    +0.000 A 
ATOM     25  C   UNL     1      -4.823  11.788  18.510  0.00  0.00    +0.000 A 
ATOM     26  C   UNL     1      -3.824  11.060  17.851  0.00  0.00    +0.000 A 
ATOM     27  C   UNL     1      -2.510  11.048  18.336  0.00  0.00    +0.000 A 
BRANCH  25  28
ATOM     28  C   UNL     1      -6.220  11.952  17.933  0.00  0.00    +0.000 C 
ATOM     29  C   UNL     1      -7.269  12.100  19.042  0.00  0.00    +0.000 C 
ATOM     30  C   UNL     1      -6.312  13.112  16.944  0.00  0.00    +0.000 C 
ENDBRANCH  25  28
ENDBRANCH  21  22
ENDBRANCH  14  21
TORSDOF 4
ENDMDL
MODEL 8
REMARK VINA RESULT:      -7.6      3.648      8.814
REMARK  Name = 
REMARK  7 active torsions:
REMARK  status: ('A' for Active; 'I' for Inactive)
REMARK    1  A    between atoms: C_1  and  C_2
REMARK    2  A    between atoms: C_2  and  N_3
REMARK    3  A    between atoms: N_16  and  C_17
REMARK    4  A    between atoms: C_17  and  C_18
REMARK    5  A    between atoms: C_21  and  C_22
REMARK    6  A    between atoms: C_22  and  C_23
REMARK    7  A    between atoms: C_22  and  C_24
REMARK                            x       y       z     vdW  Elec       q    Type
REMARK                         _______ _______ _______ _____ _____    ______ ____
ROOT
ATOM      1  N   UNL     1       4.714   5.809  16.918  0.00  0.00    +0.000 N 
ATOM      2  C   UNL     1       3.799   6.404  17.777  0.00  0.00    +0.000 A 
ATOM      3  N   UNL     1       3.478   5.817  18.932  0.00  0.00    +0.000 NA
ATOM      4  C   UNL     1       2.639   6.474  19.747  0.00  0.00    +0.000 A 
ATOM      5  N   UNL     1       2.356   5.788  20.932  0.00  0.00    +0.000 N 
ATOM      6  C   UNL     1       2.082   7.724  19.438  0.00  0.00    +0.000 A 
ATOM      7  C   UNL     1       2.469   8.227  18.190  0.00  0.00    +0.000 A 
ATOM      8  C   UNL     1       1.970   9.449  17.772  0.00  0.00    +0.000 A 
ATOM      9  C   UNL     1       1.092  10.217  18.546  0.00  0.00    +0.000 A 
ATOM     10  C   UNL     1       0.720   9.728  19.804  0.00  0.00    +0.000 A 
ATOM     11  C   UNL     1       1.189   8.491  20.270  0.00  0.00    +0.000 A 
ATOM     12  C   UNL     1       0.593   8.297  21.552  0.00  0.00    +0.000 A 
ATOM     13  C   UNL     1      -0.174   9.398  21.847  0.00  0.00    +0.000 A 
ATOM     14  N   UNL     1      -0.108  10.256  20.779  0.00  0.00    +0.000 N 
ATOM     15  N   UNL     1       3.308   7.578  17.372  0.00  0.00    +0.000 NA
ATOM     16  H   UNL     1       4.555   6.212  16.002  0.00  0.00    +0.000 HD
ATOM     17  H   UNL     1       2.918   4.940  20.917  0.00  0.00    +0.000 HD
ATOM     18  H   UNL     1       2.581   6.364  21.734  0.00  0.00    +0.000 HD
ENDROOT
BRANCH   1  20
ATOM     19  C   UNL     1       5.657   3.851  15.843  0.00  0.00    +0.000 C 
ATOM     20  C   UNL     1       4.793   4.363  16.984  0.00  0.00    +0.000 C 
ENDBRANCH   1  20
BRANCH  14  21
ATOM     21  C   UNL     1      -0.974  11.427  20.643  0.00  0.00    +0.000 C 
BRANCH  21  22
ATOM     22  C   UNL     1      -0.259  12.716  20.309  0.00  0.00    +0.000 A 
ATOM     23  C   UNL     1       0.889  13.114  21.003  0.00  0.00    +0.000 A 
ATOM     24  C   UNL     1       1.674  14.176  20.541  0.00  0.00    +0.000 A 
ATOM     25  C   UNL     1       1.332  14.872  19.375  0.00  0.00    +0.000 A 
ATOM     26  C   UNL     1       0.137  14.533  18.729  0.00  0.00    +0.000 A 
ATOM     27  C   UNL     1      -0.647  13.466  19.187  0.00  0.00    +0.000 A 
BRANCH  25  28
ATOM     28  C   UNL     1       2.283  15.919  18.821  0.00  0.00    +0.000 C 
ATOM     29  C   UNL     1       3.249  15.313  17.795  0.00  0.00    +0.000 C 
ATOM     30  C   UNL     1       1.549  17.120  18.227  0.00  0.00    +0.000 C 
ENDBRANCH  25  28
ENDBRANCH  21  22
ENDBRANCH  14  21
TORSDOF 4
ENDMDL
MODEL 9
REMARK VINA RESULT:      -7.6      3.560      6.344
REMARK  Name = 
REMARK  7 active torsions:
REMARK  status: ('A' for Active; 'I' for Inactive)
REMARK    1  A    between atoms: C_1  and  C_2
REMARK    2  A    between atoms: C_2  and  N_3
REMARK    3  A    between atoms: N_16  and  C_17
REMARK    4  A    between atoms: C_17  and  C_18
REMARK    5  A    between atoms: C_21  and  C_22
REMARK    6  A    between atoms: C_22  and  C_23
REMARK    7  A    between atoms: C_22  and  C_24
REMARK                            x       y       z     vdW  Elec       q    Type
REMARK                         _______ _______ _______ _____ _____    ______ ____
ROOT
ATOM      1  N   UNL     1       0.344  11.726  18.218  0.00  0.00    +0.000 N 
ATOM      2  C   UNL     1       0.811  10.508  18.692  0.00  0.00    +0.000 A 
ATOM      3  N   UNL     1       0.281   9.962  19.789  0.00  0.00    +0.000 NA
ATOM      4  C   UNL     1       0.731   8.753  20.158  0.00  0.00    +0.000 A 
ATOM      5  N   UNL     1       0.123   8.257  21.316  0.00  0.00    +0.000 N 
ATOM      6  C   UNL     1       1.729   8.055  19.462  0.00  0.00    +0.000 A 
ATOM      7  C   UNL     1       2.228   8.738  18.346  0.00  0.00    +0.000 A 
ATOM      8  C   UNL     1       3.228   8.149  17.589  0.00  0.00    +0.000 A 
ATOM      9  C   UNL     1       3.766   6.890  17.885  0.00  0.00    +0.000 A 
ATOM     10  C   UNL     1       3.252   6.196  18.986  0.00  0.00    +0.000 A 
ATOM     11  C   UNL     1       2.247   6.751  19.792  0.00  0.00    +0.000 A 
ATOM     12  C   UNL     1       1.993   5.798  20.823  0.00  0.00    +0.000 A 
ATOM     13  C   UNL     1       2.796   4.704  20.614  0.00  0.00    +0.000 A 
ATOM     14  N   UNL     1       3.570   4.954  19.509  0.00  0.00    +0.000 N 
ATOM     15  N   UNL     1       1.783   9.942  17.970  0.00  0.00    +0.000 NA
ATOM     16  H   UNL     1       1.073  12.105  17.625  0.00  0.00    +0.000 HD
ATOM     17  H   UNL     1      -0.583   8.939  21.586  0.00  0.00    +0.000 HD
ATOM     18  H   UNL     1      -0.291   7.351  21.135  0.00  0.00    +0.000 HD
ENDROOT
BRANCH   1  20
ATOM     19  C   UNL     1      -0.052  14.059  18.748  0.00  0.00    +0.000 C 
ATOM     20  C   UNL     1      -0.210  12.620  19.215  0.00  0.00    +0.000 C 
ENDBRANCH   1  20
BRANCH  14  21
ATOM     21  C   UNL     1       4.698   4.109  19.119  0.00  0.00    +0.000 C 
BRANCH  21  22
ATOM     22  C   UNL     1       5.169   4.291  17.694  0.00  0.00    +0.000 A 
ATOM     23  C   UNL     1       6.463   4.736  17.405  0.00  0.00    +0.000 A 
ATOM     24  C   UNL     1       6.967   4.678  16.101  0.00  0.00    +0.000 A 
ATOM     25  C   UNL     1       6.190   4.177  15.049  0.00  0.00    +0.000 A 
ATOM     26  C   UNL     1       4.865   3.814  15.320  0.00  0.00    +0.000 A 
ATOM     27  C   UNL     1       4.362   3.866  16.626  0.00  0.00    +0.000 A 
BRANCH  25  28
ATOM     28  C   UNL     1       6.816   3.990  13.677  0.00  0.00    +0.000 C 
ATOM     29  C   UNL     1       5.773   3.558  12.639  0.00  0.00    +0.000 C 
ATOM     30  C   UNL     1       7.567   5.233  13.203  0.00  0.00    +0.000 C 
ENDBRANCH  25  28
ENDBRANCH  21  22
ENDBRANCH  14  21
TORSDOF 4
ENDMDL
