MODEL 1
REMARK VINA RESULT:      -7.5      0.000      0.000
REMARK  Name = 
REMARK  1 active torsions:
REMARK  status: ('A' for Active; 'I' for Inactive)
REMARK    1  A    between atoms: C_1  and  C_2
REMARK                            x       y       z     vdW  Elec       q    Type
REMARK                         _______ _______ _______ _____ _____    ______ ____
ROOT
ATOM      1  C   UNL     1       6.339   3.990  12.892  0.00  0.00    +0.000 C 
ATOM      2  C   UNL     1       6.285   4.092  14.366  0.00  0.00    +0.000 A 
ATOM      3  N   UNL     1       7.283   4.234  15.217  0.00  0.00    +0.000 NA
ATOM      4  C   UNL     1       6.655   4.353  16.427  0.00  0.00    +0.000 A 
ATOM      5  C   UNL     1       5.301   4.237  16.261  0.00  0.00    +0.000 A 
ATOM      6  O   UNL     1       5.030   4.069  14.942  0.00  0.00    +0.000 OA
ATOM      7  C   UNL     1       4.284   4.300  17.280  0.00  0.00    +0.000 A 
ATOM      8  C   UNL     1       2.940   4.011  17.055  0.00  0.00    +0.000 A 
ATOM      9  C   UNL     1       2.030   4.084  18.115  0.00  0.00    +0.000 A 
ATOM     10  C   UNL     1       2.456   4.459  19.392  0.00  0.00    +0.000 A 
ATOM     11  C   UNL     1       3.798   4.756  19.625  0.00  0.00    +0.000 A 
ATOM     12  C   UNL     1       4.717   4.661  18.575  0.00  0.00    +0.000 A 
ATOM     13  C   UNL     1       6.165   4.951  18.837  0.00  0.00    +0.000 C 
ATOM     14  O   UNL     1       6.518   5.488  19.878  0.00  0.00    +0.000 OA
ATOM     15  C   UNL     1       7.197   4.576  17.750  0.00  0.00    +0.000 C 
ATOM     16  O   UNL     1       8.381   4.462  18.035  0.00  0.00    +0.000 OA
ENDROOT
TORSDOF 0
ENDMDL
MODEL 2
REMARK VINA RESULT:      -7.1      3.195      5.513
REMARK  Name = 
REMARK  1 active torsions:
REMARK  status: ('A' for Active; 'I' for Inactive)
REMARK    1  A    between atoms: C_1  and  C_2
REMARK                            x       y       z     vdW  Elec       q    Type
REMARK                         _______ _______ _______ _____ _____    ______ ____
ROOT
ATOM      1  C   UNL     1       1.149   7.975  21.115  0.00  0.00    +0.000 C 
ATOM      2  C   UNL     1       1.845   6.843  20.467  0.00  0.00    +0.000 A 
ATOM      3  N   UNL     1       1.833   5.568  20.808  0.00  0.00    +0.000 NA
ATOM      4  C   UNL     1       2.573   4.969  19.825  0.00  0.00    +0.000 A 
ATOM      5  C   UNL     1       3.037   5.915  18.951  0.00  0.00    +0.000 A 
ATOM      6  O   UNL     1       2.583   7.134  19.338  0.00  0.00    +0.000 OA
ATOM      7  C   UNL     1       3.855   5.704  17.783  0.00  0.00    +0.000 A 
ATOM      8  C   UNL     1       4.421   6.734  17.036  0.00  0.00    +0.000 A 
ATOM      9  C   UNL     1       5.216   6.427  15.926  0.00  0.00    +0.000 A 
ATOM     10  C   UNL     1       5.433   5.098  15.554  0.00  0.00    +0.000 A 
ATOM     11  C   UNL     1       4.865   4.060  16.293  0.00  0.00    +0.000 A 
ATOM     12  C   UNL     1       4.090   4.360  17.418  0.00  0.00    +0.000 A 
ATOM     13  C   UNL     1       3.507   3.241  18.228  0.00  0.00    +0.000 C 
ATOM     14  O   UNL     1       3.499   2.095  17.800  0.00  0.00    +0.000 OA
ATOM     15  C   UNL     1       2.895   3.575  19.607  0.00  0.00    +0.000 C 
ATOM     16  O   UNL     1       2.731   2.694  20.440  0.00  0.00    +0.000 OA
ENDROOT
TORSDOF 0
ENDMDL
MODEL 3
REMARK VINA RESULT:      -7.0      2.937      4.258
REMARK  Name = 
REMARK  1 active torsions:
REMARK  status: ('A' for Active; 'I' for Inactive)
REMARK    1  A    between atoms: C_1  and  C_2
REMARK                            x       y       z     vdW  Elec       q    Type
REMARK                         _______ _______ _______ _____ _____    ______ ____
ROOT
ATOM      1  C   UNL     1       1.816   9.427  17.928  0.00  0.00    +0.000 C 
ATOM      2  C   UNL     1       2.473   8.112  18.078  0.00  0.00    +0.000 A 
ATOM      3  N   UNL     1       3.577   7.674  17.501  0.00  0.00    +0.000 NA
ATOM      4  C   UNL     1       3.759   6.438  18.059  0.00  0.00    +0.000 A 
ATOM      5  C   UNL     1       2.732   6.163  18.922  0.00  0.00    +0.000 A 
ATOM      6  O   UNL     1       1.887   7.223  18.957  0.00  0.00    +0.000 OA
ATOM      7  C   UNL     1       2.544   4.969  19.708  0.00  0.00    +0.000 A 
ATOM      8  C   UNL     1       1.391   4.694  20.439  0.00  0.00    +0.000 A 
ATOM      9  C   UNL     1       1.296   3.499  21.158  0.00  0.00    +0.000 A 
ATOM     10  C   UNL     1       2.354   2.585  21.160  0.00  0.00    +0.000 A 
ATOM     11  C   UNL     1       3.515   2.854  20.436  0.00  0.00    +0.000 A 
ATOM     12  C   UNL     1       3.606   4.037  19.695  0.00  0.00    +0.000 A 
ATOM     13  C   UNL     1       4.843   4.308  18.892  0.00  0.00    +0.000 C 
ATOM     14  O   UNL     1       5.854   3.639  19.055  0.00  0.00    +0.000 OA
ATOM     15  C   UNL     1       4.816   5.468  17.873  0.00  0.00    +0.000 C 
ATOM     16  O   UNL     1       5.639   5.515  16.968  0.00  0.00    +0.000 OA
ENDROOT
TORSDOF 0
ENDMDL
MODEL 4
REMARK VINA RESULT:      -6.8      2.865      3.701
REMARK  Name = 
REMARK  1 active torsions:
REMARK  status: ('A' for Active; 'I' for Inactive)
REMARK    1  A    between atoms: C_1  and  C_2
REMARK                            x       y       z     vdW  Elec       q    Type
REMARK                         _______ _______ _______ _____ _____    ______ ____
ROOT
ATOM      1  C   UNL     1       5.885   4.028  15.265  0.00  0.00    +0.000 C 
ATOM      2  C   UNL     1       4.953   4.196  16.401  0.00  0.00    +0.000 A 
ATOM      3  N   UNL     1       4.525   3.285  17.254  0.00  0.00    +0.000 NA
ATOM      4  C   UNL     1       3.758   4.004  18.130  0.00  0.00    +0.000 A 
ATOM      5  C   UNL     1       3.722   5.317  17.744  0.00  0.00    +0.000 A 
ATOM      6  O   UNL     1       4.484   5.474  16.633  0.00  0.00    +0.000 OA
ATOM      7  C   UNL     1       3.025   6.402  18.390  0.00  0.00    +0.000 A 
ATOM      8  C   UNL     1       2.903   7.678  17.847  0.00  0.00    +0.000 A 
ATOM      9  C   UNL     1       2.191   8.661  18.543  0.00  0.00    +0.000 A 
ATOM     10  C   UNL     1       1.616   8.376  19.784  0.00  0.00    +0.000 A 
ATOM     11  C   UNL     1       1.738   7.102  20.338  0.00  0.00    +0.000 A 
ATOM     12  C   UNL     1       2.428   6.108  19.636  0.00  0.00    +0.000 A 
ATOM     13  C   UNL     1       2.530   4.731  20.220  0.00  0.00    +0.000 C 
ATOM     14  O   UNL     1       2.231   4.522  21.388  0.00  0.00    +0.000 OA
ATOM     15  C   UNL     1       3.045   3.588  19.318  0.00  0.00    +0.000 C 
ATOM     16  O   UNL     1       2.825   2.421  19.613  0.00  0.00    +0.000 OA
ENDROOT
TORSDOF 0
ENDMDL
MODEL 5
REMARK VINA RESULT:      -6.8      2.353      3.092
REMARK  Name = 
REMARK  1 active torsions:
REMARK  status: ('A' for Active; 'I' for Inactive)
REMARK    1  A    between atoms: C_1  and  C_2
REMARK                            x       y       z     vdW  Elec       q    Type
REMARK                         _______ _______ _______ _____ _____    ______ ____
ROOT
ATOM      1  C   UNL     1       6.365   4.856  14.705  0.00  0.00    +0.000 C 
ATOM      2  C   UNL     1       5.452   4.514  15.816  0.00  0.00    +0.000 A 
ATOM      3  N   UNL     1       5.170   3.323  16.310  0.00  0.00    +0.000 NA
ATOM      4  C   UNL     1       4.343   3.603  17.364  0.00  0.00    +0.000 A 
ATOM      5  C   UNL     1       4.129   4.953  17.439  0.00  0.00    +0.000 A 
ATOM      6  O   UNL     1       4.831   5.568  16.455  0.00  0.00    +0.000 OA
ATOM      7  C   UNL     1       3.319   5.660  18.399  0.00  0.00    +0.000 A 
ATOM      8  C   UNL     1       3.018   7.017  18.313  0.00  0.00    +0.000 A 
ATOM      9  C   UNL     1       2.208   7.610  19.286  0.00  0.00    +0.000 A 
ATOM     10  C   UNL     1       1.711   6.855  20.352  0.00  0.00    +0.000 A 
ATOM     11  C   UNL     1       2.011   5.497  20.450  0.00  0.00    +0.000 A 
ATOM     12  C   UNL     1       2.800   4.893  19.466  0.00  0.00    +0.000 A 
ATOM     13  C   UNL     1       3.094   3.425  19.558  0.00  0.00    +0.000 C 
ATOM     14  O   UNL     1       2.859   2.802  20.584  0.00  0.00    +0.000 OA
ATOM     15  C   UNL     1       3.725   2.725  18.334  0.00  0.00    +0.000 C 
ATOM     16  O   UNL     1       3.663   1.509  18.218  0.00  0.00    +0.000 OA
ENDROOT
TORSDOF 0
ENDMDL
MODEL 6
REMARK VINA RESULT:      -6.7      1.797      4.291
REMARK  Name = 
REMARK  1 active torsions:
REMARK  status: ('A' for Active; 'I' for Inactive)
REMARK    1  A    between atoms: C_1  and  C_2
REMARK                            x       y       z     vdW  Elec       q    Type
REMARK                         _______ _______ _______ _____ _____    ______ ____
ROOT
ATOM      1  C   UNL     1       1.337   2.633  18.645  0.00  0.00    +0.000 C 
ATOM      2  C   UNL     1       2.665   3.231  18.393  0.00  0.00    +0.000 A 
ATOM      3  N   UNL     1       3.545   3.676  19.271  0.00  0.00    +0.000 NA
ATOM      4  C   UNL     1       4.613   4.039  18.494  0.00  0.00    +0.000 A 
ATOM      5  C   UNL     1       4.316   3.834  17.174  0.00  0.00    +0.000 A 
ATOM      6  O   UNL     1       3.068   3.313  17.075  0.00  0.00    +0.000 OA
ATOM      7  C   UNL     1       5.164   4.090  16.036  0.00  0.00    +0.000 A 
ATOM      8  C   UNL     1       4.733   4.011  14.714  0.00  0.00    +0.000 A 
ATOM      9  C   UNL     1       5.627   4.295  13.677  0.00  0.00    +0.000 A 
ATOM     10  C   UNL     1       6.951   4.643  13.956  0.00  0.00    +0.000 A 
ATOM     11  C   UNL     1       7.393   4.720  15.277  0.00  0.00    +0.000 A 
ATOM     12  C   UNL     1       6.497   4.461  16.319  0.00  0.00    +0.000 A 
ATOM     13  C   UNL     1       6.967   4.576  17.738  0.00  0.00    +0.000 C 
ATOM     14  O   UNL     1       8.160   4.661  17.998  0.00  0.00    +0.000 OA
ATOM     15  C   UNL     1       5.911   4.560  18.864  0.00  0.00    +0.000 C 
ATOM     16  O   UNL     1       6.186   4.991  19.976  0.00  0.00    +0.000 OA
ENDROOT
TORSDOF 0
ENDMDL
MODEL 7
REMARK VINA RESULT:      -6.7      3.440      5.145
REMARK  Name = 
REMARK  1 active torsions:
REMARK  status: ('A' for Active; 'I' for Inactive)
REMARK    1  A    between atoms: C_1  and  C_2
REMARK                            x       y       z     vdW  Elec       q    Type
REMARK                         _______ _______ _______ _____ _____    ______ ____
ROOT
ATOM      1  C   UNL     1       1.649   9.882  18.220  0.00  0.00    +0.000 C 
ATOM      2  C   UNL     1       2.230   8.535  18.401  0.00  0.00    +0.000 A 
ATOM      3  N   UNL     1       2.009   7.668  19.372  0.00  0.00    +0.000 NA
ATOM      4  C   UNL     1       2.737   6.573  18.993  0.00  0.00    +0.000 A 
ATOM      5  C   UNL     1       3.402   6.839  17.826  0.00  0.00    +0.000 A 
ATOM      6  O   UNL     1       3.095   8.096  17.418  0.00  0.00    +0.000 OA
ATOM      7  C   UNL     1       4.277   5.957  17.095  0.00  0.00    +0.000 A 
ATOM      8  C   UNL     1       5.045   6.354  16.003  0.00  0.00    +0.000 A 
ATOM      9  C   UNL     1       5.878   5.427  15.370  0.00  0.00    +0.000 A 
ATOM     10  C   UNL     1       5.936   4.104  15.814  0.00  0.00    +0.000 A 
ATOM     11  C   UNL     1       5.166   3.695  16.903  0.00  0.00    +0.000 A 
ATOM     12  C   UNL     1       4.349   4.624  17.556  0.00  0.00    +0.000 A 
ATOM     13  C   UNL     1       3.548   4.188  18.746  0.00  0.00    +0.000 C 
ATOM     14  O   UNL     1       3.414   3.002  19.011  0.00  0.00    +0.000 OA
ATOM     15  C   UNL     1       2.875   5.274  19.615  0.00  0.00    +0.000 C 
ATOM     16  O   UNL     1       2.519   5.019  20.757  0.00  0.00    +0.000 OA
ENDROOT
TORSDOF 0
ENDMDL
MODEL 8
REMARK VINA RESULT:      -6.7      2.995      3.988
REMARK  Name = 
REMARK  1 active torsions:
REMARK  status: ('A' for Active; 'I' for Inactive)
REMARK    1  A    between atoms: C_1  and  C_2
REMARK                            x       y       z     vdW  Elec       q    Type
REMARK                         _______ _______ _______ _____ _____    ______ ____
ROOT
ATOM      1  C   UNL     1       1.494   9.286  17.857  0.00  0.00    +0.000 C 
ATOM      2  C   UNL     1       2.370   8.095  17.849  0.00  0.00    +0.000 A 
ATOM      3  N   UNL     1       3.678   8.039  17.679  0.00  0.00    +0.000 NA
ATOM      4  C   UNL     1       3.964   6.711  17.847  0.00  0.00    +0.000 A 
ATOM      5  C   UNL     1       2.808   6.013  18.073  0.00  0.00    +0.000 A 
ATOM      6  O   UNL     1       1.762   6.878  18.081  0.00  0.00    +0.000 OA
ATOM      7  C   UNL     1       2.669   4.595  18.295  0.00  0.00    +0.000 A 
ATOM      8  C   UNL     1       1.445   3.935  18.355  0.00  0.00    +0.000 A 
ATOM      9  C   UNL     1       1.414   2.552  18.559  0.00  0.00    +0.000 A 
ATOM     10  C   UNL     1       2.600   1.830  18.716  0.00  0.00    +0.000 A 
ATOM     11  C   UNL     1       3.831   2.484  18.663  0.00  0.00    +0.000 A 
ATOM     12  C   UNL     1       3.869   3.864  18.436  0.00  0.00    +0.000 A 
ATOM     13  C   UNL     1       5.195   4.557  18.348  0.00  0.00    +0.000 C 
ATOM     14  O   UNL     1       6.222   3.993  18.699  0.00  0.00    +0.000 OA
ATOM     15  C   UNL     1       5.230   6.011  17.826  0.00  0.00    +0.000 C 
ATOM     16  O   UNL     1       6.274   6.493  17.409  0.00  0.00    +0.000 OA
ENDROOT
TORSDOF 0
ENDMDL
MODEL 9
REMARK VINA RESULT:      -6.6      1.842      3.867
REMARK  Name = 
REMARK  1 active torsions:
REMARK  status: ('A' for Active; 'I' for Inactive)
REMARK    1  A    between atoms: C_1  and  C_2
REMARK                            x       y       z     vdW  Elec       q    Type
REMARK                         _______ _______ _______ _____ _____    ______ ____
ROOT
ATOM      1  C   UNL     1       8.137   5.885  19.491  0.00  0.00    +0.000 C 
ATOM      2  C   UNL     1       6.865   5.424  18.895  0.00  0.00    +0.000 A 
ATOM      3  N   UNL     1       6.627   5.050  17.652  0.00  0.00    +0.000 NA
ATOM      4  C   UNL     1       5.318   4.651  17.683  0.00  0.00    +0.000 A 
ATOM      5  C   UNL     1       4.807   4.840  18.939  0.00  0.00    +0.000 A 
ATOM      6  O   UNL     1       5.779   5.336  19.744  0.00  0.00    +0.000 OA
ATOM      7  C   UNL     1       3.469   4.553  19.392  0.00  0.00    +0.000 A 
ATOM      8  C   UNL     1       2.975   4.923  20.641  0.00  0.00    +0.000 A 
ATOM      9  C   UNL     1       1.655   4.613  20.983  0.00  0.00    +0.000 A 
ATOM     10  C   UNL     1       0.833   3.924  20.088  0.00  0.00    +0.000 A 
ATOM     11  C   UNL     1       1.320   3.544  18.837  0.00  0.00    +0.000 A 
ATOM     12  C   UNL     1       2.631   3.872  18.480  0.00  0.00    +0.000 A 
ATOM     13  C   UNL     1       3.141   3.490  17.123  0.00  0.00    +0.000 C 
ATOM     14  O   UNL     1       2.522   2.703  16.420  0.00  0.00    +0.000 OA
ATOM     15  C   UNL     1       4.479   4.095  16.644  0.00  0.00    +0.000 C 
ATOM     16  O   UNL     1       4.763   4.104  15.454  0.00  0.00    +0.000 OA
ENDROOT
TORSDOF 0
ENDMDL
