MODEL 1
REMARK VINA RESULT:      -7.2      0.000      0.000
REMARK  Name = 
REMARK  7 active torsions:
REMARK  status: ('A' for Active; 'I' for Inactive)
REMARK    1  A    between atoms: C_1  and  C_2
REMARK    2  A    between atoms: C_2  and  N_3
REMARK    3  A    between atoms: N_3  and  C_4
REMARK    4  A    between atoms: C_4  and  C_5
REMARK    5  A    between atoms: N_7  and  C_8
REMARK    6  A    between atoms: C_8  and  C_9
REMARK    7  A    between atoms: C_9  and  C_10
REMARK                            x       y       z     vdW  Elec       q    Type
REMARK                         _______ _______ _______ _____ _____    ______ ____
ROOT
ATOM      1  C   UNL     1       4.499   6.392  17.663  0.00  0.00    +0.000 C 
ENDROOT
BRANCH   1   2
ATOM      2  C   UNL     1       4.511   5.175  18.532  0.00  0.00    +0.000 A 
ATOM      3  C   UNL     1       5.495   4.209  18.595  0.00  0.00    +0.000 A 
ATOM      4  N   UNL     1       5.062   3.208  19.427  0.00  0.00    +0.000 N 
ATOM      5  C   UNL     1       3.807   3.498  19.906  0.00  0.00    +0.000 A 
ATOM      6  C   UNL     1       2.961   2.752  20.736  0.00  0.00    +0.000 A 
ATOM      7  C   UNL     1       1.717   3.305  21.058  0.00  0.00    +0.000 A 
ATOM      8  C   UNL     1       1.343   4.560  20.581  0.00  0.00    +0.000 A 
ATOM      9  C   UNL     1       2.198   5.288  19.749  0.00  0.00    +0.000 A 
ATOM     10  C   UNL     1       3.450   4.744  19.395  0.00  0.00    +0.000 A 
ATOM     11  H   UNL     1       5.572   2.362  19.635  0.00  0.00    +0.000 HD
ENDBRANCH   1   2
BRANCH   1  12
ATOM     12  C   UNL     1       5.833   6.534  16.928  0.00  0.00    +0.000 C 
BRANCH  12  15
ATOM     13  C   UNL     1       6.862   5.139  15.207  0.00  0.00    +0.000 C 
ATOM     14  O   UNL     1       7.725   4.718  15.982  0.00  0.00    +0.000 OA
ATOM     15  N   UNL     1       5.839   5.976  15.593  0.00  0.00    +0.000 N 
ATOM     16  H   UNL     1       5.228   6.340  14.867  0.00  0.00    +0.000 HD
BRANCH  13  17
ATOM     17  C   UNL     1       6.853   4.758  13.726  0.00  0.00    +0.000 C 
BRANCH  17  18
ATOM     18  N   UNL     1       6.415   3.361  13.528  0.00  0.00    +0.000 NA
ATOM     19  H   UNL     1       7.159   2.749  13.859  0.00  0.00    +0.000 HD
BRANCH  18  21
ATOM     20  C   UNL     1       4.737   3.377  11.752  0.00  0.00    +0.000 C 
ATOM     21  C   UNL     1       6.185   3.078  12.104  0.00  0.00    +0.000 C 
ENDBRANCH  18  21
ENDBRANCH  17  18
ENDBRANCH  13  17
ENDBRANCH  12  15
ENDBRANCH   1  12
TORSDOF 6
ENDMDL
MODEL 2
REMARK VINA RESULT:      -7.1      1.296      1.316
REMARK  Name = 
REMARK  7 active torsions:
REMARK  status: ('A' for Active; 'I' for Inactive)
REMARK    1  A    between atoms: C_1  and  C_2
REMARK    2  A    between atoms: C_2  and  N_3
REMARK    3  A    between atoms: N_3  and  C_4
REMARK    4  A    between atoms: C_4  and  C_5
REMARK    5  A    between atoms: N_7  and  C_8
REMARK    6  A    between atoms: C_8  and  C_9
REMARK    7  A    between atoms: C_9  and  C_10
REMARK                            x       y       z     vdW  Elec       q    Type
REMARK                         _______ _______ _______ _____ _____    ______ ____
ROOT
ATOM      1  C   UNL     1       4.392   6.559  17.308  0.00  0.00    +0.000 C 
ENDROOT
BRANCH   1   2
ATOM      2  C   UNL     1       4.500   5.276  18.069  0.00  0.00    +0.000 A 
ATOM      3  C   UNL     1       5.647   4.714  18.591  0.00  0.00    +0.000 A 
ATOM      4  N   UNL     1       5.327   3.484  19.106  0.00  0.00    +0.000 N 
ATOM      5  C   UNL     1       3.990   3.226  18.924  0.00  0.00    +0.000 A 
ATOM      6  C   UNL     1       3.237   2.088  19.240  0.00  0.00    +0.000 A 
ATOM      7  C   UNL     1       1.873   2.106  18.927  0.00  0.00    +0.000 A 
ATOM      8  C   UNL     1       1.287   3.223  18.336  0.00  0.00    +0.000 A 
ATOM      9  C   UNL     1       2.055   4.349  18.022  0.00  0.00    +0.000 A 
ATOM     10  C   UNL     1       3.435   4.348  18.311  0.00  0.00    +0.000 A 
ATOM     11  H   UNL     1       5.981   2.841  19.528  0.00  0.00    +0.000 HD
ENDBRANCH   1   2
BRANCH   1  12
ATOM     12  C   UNL     1       5.418   6.593  16.173  0.00  0.00    +0.000 C 
BRANCH  12  15
ATOM     13  C   UNL     1       6.581   4.941  14.800  0.00  0.00    +0.000 C 
ATOM     14  O   UNL     1       7.692   5.371  15.122  0.00  0.00    +0.000 OA
ATOM     15  N   UNL     1       5.401   5.424  15.322  0.00  0.00    +0.000 N 
ATOM     16  H   UNL     1       4.533   5.068  14.931  0.00  0.00    +0.000 HD
BRANCH  13  17
ATOM     17  C   UNL     1       6.417   3.816  13.778  0.00  0.00    +0.000 C 
BRANCH  17  18
ATOM     18  N   UNL     1       5.204   4.005  12.955  0.00  0.00    +0.000 NA
ATOM     19  H   UNL     1       4.394   3.823  13.543  0.00  0.00    +0.000 HD
BRANCH  18  21
ATOM     20  C   UNL     1       3.854   3.173  11.095  0.00  0.00    +0.000 C 
ATOM     21  C   UNL     1       5.180   3.059  11.829  0.00  0.00    +0.000 C 
ENDBRANCH  18  21
ENDBRANCH  17  18
ENDBRANCH  13  17
ENDBRANCH  12  15
ENDBRANCH   1  12
TORSDOF 6
ENDMDL
MODEL 3
REMARK VINA RESULT:      -6.9      1.619      1.935
REMARK  Name = 
REMARK  7 active torsions:
REMARK  status: ('A' for Active; 'I' for Inactive)
REMARK    1  A    between atoms: C_1  and  C_2
REMARK    2  A    between atoms: C_2  and  N_3
REMARK    3  A    between atoms: N_3  and  C_4
REMARK    4  A    between atoms: C_4  and  C_5
REMARK    5  A    between atoms: N_7  and  C_8
REMARK    6  A    between atoms: C_8  and  C_9
REMARK    7  A    between atoms: C_9  and  C_10
REMARK                            x       y       z     vdW  Elec       q    Type
REMARK                         _______ _______ _______ _____ _____    ______ ____
ROOT
ATOM      1  C   UNL     1       4.248   5.831  17.093  0.00  0.00    +0.000 C 
ENDROOT
BRANCH   1   2
ATOM      2  C   UNL     1       3.373   5.712  18.300  0.00  0.00    +0.000 A 
ATOM      3  C   UNL     1       3.348   6.553  19.394  0.00  0.00    +0.000 A 
ATOM      4  N   UNL     1       2.491   6.022  20.324  0.00  0.00    +0.000 N 
ATOM      5  C   UNL     1       1.958   4.843  19.861  0.00  0.00    +0.000 A 
ATOM      6  C   UNL     1       1.086   3.940  20.482  0.00  0.00    +0.000 A 
ATOM      7  C   UNL     1       0.712   2.802  19.760  0.00  0.00    +0.000 A 
ATOM      8  C   UNL     1       1.180   2.586  18.465  0.00  0.00    +0.000 A 
ATOM      9  C   UNL     1       2.054   3.496  17.864  0.00  0.00    +0.000 A 
ATOM     10  C   UNL     1       2.461   4.642  18.578  0.00  0.00    +0.000 A 
ATOM     11  H   UNL     1       2.301   6.417  21.234  0.00  0.00    +0.000 HD
ENDBRANCH   1   2
BRANCH   1  12
ATOM     12  C   UNL     1       5.204   4.639  17.010  0.00  0.00    +0.000 C 
BRANCH  12  15
ATOM     13  C   UNL     1       6.583   4.900  15.011  0.00  0.00    +0.000 C 
ATOM     14  O   UNL     1       7.325   5.719  15.559  0.00  0.00    +0.000 OA
ATOM     15  N   UNL     1       5.556   4.252  15.662  0.00  0.00    +0.000 N 
ATOM     16  H   UNL     1       4.944   3.663  15.105  0.00  0.00    +0.000 HD
BRANCH  13  17
ATOM     17  C   UNL     1       6.743   4.528  13.537  0.00  0.00    +0.000 C 
BRANCH  17  18
ATOM     18  N   UNL     1       6.391   3.114  13.294  0.00  0.00    +0.000 NA
ATOM     19  H   UNL     1       7.225   2.552  13.447  0.00  0.00    +0.000 HD
BRANCH  18  21
ATOM     20  C   UNL     1       4.527   3.429  11.744  0.00  0.00    +0.000 C 
ATOM     21  C   UNL     1       5.948   2.913  11.906  0.00  0.00    +0.000 C 
ENDBRANCH  18  21
ENDBRANCH  17  18
ENDBRANCH  13  17
ENDBRANCH  12  15
ENDBRANCH   1  12
TORSDOF 6
ENDMDL
MODEL 4
REMARK VINA RESULT:      -6.8      1.524      1.880
REMARK  Name = 
REMARK  7 active torsions:
REMARK  status: ('A' for Active; 'I' for Inactive)
REMARK    1  A    between atoms: C_1  and  C_2
REMARK    2  A    between atoms: C_2  and  N_3
REMARK    3  A    between atoms: N_3  and  C_4
REMARK    4  A    between atoms: C_4  and  C_5
REMARK    5  A    between atoms: N_7  and  C_8
REMARK    6  A    between atoms: C_8  and  C_9
REMARK    7  A    between atoms: C_9  and  C_10
REMARK                            x       y       z     vdW  Elec       q    Type
REMARK                         _______ _______ _______ _____ _____    ______ ____
ROOT
ATOM      1  C   UNL     1       5.005   3.982  17.167  0.00  0.00    +0.000 C 
ENDROOT
BRANCH   1   2
ATOM      2  C   UNL     1       4.104   4.578  18.202  0.00  0.00    +0.000 A 
ATOM      3  C   UNL     1       4.329   5.723  18.939  0.00  0.00    +0.000 A 
ATOM      4  N   UNL     1       3.316   5.850  19.854  0.00  0.00    +0.000 N 
ATOM      5  C   UNL     1       2.434   4.803  19.736  0.00  0.00    +0.000 A 
ATOM      6  C   UNL     1       1.291   4.495  20.485  0.00  0.00    +0.000 A 
ATOM      7  C   UNL     1       0.580   3.341  20.135  0.00  0.00    +0.000 A 
ATOM      8  C   UNL     1       0.988   2.541  19.070  0.00  0.00    +0.000 A 
ATOM      9  C   UNL     1       2.134   2.862  18.337  0.00  0.00    +0.000 A 
ATOM     10  C   UNL     1       2.879   4.009  18.681  0.00  0.00    +0.000 A 
ATOM     11  H   UNL     1       3.242   6.586  20.543  0.00  0.00    +0.000 HD
ENDBRANCH   1   2
BRANCH   1  12
ATOM     12  C   UNL     1       5.348   5.021  16.098  0.00  0.00    +0.000 C 
BRANCH  12  15
ATOM     13  C   UNL     1       6.601   4.666  14.032  0.00  0.00    +0.000 C 
ATOM     14  O   UNL     1       7.631   5.153  14.505  0.00  0.00    +0.000 OA
ATOM     15  N   UNL     1       5.444   4.485  14.758  0.00  0.00    +0.000 N 
ATOM     16  H   UNL     1       4.621   4.159  14.260  0.00  0.00    +0.000 HD
BRANCH  13  17
ATOM     17  C   UNL     1       6.519   4.214  12.573  0.00  0.00    +0.000 C 
BRANCH  17  18
ATOM     18  N   UNL     1       6.517   2.740  12.463  0.00  0.00    +0.000 NA
ATOM     19  H   UNL     1       7.412   2.454  12.072  0.00  0.00    +0.000 HD
BRANCH  18  21
ATOM     20  C   UNL     1       4.372   3.347  11.460  0.00  0.00    +0.000 C 
ATOM     21  C   UNL     1       5.452   2.282  11.559  0.00  0.00    +0.000 C 
ENDBRANCH  18  21
ENDBRANCH  17  18
ENDBRANCH  13  17
ENDBRANCH  12  15
ENDBRANCH   1  12
TORSDOF 6
ENDMDL
MODEL 5
REMARK VINA RESULT:      -6.8      1.731      2.189
REMARK  Name = 
REMARK  7 active torsions:
REMARK  status: ('A' for Active; 'I' for Inactive)
REMARK    1  A    between atoms: C_1  and  C_2
REMARK    2  A    between atoms: C_2  and  N_3
REMARK    3  A    between atoms: N_3  and  C_4
REMARK    4  A    between atoms: C_4  and  C_5
REMARK    5  A    between atoms: N_7  and  C_8
REMARK    6  A    between atoms: C_8  and  C_9
REMARK    7  A    between atoms: C_9  and  C_10
REMARK                            x       y       z     vdW  Elec       q    Type
REMARK                         _______ _______ _______ _____ _____    ______ ____
ROOT
ATOM      1  C   UNL     1       3.995   6.539  17.628  0.00  0.00    +0.000 C 
ENDROOT
BRANCH   1   2
ATOM      2  C   UNL     1       3.014   6.136  18.683  0.00  0.00    +0.000 A 
ATOM      3  C   UNL     1       2.662   6.854  19.808  0.00  0.00    +0.000 A 
ATOM      4  N   UNL     1       1.825   6.079  20.568  0.00  0.00    +0.000 N 
ATOM      5  C   UNL     1       1.627   4.861  19.964  0.00  0.00    +0.000 A 
ATOM      6  C   UNL     1       0.896   3.747  20.395  0.00  0.00    +0.000 A 
ATOM      7  C   UNL     1       0.877   2.623  19.562  0.00  0.00    +0.000 A 
ATOM      8  C   UNL     1       1.548   2.623  18.341  0.00  0.00    +0.000 A 
ATOM      9  C   UNL     1       2.276   3.743  17.929  0.00  0.00    +0.000 A 
ATOM     10  C   UNL     1       2.327   4.881  18.760  0.00  0.00    +0.000 A 
ATOM     11  H   UNL     1       1.435   6.345  21.461  0.00  0.00    +0.000 HD
ENDBRANCH   1   2
BRANCH   1  12
ATOM     12  C   UNL     1       5.298   5.753  17.787  0.00  0.00    +0.000 C 
BRANCH  12  15
ATOM     13  C   UNL     1       6.829   5.526  15.898  0.00  0.00    +0.000 C 
ATOM     14  O   UNL     1       7.567   6.423  16.312  0.00  0.00    +0.000 OA
ATOM     15  N   UNL     1       5.729   5.068  16.589  0.00  0.00    +0.000 N 
ATOM     16  H   UNL     1       5.132   4.388  16.127  0.00  0.00    +0.000 HD
BRANCH  13  17
ATOM     17  C   UNL     1       7.079   4.832  14.558  0.00  0.00    +0.000 C 
BRANCH  17  18
ATOM     18  N   UNL     1       6.225   3.637  14.400  0.00  0.00    +0.000 NA
ATOM     19  H   UNL     1       6.796   2.816  14.587  0.00  0.00    +0.000 HD
BRANCH  18  21
ATOM     20  C   UNL     1       6.850   3.721  12.039  0.00  0.00    +0.000 C 
ATOM     21  C   UNL     1       5.710   3.536  13.026  0.00  0.00    +0.000 C 
ENDBRANCH  18  21
ENDBRANCH  17  18
ENDBRANCH  13  17
ENDBRANCH  12  15
ENDBRANCH   1  12
TORSDOF 6
ENDMDL
MODEL 6
REMARK VINA RESULT:      -6.6      1.839      2.291
REMARK  Name = 
REMARK  7 active torsions:
REMARK  status: ('A' for Active; 'I' for Inactive)
REMARK    1  A    between atoms: C_1  and  C_2
REMARK    2  A    between atoms: C_2  and  N_3
REMARK    3  A    between atoms: N_3  and  C_4
REMARK    4  A    between atoms: C_4  and  C_5
REMARK    5  A    between atoms: N_7  and  C_8
REMARK    6  A    between atoms: C_8  and  C_9
REMARK    7  A    between atoms: C_9  and  C_10
REMARK                            x       y       z     vdW  Elec       q    Type
REMARK                         _______ _______ _______ _____ _____    ______ ____
ROOT
ATOM      1  C   UNL     1       6.079   5.359  18.761  0.00  0.00    +0.000 C 
ENDROOT
BRANCH   1   2
ATOM      2  C   UNL     1       4.616   5.349  18.453  0.00  0.00    +0.000 A 
ATOM      3  C   UNL     1       3.798   6.445  18.268  0.00  0.00    +0.000 A 
ATOM      4  N   UNL     1       2.509   6.000  18.126  0.00  0.00    +0.000 N 
ATOM      5  C   UNL     1       2.466   4.631  18.222  0.00  0.00    +0.000 A 
ATOM      6  C   UNL     1       1.372   3.756  18.188  0.00  0.00    +0.000 A 
ATOM      7  C   UNL     1       1.633   2.387  18.319  0.00  0.00    +0.000 A 
ATOM      8  C   UNL     1       2.936   1.915  18.463  0.00  0.00    +0.000 A 
ATOM      9  C   UNL     1       4.015   2.804  18.499  0.00  0.00    +0.000 A 
ATOM     10  C   UNL     1       3.776   4.189  18.388  0.00  0.00    +0.000 A 
ATOM     11  H   UNL     1       1.699   6.591  18.002  0.00  0.00    +0.000 HD
ENDBRANCH   1   2
BRANCH   1  12
ATOM     12  C   UNL     1       6.846   6.113  17.672  0.00  0.00    +0.000 C 
BRANCH  12  15
ATOM     13  C   UNL     1       6.421   5.454  15.359  0.00  0.00    +0.000 C 
ATOM     14  O   UNL     1       5.563   6.327  15.207  0.00  0.00    +0.000 OA
ATOM     15  N   UNL     1       7.166   5.314  16.510  0.00  0.00    +0.000 N 
ATOM     16  H   UNL     1       7.785   4.511  16.575  0.00  0.00    +0.000 HD
BRANCH  13  17
ATOM     17  C   UNL     1       6.737   4.435  14.264  0.00  0.00    +0.000 C 
BRANCH  17  18
ATOM     18  N   UNL     1       5.505   3.918  13.633  0.00  0.00    +0.000 NA
ATOM     19  H   UNL     1       5.118   3.201  14.243  0.00  0.00    +0.000 HD
BRANCH  18  21
ATOM     20  C   UNL     1       4.518   3.192  11.519  0.00  0.00    +0.000 C 
ATOM     21  C   UNL     1       5.799   3.305  12.329  0.00  0.00    +0.000 C 
ENDBRANCH  18  21
ENDBRANCH  17  18
ENDBRANCH  13  17
ENDBRANCH  12  15
ENDBRANCH   1  12
TORSDOF 6
ENDMDL
MODEL 7
REMARK VINA RESULT:      -6.6      1.399      1.613
REMARK  Name = 
REMARK  7 active torsions:
REMARK  status: ('A' for Active; 'I' for Inactive)
REMARK    1  A    between atoms: C_1  and  C_2
REMARK    2  A    between atoms: C_2  and  N_3
REMARK    3  A    between atoms: N_3  and  C_4
REMARK    4  A    between atoms: C_4  and  C_5
REMARK    5  A    between atoms: N_7  and  C_8
REMARK    6  A    between atoms: C_8  and  C_9
REMARK    7  A    between atoms: C_9  and  C_10
REMARK                            x       y       z     vdW  Elec       q    Type
REMARK                         _______ _______ _______ _____ _____    ______ ____
ROOT
ATOM      1  C   UNL     1       5.497   4.274  18.040  0.00  0.00    +0.000 C 
ENDROOT
BRANCH   1   2
ATOM      2  C   UNL     1       4.262   3.474  18.308  0.00  0.00    +0.000 A 
ATOM      3  C   UNL     1       3.898   2.284  17.712  0.00  0.00    +0.000 A 
ATOM      4  N   UNL     1       2.644   1.949  18.154  0.00  0.00    +0.000 N 
ATOM      5  C   UNL     1       2.176   2.904  19.024  0.00  0.00    +0.000 A 
ATOM      6  C   UNL     1       0.940   3.005  19.676  0.00  0.00    +0.000 A 
ATOM      7  C   UNL     1       0.738   4.108  20.512  0.00  0.00    +0.000 A 
ATOM      8  C   UNL     1       1.737   5.061  20.699  0.00  0.00    +0.000 A 
ATOM      9  C   UNL     1       2.962   4.947  20.035  0.00  0.00    +0.000 A 
ATOM     10  C   UNL     1       3.184   3.854  19.173  0.00  0.00    +0.000 A 
ATOM     11  H   UNL     1       2.120   1.137  17.859  0.00  0.00    +0.000 HD
ENDBRANCH   1   2
BRANCH   1  12
ATOM     12  C   UNL     1       5.269   5.228  16.866  0.00  0.00    +0.000 C 
BRANCH  12  15
ATOM     13  C   UNL     1       6.616   4.795  14.875  0.00  0.00    +0.000 C 
ATOM     14  O   UNL     1       7.611   5.340  15.359  0.00  0.00    +0.000 OA
ATOM     15  N   UNL     1       5.436   4.620  15.564  0.00  0.00    +0.000 N 
ATOM     16  H   UNL     1       4.645   4.240  15.054  0.00  0.00    +0.000 HD
BRANCH  13  17
ATOM     17  C   UNL     1       6.608   4.257  13.444  0.00  0.00    +0.000 C 
BRANCH  17  18
ATOM     18  N   UNL     1       5.282   3.718  13.076  0.00  0.00    +0.000 NA
ATOM     19  H   UNL     1       5.015   3.035  13.781  0.00  0.00    +0.000 HD
BRANCH  18  21
ATOM     20  C   UNL     1       3.989   3.165  11.077  0.00  0.00    +0.000 C 
ATOM     21  C   UNL     1       5.334   3.039  11.773  0.00  0.00    +0.000 C 
ENDBRANCH  18  21
ENDBRANCH  17  18
ENDBRANCH  13  17
ENDBRANCH  12  15
ENDBRANCH   1  12
TORSDOF 6
ENDMDL
MODEL 8
REMARK VINA RESULT:      -6.6      1.870      2.933
REMARK  Name = 
REMARK  7 active torsions:
REMARK  status: ('A' for Active; 'I' for Inactive)
REMARK    1  A    between atoms: C_1  and  C_2
REMARK    2  A    between atoms: C_2  and  N_3
REMARK    3  A    between atoms: N_3  and  C_4
REMARK    4  A    between atoms: C_4  and  C_5
REMARK    5  A    between atoms: N_7  and  C_8
REMARK    6  A    between atoms: C_8  and  C_9
REMARK    7  A    between atoms: C_9  and  C_10
REMARK                            x       y       z     vdW  Elec       q    Type
REMARK                         _______ _______ _______ _____ _____    ______ ____
ROOT
ATOM      1  C   UNL     1       3.969   4.057  17.781  0.00  0.00    +0.000 C 
ENDROOT
BRANCH   1   2
ATOM      2  C   UNL     1       3.344   4.890  18.855  0.00  0.00    +0.000 A 
ATOM      3  C   UNL     1       2.964   4.472  20.114  0.00  0.00    +0.000 A 
ATOM      4  N   UNL     1       2.327   5.513  20.738  0.00  0.00    +0.000 N 
ATOM      5  C   UNL     1       2.275   6.605  19.906  0.00  0.00    +0.000 A 
ATOM      6  C   UNL     1       1.683   7.860  20.097  0.00  0.00    +0.000 A 
ATOM      7  C   UNL     1       1.784   8.790  19.055  0.00  0.00    +0.000 A 
ATOM      8  C   UNL     1       2.463   8.479  17.879  0.00  0.00    +0.000 A 
ATOM      9  C   UNL     1       3.044   7.219  17.704  0.00  0.00    +0.000 A 
ATOM     10  C   UNL     1       2.940   6.259  18.731  0.00  0.00    +0.000 A 
ATOM     11  H   UNL     1       1.921   5.479  21.662  0.00  0.00    +0.000 HD
ENDBRANCH   1   2
BRANCH   1  12
ATOM     12  C   UNL     1       5.475   4.321  17.712  0.00  0.00    +0.000 C 
BRANCH  12  15
ATOM     13  C   UNL     1       6.586   5.033  15.656  0.00  0.00    +0.000 C 
ATOM     14  O   UNL     1       6.688   6.199  16.046  0.00  0.00    +0.000 OA
ATOM     15  N   UNL     1       6.073   4.015  16.431  0.00  0.00    +0.000 N 
ATOM     16  H   UNL     1       5.948   3.108  15.993  0.00  0.00    +0.000 HD
BRANCH  13  17
ATOM     17  C   UNL     1       7.027   4.610  14.255  0.00  0.00    +0.000 C 
BRANCH  17  18
ATOM     18  N   UNL     1       6.201   3.499  13.738  0.00  0.00    +0.000 NA
ATOM     19  H   UNL     1       6.595   2.627  14.085  0.00  0.00    +0.000 HD
BRANCH  18  21
ATOM     20  C   UNL     1       4.833   3.158  11.742  0.00  0.00    +0.000 C 
ATOM     21  C   UNL     1       6.225   3.465  12.268  0.00  0.00    +0.000 C 
ENDBRANCH  18  21
ENDBRANCH  17  18
ENDBRANCH  13  17
ENDBRANCH  12  15
ENDBRANCH   1  12
TORSDOF 6
ENDMDL
MODEL 9
REMARK VINA RESULT:      -6.6      3.052      4.601
REMARK  Name = 
REMARK  7 active torsions:
REMARK  status: ('A' for Active; 'I' for Inactive)
REMARK    1  A    between atoms: C_1  and  C_2
REMARK    2  A    between atoms: C_2  and  N_3
REMARK    3  A    between atoms: N_3  and  C_4
REMARK    4  A    between atoms: C_4  and  C_5
REMARK    5  A    between atoms: N_7  and  C_8
REMARK    6  A    between atoms: C_8  and  C_9
REMARK    7  A    between atoms: C_9  and  C_10
REMARK                            x       y       z     vdW  Elec       q    Type
REMARK                         _______ _______ _______ _____ _____    ______ ____
ROOT
ATOM      1  C   UNL     1       2.960   4.538  17.585  0.00  0.00    +0.000 C 
ENDROOT
BRANCH   1   2
ATOM      2  C   UNL     1       2.637   5.355  18.795  0.00  0.00    +0.000 A 
ATOM      3  C   UNL     1       2.525   4.906  20.095  0.00  0.00    +0.000 A 
ATOM      4  N   UNL     1       2.101   5.950  20.876  0.00  0.00    +0.000 N 
ATOM      5  C   UNL     1       1.926   7.076  20.109  0.00  0.00    +0.000 A 
ATOM      6  C   UNL     1       1.462   8.349  20.464  0.00  0.00    +0.000 A 
ATOM      7  C   UNL     1       1.380   9.314  19.454  0.00  0.00    +0.000 A 
ATOM      8  C   UNL     1       1.762   9.019  18.146  0.00  0.00    +0.000 A 
ATOM      9  C   UNL     1       2.218   7.741  17.809  0.00  0.00    +0.000 A 
ATOM     10  C   UNL     1       2.292   6.747  18.805  0.00  0.00    +0.000 A 
ATOM     11  H   UNL     1       1.910   5.897  21.866  0.00  0.00    +0.000 HD
ENDBRANCH   1   2
BRANCH   1  12
ATOM     12  C   UNL     1       3.978   3.451  17.933  0.00  0.00    +0.000 C 
BRANCH  12  15
ATOM     13  C   UNL     1       6.221   4.366  18.246  0.00  0.00    +0.000 C 
ATOM     14  O   UNL     1       6.007   4.640  19.430  0.00  0.00    +0.000 OA
ATOM     15  N   UNL     1       5.314   3.709  17.443  0.00  0.00    +0.000 N 
ATOM     16  H   UNL     1       5.545   3.606  16.460  0.00  0.00    +0.000 HD
BRANCH  13  17
ATOM     17  C   UNL     1       7.534   4.737  17.558  0.00  0.00    +0.000 C 
BRANCH  17  18
ATOM     18  N   UNL     1       7.524   6.140  17.092  0.00  0.00    +0.000 NA
ATOM     19  H   UNL     1       8.221   6.231  16.356  0.00  0.00    +0.000 HD
BRANCH  18  21
ATOM     20  C   UNL     1       7.888   8.487  17.666  0.00  0.00    +0.000 C 
ATOM     21  C   UNL     1       7.882   7.058  18.183  0.00  0.00    +0.000 C 
ENDBRANCH  18  21
ENDBRANCH  17  18
ENDBRANCH  13  17
ENDBRANCH  12  15
ENDBRANCH   1  12
TORSDOF 6
ENDMDL
