MODEL 1
REMARK VINA RESULT:      -7.8      0.000      0.000
REMARK  Name = 
REMARK  7 active torsions:
REMARK  status: ('A' for Active; 'I' for Inactive)
REMARK    1  A    between atoms: C_1  and  N_2
REMARK    2  A    between atoms: C_3  and  C_5
REMARK    3  A    between atoms: C_5  and  C_6
REMARK    4  A    between atoms: C_5  and  S_11
REMARK    5  A    between atoms: S_11  and  C_13
REMARK    6  A    between atoms: C_15  and  C_16
REMARK    7  A    between atoms: C_19  and  C_20
REMARK                            x       y       z     vdW  Elec       q    Type
REMARK                         _______ _______ _______ _____ _____    ______ ____
ROOT
ATOM      1  C   UNL     1       6.055   5.960  17.524  0.00  0.00    +0.000 C 
ENDROOT
BRANCH   1   4
ATOM      2  C   UNL     1       8.206   9.105  17.769  0.00  0.00    +0.000 C 
ATOM      3  N   UNL     1       7.243   8.118  17.351  0.00  0.00    +0.000 N 
ATOM      4  C   UNL     1       7.209   6.867  17.952  0.00  0.00    +0.000 C 
ATOM      5  O   UNL     1       8.071   6.518  18.762  0.00  0.00    +0.000 OA
ATOM      6  H   UNL     1       6.455   8.431  16.795  0.00  0.00    +0.000 HD
ENDBRANCH   1   4
BRANCH   1   7
ATOM      7  C   UNL     1       6.325   5.414  16.156  0.00  0.00    +0.000 A 
ATOM      8  C   UNL     1       5.592   4.472  15.446  0.00  0.00    +0.000 A 
ATOM      9  S   UNL     1       6.414   4.179  13.971  0.00  0.00    +0.000 S 
ATOM     10  N   UNL     1       7.634   5.263  14.329  0.00  0.00    +0.000 NA
ATOM     11  N   UNL     1       7.478   5.847  15.504  0.00  0.00    +0.000 NA
ENDBRANCH   1   7
BRANCH   1  12
ATOM     12  S   UNL     1       5.885   4.647  18.785  0.00  0.00    +0.000 S 
ATOM     13  O   UNL     1       6.790   5.065  20.004  0.00  0.00    +0.000 OA
BRANCH  12  14
ATOM     14  C   UNL     1       4.178   4.929  19.351  0.00  0.00    +0.000 A 
ATOM     15  C   UNL     1       3.644   6.228  19.324  0.00  0.00    +0.000 A 
ATOM     16  C   UNL     1       2.379   6.504  19.858  0.00  0.00    +0.000 A 
ATOM     17  C   UNL     1       1.818   7.896  19.847  0.00  0.00    +0.000 C 
ATOM     18  C   UNL     1       1.647   5.466  20.439  0.00  0.00    +0.000 A 
ATOM     19  C   UNL     1       2.171   4.174  20.483  0.00  0.00    +0.000 A 
ATOM     20  C   UNL     1       3.436   3.887  19.945  0.00  0.00    +0.000 A 
ATOM     21  C   UNL     1       3.968   2.484  20.070  0.00  0.00    +0.000 C 
ENDBRANCH  12  14
ENDBRANCH   1  12
TORSDOF 4
ENDMDL
MODEL 2
REMARK VINA RESULT:      -7.7      1.690      1.917
REMARK  Name = 
REMARK  7 active torsions:
REMARK  status: ('A' for Active; 'I' for Inactive)
REMARK    1  A    between atoms: C_1  and  N_2
REMARK    2  A    between atoms: C_3  and  C_5
REMARK    3  A    between atoms: C_5  and  C_6
REMARK    4  A    between atoms: C_5  and  S_11
REMARK    5  A    between atoms: S_11  and  C_13
REMARK    6  A    between atoms: C_15  and  C_16
REMARK    7  A    between atoms: C_19  and  C_20
REMARK                            x       y       z     vdW  Elec       q    Type
REMARK                         _______ _______ _______ _____ _____    ______ ____
ROOT
ATOM      1  C   UNL     1       6.047   5.119  17.400  0.00  0.00    +0.000 C 
ENDROOT
BRANCH   1   4
ATOM      2  C   UNL     1       8.486   5.320  20.330  0.00  0.00    +0.000 C 
ATOM      3  N   UNL     1       7.391   5.557  19.425  0.00  0.00    +0.000 N 
ATOM      4  C   UNL     1       7.325   4.891  18.208  0.00  0.00    +0.000 C 
ATOM      5  O   UNL     1       8.252   4.182  17.812  0.00  0.00    +0.000 OA
ATOM      6  H   UNL     1       6.568   6.023  19.789  0.00  0.00    +0.000 HD
ENDBRANCH   1   4
BRANCH   1   7
ATOM      7  C   UNL     1       6.320   4.874  15.948  0.00  0.00    +0.000 A 
ATOM      8  C   UNL     1       5.740   3.929  15.112  0.00  0.00    +0.000 A 
ATOM      9  S   UNL     1       6.492   4.062  13.578  0.00  0.00    +0.000 S 
ATOM     10  N   UNL     1       7.492   5.306  14.074  0.00  0.00    +0.000 NA
ATOM     11  N   UNL     1       7.309   5.643  15.339  0.00  0.00    +0.000 NA
ENDBRANCH   1   7
BRANCH   1  12
ATOM     12  S   UNL     1       4.762   4.004  18.071  0.00  0.00    +0.000 S 
ATOM     13  O   UNL     1       5.357   3.356  19.377  0.00  0.00    +0.000 OA
BRANCH  12  14
ATOM     14  C   UNL     1       3.534   5.209  18.665  0.00  0.00    +0.000 A 
ATOM     15  C   UNL     1       3.429   6.461  18.035  0.00  0.00    +0.000 A 
ATOM     16  C   UNL     1       2.579   7.456  18.534  0.00  0.00    +0.000 A 
ATOM     17  C   UNL     1       2.484   8.800  17.872  0.00  0.00    +0.000 C 
ATOM     18  C   UNL     1       1.836   7.197  19.688  0.00  0.00    +0.000 A 
ATOM     19  C   UNL     1       1.940   5.963  20.330  0.00  0.00    +0.000 A 
ATOM     20  C   UNL     1       2.785   4.958  19.833  0.00  0.00    +0.000 A 
ATOM     21  C   UNL     1       2.893   3.667  20.600  0.00  0.00    +0.000 C 
ENDBRANCH  12  14
ENDBRANCH   1  12
TORSDOF 4
ENDMDL
MODEL 3
REMARK VINA RESULT:      -7.7      3.683      6.221
REMARK  Name = 
REMARK  7 active torsions:
REMARK  status: ('A' for Active; 'I' for Inactive)
REMARK    1  A    between atoms: C_1  and  N_2
REMARK    2  A    between atoms: C_3  and  C_5
REMARK    3  A    between atoms: C_5  and  C_6
REMARK    4  A    between atoms: C_5  and  S_11
REMARK    5  A    between atoms: S_11  and  C_13
REMARK    6  A    between atoms: C_15  and  C_16
REMARK    7  A    between atoms: C_19  and  C_20
REMARK                            x       y       z     vdW  Elec       q    Type
REMARK                         _______ _______ _______ _____ _____    ______ ____
ROOT
ATOM      1  C   UNL     1       2.773   4.330  18.706  0.00  0.00    +0.000 C 
ENDROOT
BRANCH   1   4
ATOM      2  C   UNL     1       1.390   2.596  21.813  0.00  0.00    +0.000 C 
ATOM      3  N   UNL     1       2.261   3.227  20.855  0.00  0.00    +0.000 N 
ATOM      4  C   UNL     1       1.803   3.536  19.581  0.00  0.00    +0.000 C 
ATOM      5  O   UNL     1       0.693   3.169  19.190  0.00  0.00    +0.000 OA
ATOM      6  H   UNL     1       3.115   3.651  21.199  0.00  0.00    +0.000 HD
ENDBRANCH   1   4
BRANCH   1   7
ATOM      7  C   UNL     1       2.482   5.794  18.834  0.00  0.00    +0.000 A 
ATOM      8  C   UNL     1       2.550   6.773  17.851  0.00  0.00    +0.000 A 
ATOM      9  S   UNL     1       2.181   8.275  18.588  0.00  0.00    +0.000 S 
ATOM     10  N   UNL     1       1.956   7.585  20.093  0.00  0.00    +0.000 NA
ATOM     11  N   UNL     1       2.145   6.277  20.096  0.00  0.00    +0.000 NA
ENDBRANCH   1   7
BRANCH   1  12
ATOM     12  S   UNL     1       4.472   3.903  19.232  0.00  0.00    +0.000 S 
ATOM     13  O   UNL     1       4.580   2.332  19.191  0.00  0.00    +0.000 OA
BRANCH  12  14
ATOM     14  C   UNL     1       5.434   4.476  17.798  0.00  0.00    +0.000 A 
ATOM     15  C   UNL     1       5.062   4.068  16.505  0.00  0.00    +0.000 A 
ATOM     16  C   UNL     1       5.843   4.393  15.389  0.00  0.00    +0.000 A 
ATOM     17  C   UNL     1       5.455   3.939  14.012  0.00  0.00    +0.000 C 
ATOM     18  C   UNL     1       7.019   5.122  15.574  0.00  0.00    +0.000 A 
ATOM     19  C   UNL     1       7.406   5.522  16.852  0.00  0.00    +0.000 A 
ATOM     20  C   UNL     1       6.626   5.207  17.977  0.00  0.00    +0.000 A 
ATOM     21  C   UNL     1       7.124   5.622  19.336  0.00  0.00    +0.000 C 
ENDBRANCH  12  14
ENDBRANCH   1  12
TORSDOF 4
ENDMDL
MODEL 4
REMARK VINA RESULT:      -7.6      1.338      1.461
REMARK  Name = 
REMARK  7 active torsions:
REMARK  status: ('A' for Active; 'I' for Inactive)
REMARK    1  A    between atoms: C_1  and  N_2
REMARK    2  A    between atoms: C_3  and  C_5
REMARK    3  A    between atoms: C_5  and  C_6
REMARK    4  A    between atoms: C_5  and  S_11
REMARK    5  A    between atoms: S_11  and  C_13
REMARK    6  A    between atoms: C_15  and  C_16
REMARK    7  A    between atoms: C_19  and  C_20
REMARK                            x       y       z     vdW  Elec       q    Type
REMARK                         _______ _______ _______ _____ _____    ______ ____
ROOT
ATOM      1  C   UNL     1       5.192   5.406  16.779  0.00  0.00    +0.000 C 
ENDROOT
BRANCH   1   4
ATOM      2  C   UNL     1       7.834   7.956  17.826  0.00  0.00    +0.000 C 
ATOM      3  N   UNL     1       7.156   6.737  17.464  0.00  0.00    +0.000 N 
ATOM      4  C   UNL     1       5.777   6.718  17.302  0.00  0.00    +0.000 C 
ATOM      5  O   UNL     1       5.083   7.698  17.583  0.00  0.00    +0.000 OA
ATOM      6  H   UNL     1       7.715   5.974  17.101  0.00  0.00    +0.000 HD
ENDBRANCH   1   4
BRANCH   1   7
ATOM      7  C   UNL     1       5.883   5.017  15.509  0.00  0.00    +0.000 A 
ATOM      8  C   UNL     1       5.470   4.101  14.551  0.00  0.00    +0.000 A 
ATOM      9  S   UNL     1       6.693   4.013  13.354  0.00  0.00    +0.000 S 
ATOM     10  N   UNL     1       7.656   5.139  14.126  0.00  0.00    +0.000 NA
ATOM     11  N   UNL     1       7.124   5.592  15.248  0.00  0.00    +0.000 NA
ENDBRANCH   1   7
BRANCH   1  12
ATOM     12  S   UNL     1       5.383   4.152  18.096  0.00  0.00    +0.000 S 
ATOM     13  O   UNL     1       6.284   4.799  19.215  0.00  0.00    +0.000 OA
BRANCH  12  14
ATOM     14  C   UNL     1       3.705   4.130  18.801  0.00  0.00    +0.000 A 
ATOM     15  C   UNL     1       3.214   5.271  19.458  0.00  0.00    +0.000 A 
ATOM     16  C   UNL     1       1.976   5.255  20.113  0.00  0.00    +0.000 A 
ATOM     17  C   UNL     1       1.463   6.467  20.832  0.00  0.00    +0.000 C 
ATOM     18  C   UNL     1       1.228   4.075  20.120  0.00  0.00    +0.000 A 
ATOM     19  C   UNL     1       1.710   2.933  19.482  0.00  0.00    +0.000 A 
ATOM     20  C   UNL     1       2.947   2.941  18.818  0.00  0.00    +0.000 A 
ATOM     21  C   UNL     1       3.436   1.662  18.193  0.00  0.00    +0.000 C 
ENDBRANCH  12  14
ENDBRANCH   1  12
TORSDOF 4
ENDMDL
MODEL 5
REMARK VINA RESULT:      -7.5      3.667      6.287
REMARK  Name = 
REMARK  7 active torsions:
REMARK  status: ('A' for Active; 'I' for Inactive)
REMARK    1  A    between atoms: C_1  and  N_2
REMARK    2  A    between atoms: C_3  and  C_5
REMARK    3  A    between atoms: C_5  and  C_6
REMARK    4  A    between atoms: C_5  and  S_11
REMARK    5  A    between atoms: S_11  and  C_13
REMARK    6  A    between atoms: C_15  and  C_16
REMARK    7  A    between atoms: C_19  and  C_20
REMARK                            x       y       z     vdW  Elec       q    Type
REMARK                         _______ _______ _______ _____ _____    ______ ____
ROOT
ATOM      1  C   UNL     1       2.869   5.818  18.106  0.00  0.00    +0.000 C 
ENDROOT
BRANCH   1   4
ATOM      2  C   UNL     1       0.641   3.403  20.050  0.00  0.00    +0.000 C 
ATOM      3  N   UNL     1       1.641   4.375  19.690  0.00  0.00    +0.000 N 
ATOM      4  C   UNL     1       1.889   4.671  18.356  0.00  0.00    +0.000 C 
ATOM      5  O   UNL     1       1.361   4.029  17.446  0.00  0.00    +0.000 OA
ATOM      6  H   UNL     1       1.979   4.998  20.415  0.00  0.00    +0.000 HD
ENDBRANCH   1   4
BRANCH   1   7
ATOM      7  C   UNL     1       2.283   7.100  18.610  0.00  0.00    +0.000 A 
ATOM      8  C   UNL     1       1.941   8.233  17.884  0.00  0.00    +0.000 A 
ATOM      9  S   UNL     1       1.385   9.414  18.995  0.00  0.00    +0.000 S 
ATOM     10  N   UNL     1       1.609   8.411  20.313  0.00  0.00    +0.000 NA
ATOM     11  N   UNL     1       2.087   7.224  19.984  0.00  0.00    +0.000 NA
ENDBRANCH   1   7
BRANCH   1  12
ATOM     12  S   UNL     1       4.443   5.391  18.934  0.00  0.00    +0.000 S 
ATOM     13  O   UNL     1       4.266   3.946  19.534  0.00  0.00    +0.000 OA
BRANCH  12  14
ATOM     14  C   UNL     1       5.541   5.170  17.499  0.00  0.00    +0.000 A 
ATOM     15  C   UNL     1       4.998   4.773  16.265  0.00  0.00    +0.000 A 
ATOM     16  C   UNL     1       5.821   4.482  15.170  0.00  0.00    +0.000 A 
ATOM     17  C   UNL     1       5.241   4.037  13.859  0.00  0.00    +0.000 C 
ATOM     18  C   UNL     1       7.207   4.575  15.320  0.00  0.00    +0.000 A 
ATOM     19  C   UNL     1       7.758   4.956  16.542  0.00  0.00    +0.000 A 
ATOM     20  C   UNL     1       6.941   5.257  17.644  0.00  0.00    +0.000 A 
ATOM     21  C   UNL     1       7.598   5.611  18.951  0.00  0.00    +0.000 C 
ENDBRANCH  12  14
ENDBRANCH   1  12
TORSDOF 4
ENDMDL
MODEL 6
REMARK VINA RESULT:      -7.2      1.103      1.123
REMARK  Name = 
REMARK  7 active torsions:
REMARK  status: ('A' for Active; 'I' for Inactive)
REMARK    1  A    between atoms: C_1  and  N_2
REMARK    2  A    between atoms: C_3  and  C_5
REMARK    3  A    between atoms: C_5  and  C_6
REMARK    4  A    between atoms: C_5  and  S_11
REMARK    5  A    between atoms: S_11  and  C_13
REMARK    6  A    between atoms: C_15  and  C_16
REMARK    7  A    between atoms: C_19  and  C_20
REMARK                            x       y       z     vdW  Elec       q    Type
REMARK                         _______ _______ _______ _____ _____    ______ ____
ROOT
ATOM      1  C   UNL     1       5.778   5.490  16.741  0.00  0.00    +0.000 C 
ENDROOT
BRANCH   1   4
ATOM      2  C   UNL     1       7.800   8.585  17.694  0.00  0.00    +0.000 C 
ATOM      3  N   UNL     1       6.825   7.694  17.118  0.00  0.00    +0.000 N 
ATOM      4  C   UNL     1       6.947   6.320  17.273  0.00  0.00    +0.000 C 
ATOM      5  O   UNL     1       7.946   5.817  17.791  0.00  0.00    +0.000 OA
ATOM      6  H   UNL     1       5.943   8.090  16.815  0.00  0.00    +0.000 HD
ENDBRANCH   1   4
BRANCH   1   7
ATOM      7  C   UNL     1       6.079   5.035  15.346  0.00  0.00    +0.000 A 
ATOM      8  C   UNL     1       5.386   4.110  14.575  0.00  0.00    +0.000 A 
ATOM      9  S   UNL     1       6.228   3.935  13.093  0.00  0.00    +0.000 S 
ATOM     10  N   UNL     1       7.403   5.042  13.524  0.00  0.00    +0.000 NA
ATOM     11  N   UNL     1       7.217   5.549  14.731  0.00  0.00    +0.000 NA
ENDBRANCH   1   7
BRANCH   1  12
ATOM     12  S   UNL     1       5.520   4.094  17.894  0.00  0.00    +0.000 S 
ATOM     13  O   UNL     1       6.448   4.355  19.140  0.00  0.00    +0.000 OA
BRANCH  12  14
ATOM     14  C   UNL     1       3.834   4.441  18.486  0.00  0.00    +0.000 A 
ATOM     15  C   UNL     1       3.551   5.680  19.087  0.00  0.00    +0.000 A 
ATOM     16  C   UNL     1       2.299   5.940  19.657  0.00  0.00    +0.000 A 
ATOM     17  C   UNL     1       2.005   7.255  20.318  0.00  0.00    +0.000 C 
ATOM     18  C   UNL     1       1.323   4.940  19.637  0.00  0.00    +0.000 A 
ATOM     19  C   UNL     1       1.595   3.703  19.055  0.00  0.00    +0.000 A 
ATOM     20  C   UNL     1       2.846   3.435  18.475  0.00  0.00    +0.000 A 
ATOM     21  C   UNL     1       3.096   2.063  17.909  0.00  0.00    +0.000 C 
ENDBRANCH  12  14
ENDBRANCH   1  12
TORSDOF 4
ENDMDL
MODEL 7
REMARK VINA RESULT:      -7.2      3.220      6.210
REMARK  Name = 
REMARK  7 active torsions:
REMARK  status: ('A' for Active; 'I' for Inactive)
REMARK    1  A    between atoms: C_1  and  N_2
REMARK    2  A    between atoms: C_3  and  C_5
REMARK    3  A    between atoms: C_5  and  C_6
REMARK    4  A    between atoms: C_5  and  S_11
REMARK    5  A    between atoms: S_11  and  C_13
REMARK    6  A    between atoms: C_15  and  C_16
REMARK    7  A    between atoms: C_19  and  C_20
REMARK                            x       y       z     vdW  Elec       q    Type
REMARK                         _______ _______ _______ _____ _____    ______ ____
ROOT
ATOM      1  C   UNL     1       2.974   4.824  18.799  0.00  0.00    +0.000 C 
ENDROOT
BRANCH   1   4
ATOM      2  C   UNL     1       1.594   2.657  21.624  0.00  0.00    +0.000 C 
ATOM      3  N   UNL     1       2.429   3.513  20.820  0.00  0.00    +0.000 N 
ATOM      4  C   UNL     1       2.090   3.794  19.503  0.00  0.00    +0.000 C 
ATOM      5  O   UNL     1       1.147   3.228  18.946  0.00  0.00    +0.000 OA
ATOM      6  H   UNL     1       3.118   4.085  21.295  0.00  0.00    +0.000 HD
ENDBRANCH   1   4
BRANCH   1   7
ATOM      7  C   UNL     1       2.517   6.206  19.155  0.00  0.00    +0.000 A 
ATOM      8  C   UNL     1       1.971   6.649  20.353  0.00  0.00    +0.000 A 
ATOM      9  S   UNL     1       1.571   8.304  20.161  0.00  0.00    +0.000 S 
ATOM     10  N   UNL     1       2.118   8.347  18.583  0.00  0.00    +0.000 NA
ATOM     11  N   UNL     1       2.590   7.184  18.167  0.00  0.00    +0.000 NA
ENDBRANCH   1   7
BRANCH   1  12
ATOM     12  S   UNL     1       4.703   4.505  19.301  0.00  0.00    +0.000 S 
ATOM     13  O   UNL     1       4.835   2.950  19.516  0.00  0.00    +0.000 OA
BRANCH  12  14
ATOM     14  C   UNL     1       5.583   4.837  17.743  0.00  0.00    +0.000 A 
ATOM     15  C   UNL     1       5.042   4.380  16.529  0.00  0.00    +0.000 A 
ATOM     16  C   UNL     1       5.744   4.515  15.325  0.00  0.00    +0.000 A 
ATOM     17  C   UNL     1       5.174   4.006  14.033  0.00  0.00    +0.000 C 
ATOM     18  C   UNL     1       7.011   5.103  15.341  0.00  0.00    +0.000 A 
ATOM     19  C   UNL     1       7.564   5.550  16.540  0.00  0.00    +0.000 A 
ATOM     20  C   UNL     1       6.865   5.425  17.752  0.00  0.00    +0.000 A 
ATOM     21  C   UNL     1       7.537   5.879  19.019  0.00  0.00    +0.000 C 
ENDBRANCH  12  14
ENDBRANCH   1  12
TORSDOF 4
ENDMDL
MODEL 8
REMARK VINA RESULT:      -7.1      1.771      2.761
REMARK  Name = 
REMARK  7 active torsions:
REMARK  status: ('A' for Active; 'I' for Inactive)
REMARK    1  A    between atoms: C_1  and  N_2
REMARK    2  A    between atoms: C_3  and  C_5
REMARK    3  A    between atoms: C_5  and  C_6
REMARK    4  A    between atoms: C_5  and  S_11
REMARK    5  A    between atoms: S_11  and  C_13
REMARK    6  A    between atoms: C_15  and  C_16
REMARK    7  A    between atoms: C_19  and  C_20
REMARK                            x       y       z     vdW  Elec       q    Type
REMARK                         _______ _______ _______ _____ _____    ______ ____
ROOT
ATOM      1  C   UNL     1       5.221   5.315  16.917  0.00  0.00    +0.000 C 
ENDROOT
BRANCH   1   4
ATOM      2  C   UNL     1       7.800   5.727  19.702  0.00  0.00    +0.000 C 
ATOM      3  N   UNL     1       7.008   5.914  18.513  0.00  0.00    +0.000 N 
ATOM      4  C   UNL     1       6.102   4.942  18.110  0.00  0.00    +0.000 C 
ATOM      5  O   UNL     1       6.038   3.847  18.674  0.00  0.00    +0.000 OA
ATOM      6  H   UNL     1       6.950   6.848  18.125  0.00  0.00    +0.000 HD
ENDBRANCH   1   4
BRANCH   1   7
ATOM      7  C   UNL     1       5.989   5.128  15.646  0.00  0.00    +0.000 A 
ATOM      8  C   UNL     1       5.634   4.384  14.528  0.00  0.00    +0.000 A 
ATOM      9  S   UNL     1       6.930   4.475  13.410  0.00  0.00    +0.000 S 
ATOM     10  N   UNL     1       7.846   5.449  14.412  0.00  0.00    +0.000 NA
ATOM     11  N   UNL     1       7.246   5.722  15.557  0.00  0.00    +0.000 NA
ENDBRANCH   1   7
BRANCH   1  12
ATOM     12  S   UNL     1       3.719   4.274  16.991  0.00  0.00    +0.000 S 
ATOM     13  O   UNL     1       4.204   2.789  17.187  0.00  0.00    +0.000 OA
BRANCH  12  14
ATOM     14  C   UNL     1       3.038   4.762  18.606  0.00  0.00    +0.000 A 
ATOM     15  C   UNL     1       2.727   3.773  19.555  0.00  0.00    +0.000 A 
ATOM     16  C   UNL     1       2.096   4.098  20.762  0.00  0.00    +0.000 A 
ATOM     17  C   UNL     1       1.745   3.039  21.765  0.00  0.00    +0.000 C 
ATOM     18  C   UNL     1       1.759   5.430  21.014  0.00  0.00    +0.000 A 
ATOM     19  C   UNL     1       2.052   6.419  20.076  0.00  0.00    +0.000 A 
ATOM     20  C   UNL     1       2.690   6.103  18.865  0.00  0.00    +0.000 A 
ATOM     21  C   UNL     1       2.931   7.208  17.871  0.00  0.00    +0.000 C 
ENDBRANCH  12  14
ENDBRANCH   1  12
TORSDOF 4
ENDMDL
MODEL 9
REMARK VINA RESULT:      -7.1      1.314      2.392
REMARK  Name = 
REMARK  7 active torsions:
REMARK  status: ('A' for Active; 'I' for Inactive)
REMARK    1  A    between atoms: C_1  and  N_2
REMARK    2  A    between atoms: C_3  and  C_5
REMARK    3  A    between atoms: C_5  and  C_6
REMARK    4  A    between atoms: C_5  and  S_11
REMARK    5  A    between atoms: S_11  and  C_13
REMARK    6  A    between atoms: C_15  and  C_16
REMARK    7  A    between atoms: C_19  and  C_20
REMARK                            x       y       z     vdW  Elec       q    Type
REMARK                         _______ _______ _______ _____ _____    ______ ____
ROOT
ATOM      1  C   UNL     1       6.093   5.914  17.292  0.00  0.00    +0.000 C 
ENDROOT
BRANCH   1   4
ATOM      2  C   UNL     1       8.222   9.045  17.779  0.00  0.00    +0.000 C 
ATOM      3  N   UNL     1       7.245   8.098  17.305  0.00  0.00    +0.000 N 
ATOM      4  C   UNL     1       7.262   6.784  17.755  0.00  0.00    +0.000 C 
ATOM      5  O   UNL     1       8.175   6.358  18.465  0.00  0.00    +0.000 OA
ATOM      6  H   UNL     1       6.422   8.459  16.839  0.00  0.00    +0.000 HD
ENDBRANCH   1   4
BRANCH   1   7
ATOM      7  C   UNL     1       6.382   5.368  15.928  0.00  0.00    +0.000 A 
ATOM      8  C   UNL     1       5.627   4.471  15.182  0.00  0.00    +0.000 A 
ATOM      9  S   UNL     1       6.482   4.152  13.732  0.00  0.00    +0.000 S 
ATOM     10  N   UNL     1       7.742   5.169  14.143  0.00  0.00    +0.000 NA
ATOM     11  N   UNL     1       7.576   5.749  15.319  0.00  0.00    +0.000 NA
ENDBRANCH   1   7
BRANCH   1  12
ATOM     12  S   UNL     1       5.854   4.598  18.539  0.00  0.00    +0.000 S 
ATOM     13  O   UNL     1       6.141   5.246  19.946  0.00  0.00    +0.000 OA
BRANCH  12  14
ATOM     14  C   UNL     1       4.047   4.389  18.481  0.00  0.00    +0.000 A 
ATOM     15  C   UNL     1       3.491   3.109  18.643  0.00  0.00    +0.000 A 
ATOM     16  C   UNL     1       2.116   2.890  18.490  0.00  0.00    +0.000 A 
ATOM     17  C   UNL     1       1.526   1.519  18.643  0.00  0.00    +0.000 C 
ATOM     18  C   UNL     1       1.291   3.967  18.155  0.00  0.00    +0.000 A 
ATOM     19  C   UNL     1       1.832   5.239  17.979  0.00  0.00    +0.000 A 
ATOM     20  C   UNL     1       3.209   5.470  18.137  0.00  0.00    +0.000 A 
ATOM     21  C   UNL     1       3.739   6.855  17.882  0.00  0.00    +0.000 C 
ENDBRANCH  12  14
ENDBRANCH   1  12
TORSDOF 4
ENDMDL
