MODEL 1
REMARK VINA RESULT:      -9.3      0.000      0.000
REMARK  Name = 
REMARK  6 active torsions:
REMARK  status: ('A' for Active; 'I' for Inactive)
REMARK    1  A    between atoms: C_1  and  C_2
REMARK    2  A    between atoms: N_4  and  C_5
REMARK    3  A    between atoms: C_7  and  C_8
REMARK    4  A    between atoms: C_13  and  N_14
REMARK    5  A    between atoms: N_17  and  C_18
REMARK    6  A    between atoms: C_21  and  C_22
REMARK                            x       y       z     vdW  Elec       q    Type
REMARK                         _______ _______ _______ _____ _____    ______ ____
ROOT
ATOM      1  C   UNL     1       6.059   6.287  16.604  0.00  0.00    +0.000 A 
ATOM      2  C   UNL     1       6.504   5.538  15.507  0.00  0.00    +0.000 A 
ATOM      3  C   UNL     1       5.821   4.399  15.132  0.00  0.00    +0.000 A 
ATOM      4  C   UNL     1       6.237   3.604  13.927  0.00  0.00    +0.000 C 
ATOM      5  N   UNL     1       4.743   3.963  15.797  0.00  0.00    +0.000 NA
ATOM      6  C   UNL     1       4.322   4.648  16.866  0.00  0.00    +0.000 A 
ATOM      7  C   UNL     1       3.200   4.141  17.484  0.00  0.00    +0.000 A 
ATOM      8  C   UNL     1       2.641   4.741  18.609  0.00  0.00    +0.000 A 
ATOM      9  C   UNL     1       3.219   5.875  19.170  0.00  0.00    +0.000 A 
ATOM     10  C   UNL     1       4.343   6.432  18.529  0.00  0.00    +0.000 A 
ATOM     11  C   UNL     1       4.930   5.824  17.358  0.00  0.00    +0.000 A 
ENDROOT
BRANCH   9  12
ATOM     12  N   UNL     1       2.672   6.477  20.335  0.00  0.00    +0.000 N 
ATOM     13  C   UNL     1       1.873   7.626  20.318  0.00  0.00    +0.000 C 
ATOM     14  O   UNL     1       1.395   8.125  19.309  0.00  0.00    +0.000 OA
ATOM     15  N   UNL     1       1.706   8.156  21.589  0.00  0.00    +0.000 N 
ATOM     16  H   UNL     1       2.623   5.922  21.177  0.00  0.00    +0.000 HD
ATOM     17  H   UNL     1       2.520   8.071  22.180  0.00  0.00    +0.000 HD
BRANCH  15  18
ATOM     18  C   UNL     1       0.905   9.312  21.791  0.00  0.00    +0.000 A 
ATOM     19  C   UNL     1      -0.028   9.323  22.834  0.00  0.00    +0.000 A 
ATOM     20  C   UNL     1      -0.787  10.470  23.093  0.00  0.00    +0.000 A 
ATOM     21  C   UNL     1      -0.671  11.611  22.279  0.00  0.00    +0.000 A 
ATOM     22  C   UNL     1      -1.519  12.821  22.570  0.00  0.00    +0.000 C 
ATOM     23  C   UNL     1       0.236  11.576  21.210  0.00  0.00    +0.000 A 
ATOM     24 CL   UNL     1       0.411  12.922  20.139  0.00  0.00    +0.000 Cl
ATOM     25  C   UNL     1       1.022  10.444  20.976  0.00  0.00    +0.000 A 
ENDBRANCH  15  18
ENDBRANCH   9  12
BRANCH   1  29
ATOM     26  C   UNL     1       8.206   9.024  18.109  0.00  0.00    +0.000 C 
ATOM     27  C   UNL     1       7.725   7.610  17.929  0.00  0.00    +0.000 C 
ATOM     28  O   UNL     1       8.217   6.703  18.599  0.00  0.00    +0.000 OA
ATOM     29  N   UNL     1       6.737   7.490  16.957  0.00  0.00    +0.000 N 
ATOM     30  H   UNL     1       6.560   8.302  16.385  0.00  0.00    +0.000 HD
ENDBRANCH   1  29
TORSDOF 3
ENDMDL
MODEL 2
REMARK VINA RESULT:      -8.6      1.014      1.373
REMARK  Name = 
REMARK  6 active torsions:
REMARK  status: ('A' for Active; 'I' for Inactive)
REMARK    1  A    between atoms: C_1  and  C_2
REMARK    2  A    between atoms: N_4  and  C_5
REMARK    3  A    between atoms: C_7  and  C_8
REMARK    4  A    between atoms: C_13  and  N_14
REMARK    5  A    between atoms: N_17  and  C_18
REMARK    6  A    between atoms: C_21  and  C_22
REMARK                            x       y       z     vdW  Elec       q    Type
REMARK                         _______ _______ _______ _____ _____    ______ ____
ROOT
ATOM      1  C   UNL     1       5.953   6.357  16.707  0.00  0.00    +0.000 A 
ATOM      2  C   UNL     1       6.422   5.539  15.671  0.00  0.00    +0.000 A 
ATOM      3  C   UNL     1       5.721   4.402  15.324  0.00  0.00    +0.000 A 
ATOM      4  C   UNL     1       6.164   3.532  14.182  0.00  0.00    +0.000 C 
ATOM      5  N   UNL     1       4.601   4.033  15.961  0.00  0.00    +0.000 NA
ATOM      6  C   UNL     1       4.155   4.785  16.973  0.00  0.00    +0.000 A 
ATOM      7  C   UNL     1       2.992   4.344  17.565  0.00  0.00    +0.000 A 
ATOM      8  C   UNL     1       2.404   5.018  18.631  0.00  0.00    +0.000 A 
ATOM      9  C   UNL     1       2.992   6.163  19.159  0.00  0.00    +0.000 A 
ATOM     10  C   UNL     1       4.159   6.653  18.541  0.00  0.00    +0.000 A 
ATOM     11  C   UNL     1       4.778   5.968  17.431  0.00  0.00    +0.000 A 
ENDROOT
BRANCH   9  12
ATOM     12  N   UNL     1       2.413   6.841  20.265  0.00  0.00    +0.000 N 
ATOM     13  C   UNL     1       1.763   8.077  20.170  0.00  0.00    +0.000 C 
ATOM     14  O   UNL     1       1.447   8.617  19.120  0.00  0.00    +0.000 OA
ATOM     15  N   UNL     1       1.541   8.641  21.419  0.00  0.00    +0.000 N 
ATOM     16  H   UNL     1       2.218   6.307  21.100  0.00  0.00    +0.000 HD
ATOM     17  H   UNL     1       2.280   8.466  22.085  0.00  0.00    +0.000 HD
BRANCH  15  18
ATOM     18  C   UNL     1       0.870   9.886  21.541  0.00  0.00    +0.000 A 
ATOM     19  C   UNL     1       1.354  10.994  20.834  0.00  0.00    +0.000 A 
ATOM     20  C   UNL     1       0.678  12.218  20.890  0.00  0.00    +0.000 A 
ATOM     21  C   UNL     1      -0.463  12.377  21.697  0.00  0.00    +0.000 A 
ATOM     22  C   UNL     1      -1.154  13.714  21.753  0.00  0.00    +0.000 C 
ATOM     23  C   UNL     1      -0.915  11.274  22.434  0.00  0.00    +0.000 A 
ATOM     24 CL   UNL     1      -2.286  11.396  23.481  0.00  0.00    +0.000 Cl
ATOM     25  C   UNL     1      -0.261  10.041  22.349  0.00  0.00    +0.000 A 
ENDBRANCH  15  18
ENDBRANCH   9  12
BRANCH   1  29
ATOM     26  C   UNL     1       8.187   9.082  18.103  0.00  0.00    +0.000 C 
ATOM     27  C   UNL     1       7.694   7.669  17.942  0.00  0.00    +0.000 C 
ATOM     28  O   UNL     1       8.222   6.758  18.576  0.00  0.00    +0.000 OA
ATOM     29  N   UNL     1       6.652   7.556  17.028  0.00  0.00    +0.000 N 
ATOM     30  H   UNL     1       6.443   8.373  16.472  0.00  0.00    +0.000 HD
ENDBRANCH   1  29
TORSDOF 3
ENDMDL
MODEL 3
REMARK VINA RESULT:      -8.3      3.369      9.242
REMARK  Name = 
REMARK  6 active torsions:
REMARK  status: ('A' for Active; 'I' for Inactive)
REMARK    1  A    between atoms: C_1  and  C_2
REMARK    2  A    between atoms: N_4  and  C_5
REMARK    3  A    between atoms: C_7  and  C_8
REMARK    4  A    between atoms: C_13  and  N_14
REMARK    5  A    between atoms: N_17  and  C_18
REMARK    6  A    between atoms: C_21  and  C_22
REMARK                            x       y       z     vdW  Elec       q    Type
REMARK                         _______ _______ _______ _____ _____    ______ ____
ROOT
ATOM      1  C   UNL     1      -1.590  11.253  19.295  0.00  0.00    +0.000 A 
ATOM      2  C   UNL     1      -2.323  12.411  19.585  0.00  0.00    +0.000 A 
ATOM      3  C   UNL     1      -2.306  12.930  20.864  0.00  0.00    +0.000 A 
ATOM      4  C   UNL     1      -3.035  14.201  21.197  0.00  0.00    +0.000 C 
ATOM      5  N   UNL     1      -1.621  12.351  21.860  0.00  0.00    +0.000 NA
ATOM      6  C   UNL     1      -0.941  11.228  21.609  0.00  0.00    +0.000 A 
ATOM      7  C   UNL     1      -0.253  10.705  22.681  0.00  0.00    +0.000 A 
ATOM      8  C   UNL     1       0.501   9.539  22.579  0.00  0.00    +0.000 A 
ATOM      9  C   UNL     1       0.567   8.839  21.379  0.00  0.00    +0.000 A 
ATOM     10  C   UNL     1      -0.096   9.380  20.260  0.00  0.00    +0.000 A 
ATOM     11  C   UNL     1      -0.877  10.591  20.349  0.00  0.00    +0.000 A 
ENDROOT
BRANCH   9  12
ATOM     12  N   UNL     1       1.311   7.634  21.274  0.00  0.00    +0.000 N 
ATOM     13  C   UNL     1       2.083   7.287  20.159  0.00  0.00    +0.000 C 
ATOM     14  O   UNL     1       2.366   8.050  19.246  0.00  0.00    +0.000 OA
ATOM     15  N   UNL     1       2.473   5.956  20.195  0.00  0.00    +0.000 N 
ATOM     16  H   UNL     1       1.516   7.127  22.123  0.00  0.00    +0.000 HD
ATOM     17  H   UNL     1       1.780   5.335  20.587  0.00  0.00    +0.000 HD
BRANCH  15  18
ATOM     18  C   UNL     1       3.287   5.413  19.165  0.00  0.00    +0.000 A 
ATOM     19  C   UNL     1       2.676   4.787  18.072  0.00  0.00    +0.000 A 
ATOM     20  C   UNL     1       3.451   4.296  17.015  0.00  0.00    +0.000 A 
ATOM     21  C   UNL     1       4.855   4.370  17.053  0.00  0.00    +0.000 A 
ATOM     22  C   UNL     1       5.660   3.812  15.910  0.00  0.00    +0.000 C 
ATOM     23  C   UNL     1       5.459   4.961  18.171  0.00  0.00    +0.000 A 
ATOM     24 CL   UNL     1       7.179   5.057  18.315  0.00  0.00    +0.000 Cl
ATOM     25  C   UNL     1       4.683   5.486  19.210  0.00  0.00    +0.000 A 
ENDBRANCH  15  18
ENDBRANCH   9  12
BRANCH   1  29
ATOM     26  C   UNL     1      -2.270   9.637  15.934  0.00  0.00    +0.000 C 
ATOM     27  C   UNL     1      -2.622  10.105  17.321  0.00  0.00    +0.000 C 
ATOM     28  O   UNL     1      -3.753   9.917  17.765  0.00  0.00    +0.000 OA
ATOM     29  N   UNL     1      -1.568  10.749  17.963  0.00  0.00    +0.000 N 
ATOM     30  H   UNL     1      -0.758  10.967  17.402  0.00  0.00    +0.000 HD
ENDBRANCH   1  29
TORSDOF 3
ENDMDL
MODEL 4
REMARK VINA RESULT:      -8.1      5.561      9.508
REMARK  Name = 
REMARK  6 active torsions:
REMARK  status: ('A' for Active; 'I' for Inactive)
REMARK    1  A    between atoms: C_1  and  C_2
REMARK    2  A    between atoms: N_4  and  C_5
REMARK    3  A    between atoms: C_7  and  C_8
REMARK    4  A    between atoms: C_13  and  N_14
REMARK    5  A    between atoms: N_17  and  C_18
REMARK    6  A    between atoms: C_21  and  C_22
REMARK                            x       y       z     vdW  Elec       q    Type
REMARK                         _______ _______ _______ _____ _____    ______ ____
ROOT
ATOM      1  C   UNL     1       9.384  13.326  21.464  0.00  0.00    +0.000 A 
ATOM      2  C   UNL     1       9.583  14.704  21.309  0.00  0.00    +0.000 A 
ATOM      3  C   UNL     1       9.796  15.228  20.050  0.00  0.00    +0.000 A 
ATOM      4  C   UNL     1       9.957  16.707  19.839  0.00  0.00    +0.000 C 
ATOM      5  N   UNL     1       9.840  14.456  18.955  0.00  0.00    +0.000 NA
ATOM      6  C   UNL     1       9.683  13.135  19.088  0.00  0.00    +0.000 A 
ATOM      7  C   UNL     1       9.727  12.417  17.914  0.00  0.00    +0.000 A 
ATOM      8  C   UNL     1       9.581  11.033  17.888  0.00  0.00    +0.000 A 
ATOM      9  C   UNL     1       9.407  10.315  19.066  0.00  0.00    +0.000 A 
ATOM     10  C   UNL     1       9.318  11.035  20.273  0.00  0.00    +0.000 A 
ATOM     11  C   UNL     1       9.462  12.471  20.315  0.00  0.00    +0.000 A 
ENDROOT
BRANCH   9  12
ATOM     12  N   UNL     1       9.286   8.899  19.051  0.00  0.00    +0.000 N 
ATOM     13  C   UNL     1       8.217   8.213  18.464  0.00  0.00    +0.000 C 
ATOM     14  O   UNL     1       7.379   8.726  17.736  0.00  0.00    +0.000 OA
ATOM     15  N   UNL     1       8.200   6.875  18.828  0.00  0.00    +0.000 N 
ATOM     16  H   UNL     1      10.115   8.350  19.226  0.00  0.00    +0.000 HD
ATOM     17  H   UNL     1       8.496   6.704  19.779  0.00  0.00    +0.000 HD
BRANCH  15  18
ATOM     18  C   UNL     1       7.206   5.999  18.317  0.00  0.00    +0.000 A 
ATOM     19  C   UNL     1       6.199   5.535  19.172  0.00  0.00    +0.000 A 
ATOM     20  C   UNL     1       5.174   4.719  18.681  0.00  0.00    +0.000 A 
ATOM     21  C   UNL     1       5.163   4.303  17.337  0.00  0.00    +0.000 A 
ATOM     22  C   UNL     1       4.059   3.406  16.846  0.00  0.00    +0.000 C 
ATOM     23  C   UNL     1       6.198   4.738  16.498  0.00  0.00    +0.000 A 
ATOM     24 CL   UNL     1       6.281   4.241  14.844  0.00  0.00    +0.000 Cl
ATOM     25  C   UNL     1       7.201   5.585  16.980  0.00  0.00    +0.000 A 
ENDBRANCH  15  18
ENDBRANCH   9  12
BRANCH   1  29
ATOM     26  C   UNL     1       7.900  12.105  24.732  0.00  0.00    +0.000 C 
ATOM     27  C   UNL     1       7.852  12.638  23.325  0.00  0.00    +0.000 C 
ATOM     28  O   UNL     1       6.769  12.870  22.792  0.00  0.00    +0.000 OA
ATOM     29  N   UNL     1       9.114  12.796  22.759  0.00  0.00    +0.000 N 
ATOM     30  H   UNL     1       9.893  12.408  23.268  0.00  0.00    +0.000 HD
ENDBRANCH   1  29
TORSDOF 3
ENDMDL
MODEL 5
REMARK VINA RESULT:      -8.1      3.011      7.437
REMARK  Name = 
REMARK  6 active torsions:
REMARK  status: ('A' for Active; 'I' for Inactive)
REMARK    1  A    between atoms: C_1  and  C_2
REMARK    2  A    between atoms: N_4  and  C_5
REMARK    3  A    between atoms: C_7  and  C_8
REMARK    4  A    between atoms: C_13  and  N_14
REMARK    5  A    between atoms: N_17  and  C_18
REMARK    6  A    between atoms: C_21  and  C_22
REMARK                            x       y       z     vdW  Elec       q    Type
REMARK                         _______ _______ _______ _____ _____    ______ ____
ROOT
ATOM      1  C   UNL     1       3.495   5.223  19.147  0.00  0.00    +0.000 A 
ATOM      2  C   UNL     1       2.973   3.925  19.221  0.00  0.00    +0.000 A 
ATOM      3  C   UNL     1       3.584   2.900  18.528  0.00  0.00    +0.000 A 
ATOM      4  C   UNL     1       3.084   1.486  18.628  0.00  0.00    +0.000 C 
ATOM      5  N   UNL     1       4.663   3.103  17.759  0.00  0.00    +0.000 NA
ATOM      6  C   UNL     1       5.156   4.341  17.652  0.00  0.00    +0.000 A 
ATOM      7  C   UNL     1       6.273   4.462  16.856  0.00  0.00    +0.000 A 
ATOM      8  C   UNL     1       6.902   5.686  16.644  0.00  0.00    +0.000 A 
ATOM      9  C   UNL     1       6.403   6.849  17.220  0.00  0.00    +0.000 A 
ATOM     10  C   UNL     1       5.286   6.741  18.071  0.00  0.00    +0.000 A 
ATOM     11  C   UNL     1       4.626   5.477  18.304  0.00  0.00    +0.000 A 
ENDROOT
BRANCH   9  12
ATOM     12  N   UNL     1       7.022   8.107  16.987  0.00  0.00    +0.000 N 
ATOM     13  C   UNL     1       8.018   8.650  17.806  0.00  0.00    +0.000 C 
ATOM     14  O   UNL     1       8.604   8.038  18.686  0.00  0.00    +0.000 OA
ATOM     15  N   UNL     1       8.248   9.988  17.520  0.00  0.00    +0.000 N 
ATOM     16  H   UNL     1       6.946   8.508  16.063  0.00  0.00    +0.000 HD
ATOM     17  H   UNL     1       7.417  10.502  17.263  0.00  0.00    +0.000 HD
BRANCH  15  18
ATOM     18  C   UNL     1       9.241  10.719  18.225  0.00  0.00    +0.000 A 
ATOM     19  C   UNL     1      10.447  11.026  17.583  0.00  0.00    +0.000 A 
ATOM     20  C   UNL     1      11.418  11.795  18.233  0.00  0.00    +0.000 A 
ATOM     21  C   UNL     1      11.230  12.225  19.559  0.00  0.00    +0.000 A 
ATOM     22  C   UNL     1      12.305  13.032  20.239  0.00  0.00    +0.000 C 
ATOM     23  C   UNL     1      10.037  11.877  20.208  0.00  0.00    +0.000 A 
ATOM     24 CL   UNL     1       9.744  12.333  21.850  0.00  0.00    +0.000 Cl
ATOM     25  C   UNL     1       9.050  11.141  19.545  0.00  0.00    +0.000 A 
ENDBRANCH  15  18
ENDBRANCH   9  12
BRANCH   1  29
ATOM     26  C   UNL     1       1.714   8.311  20.437  0.00  0.00    +0.000 C 
ATOM     27  C   UNL     1       2.177   7.341  19.383  0.00  0.00    +0.000 C 
ATOM     28  O   UNL     1       1.898   7.538  18.202  0.00  0.00    +0.000 OA
ATOM     29  N   UNL     1       2.891   6.268  19.905  0.00  0.00    +0.000 N 
ATOM     30  H   UNL     1       2.893   6.168  20.909  0.00  0.00    +0.000 HD
ENDBRANCH   1  29
TORSDOF 3
ENDMDL
MODEL 6
REMARK VINA RESULT:      -8.0      3.751      7.578
REMARK  Name = 
REMARK  6 active torsions:
REMARK  status: ('A' for Active; 'I' for Inactive)
REMARK    1  A    between atoms: C_1  and  C_2
REMARK    2  A    between atoms: N_4  and  C_5
REMARK    3  A    between atoms: C_7  and  C_8
REMARK    4  A    between atoms: C_13  and  N_14
REMARK    5  A    between atoms: N_17  and  C_18
REMARK    6  A    between atoms: C_21  and  C_22
REMARK                            x       y       z     vdW  Elec       q    Type
REMARK                         _______ _______ _______ _____ _____    ______ ____
ROOT
ATOM      1  C   UNL     1       3.896   5.998  18.171  0.00  0.00    +0.000 A 
ATOM      2  C   UNL     1       3.394   4.766  18.610  0.00  0.00    +0.000 A 
ATOM      3  C   UNL     1       4.257   3.812  19.109  0.00  0.00    +0.000 A 
ATOM      4  C   UNL     1       3.747   2.502  19.641  0.00  0.00    +0.000 C 
ATOM      5  N   UNL     1       5.581   4.013  19.174  0.00  0.00    +0.000 NA
ATOM      6  C   UNL     1       6.081   5.170  18.730  0.00  0.00    +0.000 A 
ATOM      7  C   UNL     1       7.447   5.302  18.845  0.00  0.00    +0.000 A 
ATOM      8  C   UNL     1       8.118   6.448  18.426  0.00  0.00    +0.000 A 
ATOM      9  C   UNL     1       7.423   7.505  17.847  0.00  0.00    +0.000 A 
ATOM     10  C   UNL     1       6.021   7.407  17.759  0.00  0.00    +0.000 A 
ATOM     11  C   UNL     1       5.312   6.227  18.194  0.00  0.00    +0.000 A 
ENDROOT
BRANCH   9  12
ATOM     12  N   UNL     1       8.102   8.667  17.391  0.00  0.00    +0.000 N 
ATOM     13  C   UNL     1       8.685   9.614  18.241  0.00  0.00    +0.000 C 
ATOM     14  O   UNL     1       8.851   9.461  19.442  0.00  0.00    +0.000 OA
ATOM     15  N   UNL     1       9.032  10.773  17.561  0.00  0.00    +0.000 N 
ATOM     16  H   UNL     1       8.417   8.687  16.432  0.00  0.00    +0.000 HD
ATOM     17  H   UNL     1       8.386  11.027  16.827  0.00  0.00    +0.000 HD
BRANCH  15  18
ATOM     18  C   UNL     1       9.662  11.849  18.241  0.00  0.00    +0.000 A 
ATOM     19  C   UNL     1      11.051  11.827  18.416  0.00  0.00    +0.000 A 
ATOM     20  C   UNL     1      11.704  12.902  19.029  0.00  0.00    +0.000 A 
ATOM     21  C   UNL     1      10.977  13.997  19.530  0.00  0.00    +0.000 A 
ATOM     22  C   UNL     1      11.708  15.127  20.205  0.00  0.00    +0.000 C 
ATOM     23  C   UNL     1       9.583  13.991  19.388  0.00  0.00    +0.000 A 
ATOM     24 CL   UNL     1       8.612  15.279  20.011  0.00  0.00    +0.000 Cl
ATOM     25  C   UNL     1       8.934  12.934  18.741  0.00  0.00    +0.000 A 
ENDBRANCH  15  18
ENDBRANCH   9  12
BRANCH   1  29
ATOM     26  C   UNL     1       1.323   8.744  17.713  0.00  0.00    +0.000 C 
ATOM     27  C   UNL     1       2.218   7.829  18.506  0.00  0.00    +0.000 C 
ATOM     28  O   UNL     1       2.217   7.881  19.734  0.00  0.00    +0.000 OA
ATOM     29  N   UNL     1       2.996   6.999  17.705  0.00  0.00    +0.000 N 
ATOM     30  H   UNL     1       2.998   7.193  16.714  0.00  0.00    +0.000 HD
ENDBRANCH   1  29
TORSDOF 3
ENDMDL
MODEL 7
REMARK VINA RESULT:      -7.9      1.137      1.269
REMARK  Name = 
REMARK  6 active torsions:
REMARK  status: ('A' for Active; 'I' for Inactive)
REMARK    1  A    between atoms: C_1  and  C_2
REMARK    2  A    between atoms: N_4  and  C_5
REMARK    3  A    between atoms: C_7  and  C_8
REMARK    4  A    between atoms: C_13  and  N_14
REMARK    5  A    between atoms: N_17  and  C_18
REMARK    6  A    between atoms: C_21  and  C_22
REMARK                            x       y       z     vdW  Elec       q    Type
REMARK                         _______ _______ _______ _____ _____    ______ ____
ROOT
ATOM      1  C   UNL     1       5.943   6.468  16.758  0.00  0.00    +0.000 A 
ATOM      2  C   UNL     1       6.443   5.538  15.838  0.00  0.00    +0.000 A 
ATOM      3  C   UNL     1       5.718   4.398  15.554  0.00  0.00    +0.000 A 
ATOM      4  C   UNL     1       6.197   3.407  14.531  0.00  0.00    +0.000 C 
ATOM      5  N   UNL     1       4.546   4.132  16.147  0.00  0.00    +0.000 NA
ATOM      6  C   UNL     1       4.069   4.994  17.051  0.00  0.00    +0.000 A 
ATOM      7  C   UNL     1       2.854   4.654  17.602  0.00  0.00    +0.000 A 
ATOM      8  C   UNL     1       2.227   5.448  18.558  0.00  0.00    +0.000 A 
ATOM      9  C   UNL     1       2.828   6.618  19.014  0.00  0.00    +0.000 A 
ATOM     10  C   UNL     1       4.051   7.004  18.432  0.00  0.00    +0.000 A 
ATOM     11  C   UNL     1       4.710   6.193  17.436  0.00  0.00    +0.000 A 
ENDROOT
BRANCH   9  12
ATOM     12  N   UNL     1       2.209   7.420  20.010  0.00  0.00    +0.000 N 
ATOM     13  C   UNL     1       1.561   8.632  19.745  0.00  0.00    +0.000 C 
ATOM     14  O   UNL     1       1.281   9.040  18.627  0.00  0.00    +0.000 OA
ATOM     15  N   UNL     1       1.293   9.339  20.908  0.00  0.00    +0.000 N 
ATOM     16  H   UNL     1       1.986   6.988  20.895  0.00  0.00    +0.000 HD
ATOM     17  H   UNL     1       2.009   9.250  21.616  0.00  0.00    +0.000 HD
BRANCH  15  18
ATOM     18  C   UNL     1       0.616  10.586  20.857  0.00  0.00    +0.000 A 
ATOM     19  C   UNL     1      -0.784  10.604  20.871  0.00  0.00    +0.000 A 
ATOM     20  C   UNL     1      -1.475  11.821  20.882  0.00  0.00    +0.000 A 
ATOM     21  C   UNL     1      -0.784  13.045  20.821  0.00  0.00    +0.000 A 
ATOM     22  C   UNL     1      -1.559  14.335  20.811  0.00  0.00    +0.000 C 
ATOM     23  C   UNL     1       0.616  13.015  20.765  0.00  0.00    +0.000 A 
ATOM     24 CL   UNL     1       1.539  14.473  20.649  0.00  0.00    +0.000 Cl
ATOM     25  C   UNL     1       1.308  11.801  20.793  0.00  0.00    +0.000 A 
ENDBRANCH  15  18
ENDBRANCH   9  12
BRANCH   1  29
ATOM     26  C   UNL     1       8.235   9.219  18.004  0.00  0.00    +0.000 C 
ATOM     27  C   UNL     1       7.707   7.812  17.926  0.00  0.00    +0.000 C 
ATOM     28  O   UNL     1       8.207   6.929  18.621  0.00  0.00    +0.000 OA
ATOM     29  N   UNL     1       6.670   7.668  17.010  0.00  0.00    +0.000 N 
ATOM     30  H   UNL     1       6.487   8.453  16.403  0.00  0.00    +0.000 HD
ENDBRANCH   1  29
TORSDOF 3
ENDMDL
MODEL 8
REMARK VINA RESULT:      -7.9      5.416      9.564
REMARK  Name = 
REMARK  6 active torsions:
REMARK  status: ('A' for Active; 'I' for Inactive)
REMARK    1  A    between atoms: C_1  and  C_2
REMARK    2  A    between atoms: N_4  and  C_5
REMARK    3  A    between atoms: C_7  and  C_8
REMARK    4  A    between atoms: C_13  and  N_14
REMARK    5  A    between atoms: N_17  and  C_18
REMARK    6  A    between atoms: C_21  and  C_22
REMARK                            x       y       z     vdW  Elec       q    Type
REMARK                         _______ _______ _______ _____ _____    ______ ____
ROOT
ATOM      1  C   UNL     1       9.351  13.329  21.697  0.00  0.00    +0.000 A 
ATOM      2  C   UNL     1       9.565  14.711  21.622  0.00  0.00    +0.000 A 
ATOM      3  C   UNL     1       9.836  15.298  20.402  0.00  0.00    +0.000 A 
ATOM      4  C   UNL     1      10.016  16.784  20.277  0.00  0.00    +0.000 C 
ATOM      5  N   UNL     1       9.923  14.584  19.272  0.00  0.00    +0.000 NA
ATOM      6  C   UNL     1       9.753  13.259  19.329  0.00  0.00    +0.000 A 
ATOM      7  C   UNL     1       9.844  12.602  18.122  0.00  0.00    +0.000 A 
ATOM      8  C   UNL     1       9.691  11.222  18.018  0.00  0.00    +0.000 A 
ATOM      9  C   UNL     1       9.462  10.446  19.149  0.00  0.00    +0.000 A 
ATOM     10  C   UNL     1       9.324  11.103  20.386  0.00  0.00    +0.000 A 
ATOM     11  C   UNL     1       9.474  12.534  20.509  0.00  0.00    +0.000 A 
ENDROOT
BRANCH   9  12
ATOM     12  N   UNL     1       9.333   9.034  19.055  0.00  0.00    +0.000 N 
ATOM     13  C   UNL     1       8.249   8.387  18.449  0.00  0.00    +0.000 C 
ATOM     14  O   UNL     1       7.400   8.945  17.768  0.00  0.00    +0.000 OA
ATOM     15  N   UNL     1       8.232   7.030  18.737  0.00  0.00    +0.000 N 
ATOM     16  H   UNL     1      10.162   8.472  19.182  0.00  0.00    +0.000 HD
ATOM     17  H   UNL     1       8.545   6.804  19.670  0.00  0.00    +0.000 HD
BRANCH  15  18
ATOM     18  C   UNL     1       7.223   6.189  18.195  0.00  0.00    +0.000 A 
ATOM     19  C   UNL     1       7.186   5.972  16.812  0.00  0.00    +0.000 A 
ATOM     20  C   UNL     1       6.241   5.101  16.259  0.00  0.00    +0.000 A 
ATOM     21  C   UNL     1       5.277   4.472  17.068  0.00  0.00    +0.000 A 
ATOM     22  C   UNL     1       4.259   3.559  16.438  0.00  0.00    +0.000 C 
ATOM     23  C   UNL     1       5.296   4.729  18.446  0.00  0.00    +0.000 A 
ATOM     24 CL   UNL     1       4.123   4.028  19.505  0.00  0.00    +0.000 Cl
ATOM     25  C   UNL     1       6.265   5.569  19.003  0.00  0.00    +0.000 A 
ENDBRANCH  15  18
ENDBRANCH   9  12
BRANCH   1  29
ATOM     26  C   UNL     1       7.714  11.908  24.806  0.00  0.00    +0.000 C 
ATOM     27  C   UNL     1       7.734  12.494  23.420  0.00  0.00    +0.000 C 
ATOM     28  O   UNL     1       6.680  12.694  22.822  0.00  0.00    +0.000 OA
ATOM     29  N   UNL     1       9.021  12.735  22.949  0.00  0.00    +0.000 N 
ATOM     30  H   UNL     1       9.784  12.364  23.497  0.00  0.00    +0.000 HD
ENDBRANCH   1  29
TORSDOF 3
ENDMDL
MODEL 9
REMARK VINA RESULT:      -7.8      3.365      7.474
REMARK  Name = 
REMARK  6 active torsions:
REMARK  status: ('A' for Active; 'I' for Inactive)
REMARK    1  A    between atoms: C_1  and  C_2
REMARK    2  A    between atoms: N_4  and  C_5
REMARK    3  A    between atoms: C_7  and  C_8
REMARK    4  A    between atoms: C_13  and  N_14
REMARK    5  A    between atoms: N_17  and  C_18
REMARK    6  A    between atoms: C_21  and  C_22
REMARK                            x       y       z     vdW  Elec       q    Type
REMARK                         _______ _______ _______ _____ _____    ______ ____
ROOT
ATOM      1  C   UNL     1       3.441   4.831  19.195  0.00  0.00    +0.000 A 
ATOM      2  C   UNL     1       2.986   3.506  19.218  0.00  0.00    +0.000 A 
ATOM      3  C   UNL     1       3.627   2.548  18.458  0.00  0.00    +0.000 A 
ATOM      4  C   UNL     1       3.202   1.108  18.501  0.00  0.00    +0.000 C 
ATOM      5  N   UNL     1       4.673   2.843  17.674  0.00  0.00    +0.000 NA
ATOM      6  C   UNL     1       5.101   4.109  17.616  0.00  0.00    +0.000 A 
ATOM      7  C   UNL     1       6.187   4.325  16.797  0.00  0.00    +0.000 A 
ATOM      8  C   UNL     1       6.749   5.588  16.631  0.00  0.00    +0.000 A 
ATOM      9  C   UNL     1       6.209   6.695  17.277  0.00  0.00    +0.000 A 
ATOM     10  C   UNL     1       5.123   6.488  18.150  0.00  0.00    +0.000 A 
ATOM     11  C   UNL     1       4.534   5.183  18.337  0.00  0.00    +0.000 A 
ENDROOT
BRANCH   9  12
ATOM     12  N   UNL     1       6.758   7.992  17.090  0.00  0.00    +0.000 N 
ATOM     13  C   UNL     1       7.845   8.491  17.816  0.00  0.00    +0.000 C 
ATOM     14  O   UNL     1       8.564   7.818  18.541  0.00  0.00    +0.000 OA
ATOM     15  N   UNL     1       8.000   9.859  17.640  0.00  0.00    +0.000 N 
ATOM     16  H   UNL     1       6.544   8.479  16.232  0.00  0.00    +0.000 HD
ATOM     17  H   UNL     1       7.129  10.363  17.554  0.00  0.00    +0.000 HD
BRANCH  15  18
ATOM     18  C   UNL     1       9.064  10.554  18.273  0.00  0.00    +0.000 A 
ATOM     19  C   UNL     1       9.177  10.505  19.667  0.00  0.00    +0.000 A 
ATOM     20  C   UNL     1      10.250  11.131  20.312  0.00  0.00    +0.000 A 
ATOM     21  C   UNL     1      11.201  11.867  19.583  0.00  0.00    +0.000 A 
ATOM     22  C   UNL     1      12.330  12.548  20.309  0.00  0.00    +0.000 C 
ATOM     23  C   UNL     1      11.056  11.945  18.191  0.00  0.00    +0.000 A 
ATOM     24 CL   UNL     1      12.159  12.861  17.225  0.00  0.00    +0.000 Cl
ATOM     25  C   UNL     1      10.006  11.287  17.543  0.00  0.00    +0.000 A 
ENDBRANCH  15  18
ENDBRANCH   9  12
BRANCH   1  29
ATOM     26  C   UNL     1       1.621   7.803  20.687  0.00  0.00    +0.000 C 
ATOM     27  C   UNL     1       2.129   6.933  19.568  0.00  0.00    +0.000 C 
ATOM     28  O   UNL     1       1.912   7.246  18.400  0.00  0.00    +0.000 OA
ATOM     29  N   UNL     1       2.808   5.806  20.019  0.00  0.00    +0.000 N 
ATOM     30  H   UNL     1       2.758   5.610  21.008  0.00  0.00    +0.000 HD
ENDBRANCH   1  29
TORSDOF 3
ENDMDL
