MODEL 1
REMARK VINA RESULT:      -8.5      0.000      0.000
REMARK  Name = 
REMARK  8 active torsions:
REMARK  status: ('A' for Active; 'I' for Inactive)
REMARK    1  A    between atoms: C_1  and  C_2
REMARK    2  A    between atoms: C_2  and  C_3
REMARK    3  A    between atoms: C_2  and  C_4
REMARK    4  A    between atoms: C_2  and  C_5
REMARK    5  A    between atoms: C_8  and  C_9
REMARK    6  A    between atoms: C_16  and  O_17
REMARK    7  A    between atoms: O_17  and  C_18
REMARK    8  A    between atoms: C_23  and  C_24
REMARK                            x       y       z     vdW  Elec       q    Type
REMARK                         _______ _______ _______ _____ _____    ______ ____
ROOT
ATOM      1  C   UNL     1      -0.316  10.883  22.214  0.00  0.00    +0.000 A 
ATOM      2  C   UNL     1       0.002   9.743  22.933  0.00  0.00    +0.000 A 
ATOM      3  C   UNL     1       0.649   8.684  22.277  0.00  0.00    +0.000 A 
ATOM      4  C   UNL     1       0.977   8.790  20.931  0.00  0.00    +0.000 A 
ATOM      5  N   UNL     1       1.584   7.796  20.195  0.00  0.00    +0.000 N 
ATOM      6  C   UNL     1       2.362   8.237  19.035  0.00  0.00    +0.000 C 
ATOM      7  C   UNL     1       2.031   7.327  17.863  0.00  0.00    +0.000 C 
ATOM      8  C   UNL     1       2.366   5.874  18.200  0.00  0.00    +0.000 C 
ATOM      9  C   UNL     1       1.701   5.454  19.522  0.00  0.00    +0.000 C 
ATOM     10  C   UNL     1       1.893   6.452  20.669  0.00  0.00    +0.000 C 
ATOM     11  N   UNL     1       0.644   9.935  20.293  0.00  0.00    +0.000 NA
ATOM     12  N   UNL     1      -0.000  10.977  20.915  0.00  0.00    +0.000 NA
ENDROOT
BRANCH   1  16
ATOM     13  C   UNL     1      -2.756  13.089  23.424  0.00  0.00    +0.000 A 
ATOM     14  N   UNL     1      -1.714  13.852  23.685  0.00  0.00    +0.000 NA
ATOM     15  N   UNL     1      -0.598  13.154  23.260  0.00  0.00    +0.000 NA
ATOM     16  C   UNL     1      -1.033  12.013  22.771  0.00  0.00    +0.000 A 
ATOM     17  O   UNL     1      -2.403  11.908  22.833  0.00  0.00    +0.000 OA
BRANCH  13  19
ATOM     18  C   UNL     1      -4.709  12.408  24.801  0.00  0.00    +0.000 C 
ATOM     19  C   UNL     1      -4.218  13.329  23.673  0.00  0.00    +0.000 C 
ATOM     20  C   UNL     1      -5.030  13.030  22.400  0.00  0.00    +0.000 C 
ATOM     21  C   UNL     1      -4.446  14.792  24.088  0.00  0.00    +0.000 C 
ENDBRANCH  13  19
ENDBRANCH   1  16
BRANCH   8  22
ATOM     22  O   UNL     1       3.791   5.697  18.298  0.00  0.00    +0.000 OA
BRANCH  22  23
ATOM     23  C   UNL     1       4.478   5.267  17.189  0.00  0.00    +0.000 A 
ATOM     24  C   UNL     1       5.143   6.126  16.300  0.00  0.00    +0.000 A 
ATOM     25  C   UNL     1       5.782   5.640  15.157  0.00  0.00    +0.000 A 
ATOM     26  C   UNL     1       5.798   4.278  14.898  0.00  0.00    +0.000 A 
ATOM     27  C   UNL     1       5.183   3.406  15.792  0.00  0.00    +0.000 A 
ATOM     28  C   UNL     1       4.511   3.884  16.941  0.00  0.00    +0.000 A 
BRANCH  28  29
ATOM     29  C   UNL     1       3.851   2.852  17.822  0.00  0.00    +0.000 C 
ATOM     30  F   UNL     1       4.037   2.987  19.162  0.00  0.00    +0.000 F 
ATOM     31  F   UNL     1       2.496   2.833  17.643  0.00  0.00    +0.000 F 
ATOM     32  F   UNL     1       4.265   1.585  17.520  0.00  0.00    +0.000 F 
ENDBRANCH  28  29
ENDBRANCH  22  23
ENDBRANCH   8  22
TORSDOF 5
ENDMDL
MODEL 2
REMARK VINA RESULT:      -8.5      0.050      1.023
REMARK  Name = 
REMARK  8 active torsions:
REMARK  status: ('A' for Active; 'I' for Inactive)
REMARK    1  A    between atoms: C_1  and  C_2
REMARK    2  A    between atoms: C_2  and  C_3
REMARK    3  A    between atoms: C_2  and  C_4
REMARK    4  A    between atoms: C_2  and  C_5
REMARK    5  A    between atoms: C_8  and  C_9
REMARK    6  A    between atoms: C_16  and  O_17
REMARK    7  A    between atoms: O_17  and  C_18
REMARK    8  A    between atoms: C_23  and  C_24
REMARK                            x       y       z     vdW  Elec       q    Type
REMARK                         _______ _______ _______ _____ _____    ______ ____
ROOT
ATOM      1  C   UNL     1      -0.305  10.864  22.201  0.00  0.00    +0.000 A 
ATOM      2  C   UNL     1       0.014   9.730  22.928  0.00  0.00    +0.000 A 
ATOM      3  C   UNL     1       0.662   8.666  22.281  0.00  0.00    +0.000 A 
ATOM      4  C   UNL     1       0.990   8.762  20.934  0.00  0.00    +0.000 A 
ATOM      5  N   UNL     1       1.597   7.762  20.205  0.00  0.00    +0.000 N 
ATOM      6  C   UNL     1       2.374   8.195  19.042  0.00  0.00    +0.000 C 
ATOM      7  C   UNL     1       2.044   7.275  17.877  0.00  0.00    +0.000 C 
ATOM      8  C   UNL     1       2.379   5.825  18.225  0.00  0.00    +0.000 C 
ATOM      9  C   UNL     1       1.714   5.415  19.550  0.00  0.00    +0.000 C 
ATOM     10  C   UNL     1       1.907   6.423  20.690  0.00  0.00    +0.000 C 
ATOM     11  N   UNL     1       0.655   9.902  20.286  0.00  0.00    +0.000 NA
ATOM     12  N   UNL     1       0.011  10.948  20.901  0.00  0.00    +0.000 NA
ENDROOT
BRANCH   1  16
ATOM     13  C   UNL     1      -2.743  13.071  23.410  0.00  0.00    +0.000 A 
ATOM     14  N   UNL     1      -1.704  13.848  23.640  0.00  0.00    +0.000 NA
ATOM     15  N   UNL     1      -0.589  13.151  23.210  0.00  0.00    +0.000 NA
ATOM     16  C   UNL     1      -1.022  11.997  22.749  0.00  0.00    +0.000 A 
ATOM     17  O   UNL     1      -2.390  11.883  22.835  0.00  0.00    +0.000 OA
BRANCH  13  19
ATOM     18  C   UNL     1      -4.433  14.774  24.062  0.00  0.00    +0.000 C 
ATOM     19  C   UNL     1      -4.203  13.303  23.679  0.00  0.00    +0.000 C 
ATOM     20  C   UNL     1      -4.679  12.409  24.837  0.00  0.00    +0.000 C 
ATOM     21  C   UNL     1      -5.026  12.982  22.419  0.00  0.00    +0.000 C 
ENDBRANCH  13  19
ENDBRANCH   1  16
BRANCH   8  22
ATOM     22  O   UNL     1       3.804   5.650  18.324  0.00  0.00    +0.000 OA
BRANCH  22  23
ATOM     23  C   UNL     1       4.496   5.245  17.209  0.00  0.00    +0.000 A 
ATOM     24  C   UNL     1       5.185   6.122  16.355  0.00  0.00    +0.000 A 
ATOM     25  C   UNL     1       5.828   5.662  15.204  0.00  0.00    +0.000 A 
ATOM     26  C   UNL     1       5.825   4.309  14.900  0.00  0.00    +0.000 A 
ATOM     27  C   UNL     1       5.185   3.419  15.758  0.00  0.00    +0.000 A 
ATOM     28  C   UNL     1       4.509   3.870  16.916  0.00  0.00    +0.000 A 
BRANCH  28  29
ATOM     29  C   UNL     1       3.822   2.822  17.755  0.00  0.00    +0.000 C 
ATOM     30  F   UNL     1       4.160   1.527  17.509  0.00  0.00    +0.000 F 
ATOM     31  F   UNL     1       4.057   3.012  19.088  0.00  0.00    +0.000 F 
ATOM     32  F   UNL     1       2.463   2.877  17.625  0.00  0.00    +0.000 F 
ENDBRANCH  28  29
ENDBRANCH  22  23
ENDBRANCH   8  22
TORSDOF 5
ENDMDL
MODEL 3
REMARK VINA RESULT:      -8.4      1.695      2.237
REMARK  Name = 
REMARK  8 active torsions:
REMARK  status: ('A' for Active; 'I' for Inactive)
REMARK    1  A    between atoms: C_1  and  C_2
REMARK    2  A    between atoms: C_2  and  C_3
REMARK    3  A    between atoms: C_2  and  C_4
REMARK    4  A    between atoms: C_2  and  C_5
REMARK    5  A    between atoms: C_8  and  C_9
REMARK    6  A    between atoms: C_16  and  O_17
REMARK    7  A    between atoms: O_17  and  C_18
REMARK    8  A    between atoms: C_23  and  C_24
REMARK                            x       y       z     vdW  Elec       q    Type
REMARK                         _______ _______ _______ _____ _____    ______ ____
ROOT
ATOM      1  C   UNL     1       0.132  10.630  21.675  0.00  0.00    +0.000 A 
ATOM      2  C   UNL     1       0.335   9.517  22.475  0.00  0.00    +0.000 A 
ATOM      3  C   UNL     1       0.965   8.390  21.925  0.00  0.00    +0.000 A 
ATOM      4  C   UNL     1       1.389   8.401  20.602  0.00  0.00    +0.000 A 
ATOM      5  N   UNL     1       1.988   7.335  19.965  0.00  0.00    +0.000 N 
ATOM      6  C   UNL     1       2.866   7.668  18.842  0.00  0.00    +0.000 C 
ATOM      7  C   UNL     1       2.566   6.710  17.699  0.00  0.00    +0.000 C 
ATOM      8  C   UNL     1       2.793   5.263  18.137  0.00  0.00    +0.000 C 
ATOM      9  C   UNL     1       2.016   4.955  19.429  0.00  0.00    +0.000 C 
ATOM     10  C   UNL     1       2.186   6.007  20.532  0.00  0.00    +0.000 C 
ATOM     11  N   UNL     1       1.166   9.523  19.881  0.00  0.00    +0.000 NA
ATOM     12  N   UNL     1       0.541  10.632  20.399  0.00  0.00    +0.000 NA
ENDROOT
BRANCH   1  16
ATOM     13  C   UNL     1      -2.216  12.960  22.830  0.00  0.00    +0.000 A 
ATOM     14  N   UNL     1      -1.195  13.789  22.765  0.00  0.00    +0.000 NA
ATOM     15  N   UNL     1      -0.119  13.053  22.302  0.00  0.00    +0.000 NA
ATOM     16  C   UNL     1      -0.555  11.826  22.118  0.00  0.00    +0.000 A 
ATOM     17  O   UNL     1      -1.890  11.696  22.425  0.00  0.00    +0.000 OA
BRANCH  13  19
ATOM     18  C   UNL     1      -3.792  14.659  23.729  0.00  0.00    +0.000 C 
ATOM     19  C   UNL     1      -3.633  13.201  23.269  0.00  0.00    +0.000 C 
ATOM     20  C   UNL     1      -3.994  12.269  24.439  0.00  0.00    +0.000 C 
ATOM     21  C   UNL     1      -4.596  12.940  22.098  0.00  0.00    +0.000 C 
ENDBRANCH  13  19
ENDBRANCH   1  16
BRANCH   8  22
ATOM     22  O   UNL     1       4.196   5.017  18.346  0.00  0.00    +0.000 OA
BRANCH  22  23
ATOM     23  C   UNL     1       4.997   4.811  17.250  0.00  0.00    +0.000 A 
ATOM     24  C   UNL     1       4.531   4.311  16.024  0.00  0.00    +0.000 A 
ATOM     25  C   UNL     1       5.400   4.070  14.957  0.00  0.00    +0.000 A 
ATOM     26  C   UNL     1       6.751   4.357  15.084  0.00  0.00    +0.000 A 
ATOM     27  C   UNL     1       7.224   4.895  16.277  0.00  0.00    +0.000 A 
ATOM     28  C   UNL     1       6.362   5.123  17.375  0.00  0.00    +0.000 A 
BRANCH  28  29
ATOM     29  C   UNL     1       6.990   5.678  18.629  0.00  0.00    +0.000 C 
ATOM     30  F   UNL     1       6.271   5.552  19.777  0.00  0.00    +0.000 F 
ATOM     31  F   UNL     1       8.197   5.091  18.889  0.00  0.00    +0.000 F 
ATOM     32  F   UNL     1       7.264   7.012  18.514  0.00  0.00    +0.000 F 
ENDBRANCH  28  29
ENDBRANCH  22  23
ENDBRANCH   8  22
TORSDOF 5
ENDMDL
MODEL 4
REMARK VINA RESULT:      -8.3      2.013      2.649
REMARK  Name = 
REMARK  8 active torsions:
REMARK  status: ('A' for Active; 'I' for Inactive)
REMARK    1  A    between atoms: C_1  and  C_2
REMARK    2  A    between atoms: C_2  and  C_3
REMARK    3  A    between atoms: C_2  and  C_4
REMARK    4  A    between atoms: C_2  and  C_5
REMARK    5  A    between atoms: C_8  and  C_9
REMARK    6  A    between atoms: C_16  and  O_17
REMARK    7  A    between atoms: O_17  and  C_18
REMARK    8  A    between atoms: C_23  and  C_24
REMARK                            x       y       z     vdW  Elec       q    Type
REMARK                         _______ _______ _______ _____ _____    ______ ____
ROOT
ATOM      1  C   UNL     1       0.473  10.324  21.063  0.00  0.00    +0.000 A 
ATOM      2  C   UNL     1       0.749   9.345  22.002  0.00  0.00    +0.000 A 
ATOM      3  C   UNL     1       1.366   8.155  21.583  0.00  0.00    +0.000 A 
ATOM      4  C   UNL     1       1.706   7.976  20.248  0.00  0.00    +0.000 A 
ATOM      5  N   UNL     1       2.284   6.834  19.736  0.00  0.00    +0.000 N 
ATOM      6  C   UNL     1       3.083   7.007  18.522  0.00  0.00    +0.000 C 
ATOM      7  C   UNL     1       2.731   5.888  17.554  0.00  0.00    +0.000 C 
ATOM      8  C   UNL     1       3.015   4.524  18.183  0.00  0.00    +0.000 C 
ATOM      9  C   UNL     1       2.328   4.402  19.554  0.00  0.00    +0.000 C 
ATOM     10  C   UNL     1       2.546   5.606  20.477  0.00  0.00    +0.000 C 
ATOM     11  N   UNL     1       1.414   8.977  19.386  0.00  0.00    +0.000 NA
ATOM     12  N   UNL     1       0.801  10.142  19.776  0.00  0.00    +0.000 NA
ENDROOT
BRANCH   1  16
ATOM     13  C   UNL     1      -1.886  12.878  21.503  0.00  0.00    +0.000 A 
ATOM     14  N   UNL     1      -0.857  13.529  22.006  0.00  0.00    +0.000 NA
ATOM     15  N   UNL     1       0.229  12.678  21.919  0.00  0.00    +0.000 NA
ATOM     16  C   UNL     1      -0.209  11.565  21.371  0.00  0.00    +0.000 A 
ATOM     17  O   UNL     1      -1.550  11.626  21.068  0.00  0.00    +0.000 OA
BRANCH  13  19
ATOM     18  C   UNL     1      -3.392  14.833  21.204  0.00  0.00    +0.000 C 
ATOM     19  C   UNL     1      -3.318  13.304  21.344  0.00  0.00    +0.000 C 
ATOM     20  C   UNL     1      -4.138  12.879  22.575  0.00  0.00    +0.000 C 
ATOM     21  C   UNL     1      -3.921  12.657  20.086  0.00  0.00    +0.000 C 
ENDBRANCH  13  19
ENDBRANCH   1  16
BRANCH   8  22
ATOM     22  O   UNL     1       4.433   4.327  18.333  0.00  0.00    +0.000 OA
BRANCH  22  23
ATOM     23  C   UNL     1       5.229   4.400  17.216  0.00  0.00    +0.000 A 
ATOM     24  C   UNL     1       4.882   3.850  15.972  0.00  0.00    +0.000 A 
ATOM     25  C   UNL     1       5.753   3.907  14.882  0.00  0.00    +0.000 A 
ATOM     26  C   UNL     1       6.977   4.547  15.004  0.00  0.00    +0.000 A 
ATOM     27  C   UNL     1       7.320   5.138  16.218  0.00  0.00    +0.000 A 
ATOM     28  C   UNL     1       6.460   5.069  17.338  0.00  0.00    +0.000 A 
BRANCH  28  29
ATOM     29  C   UNL     1       6.947   5.714  18.611  0.00  0.00    +0.000 C 
ATOM     30  F   UNL     1       6.132   5.615  19.695  0.00  0.00    +0.000 F 
ATOM     31  F   UNL     1       8.147   5.195  19.010  0.00  0.00    +0.000 F 
ATOM     32  F   UNL     1       7.178   7.052  18.447  0.00  0.00    +0.000 F 
ENDBRANCH  28  29
ENDBRANCH  22  23
ENDBRANCH   8  22
TORSDOF 5
ENDMDL
MODEL 5
REMARK VINA RESULT:      -8.1      2.042      2.604
REMARK  Name = 
REMARK  8 active torsions:
REMARK  status: ('A' for Active; 'I' for Inactive)
REMARK    1  A    between atoms: C_1  and  C_2
REMARK    2  A    between atoms: C_2  and  C_3
REMARK    3  A    between atoms: C_2  and  C_4
REMARK    4  A    between atoms: C_2  and  C_5
REMARK    5  A    between atoms: C_8  and  C_9
REMARK    6  A    between atoms: C_16  and  O_17
REMARK    7  A    between atoms: O_17  and  C_18
REMARK    8  A    between atoms: C_23  and  C_24
REMARK                            x       y       z     vdW  Elec       q    Type
REMARK                         _______ _______ _______ _____ _____    ______ ____
ROOT
ATOM      1  C   UNL     1      -0.010  10.416  21.531  0.00  0.00    +0.000 A 
ATOM      2  C   UNL     1       0.403   9.364  22.331  0.00  0.00    +0.000 A 
ATOM      3  C   UNL     1       1.132   8.314  21.751  0.00  0.00    +0.000 A 
ATOM      4  C   UNL     1       1.445   8.343  20.397  0.00  0.00    +0.000 A 
ATOM      5  N   UNL     1       2.128   7.348  19.732  0.00  0.00    +0.000 N 
ATOM      6  C   UNL     1       2.862   7.761  18.535  0.00  0.00    +0.000 C 
ATOM      7  C   UNL     1       2.603   6.740  17.438  0.00  0.00    +0.000 C 
ATOM      8  C   UNL     1       3.056   5.348  17.881  0.00  0.00    +0.000 C 
ATOM      9  C   UNL     1       2.433   4.978  19.238  0.00  0.00    +0.000 C 
ATOM     10  C   UNL     1       2.548   6.074  20.304  0.00  0.00    +0.000 C 
ATOM     11  N   UNL     1       1.017   9.405  19.677  0.00  0.00    +0.000 NA
ATOM     12  N   UNL     1       0.292  10.435  20.226  0.00  0.00    +0.000 NA
ENDROOT
BRANCH   1  16
ATOM     13  C   UNL     1      -2.489  12.844  22.017  0.00  0.00    +0.000 A 
ATOM     14  N   UNL     1      -1.736  13.185  23.043  0.00  0.00    +0.000 NA
ATOM     15  N   UNL     1      -0.650  12.328  23.036  0.00  0.00    +0.000 NA
ATOM     16  C   UNL     1      -0.815  11.523  22.008  0.00  0.00    +0.000 A 
ATOM     17  O   UNL     1      -1.963  11.803  21.306  0.00  0.00    +0.000 OA
BRANCH  13  19
ATOM     18  C   UNL     1      -4.139  12.843  20.157  0.00  0.00    +0.000 C 
ATOM     19  C   UNL     1      -3.792  13.421  21.538  0.00  0.00    +0.000 C 
ATOM     20  C   UNL     1      -3.685  14.952  21.422  0.00  0.00    +0.000 C 
ATOM     21  C   UNL     1      -4.916  13.065  22.525  0.00  0.00    +0.000 C 
ENDBRANCH  13  19
ENDBRANCH   1  16
BRANCH   8  22
ATOM     22  O   UNL     1       4.491   5.296  17.978  0.00  0.00    +0.000 OA
BRANCH  22  23
ATOM     23  C   UNL     1       5.215   4.992  16.851  0.00  0.00    +0.000 A 
ATOM     24  C   UNL     1       4.851   3.992  15.935  0.00  0.00    +0.000 A 
ATOM     25  C   UNL     1       5.653   3.688  14.832  0.00  0.00    +0.000 A 
ATOM     26  C   UNL     1       6.820   4.400  14.605  0.00  0.00    +0.000 A 
ATOM     27  C   UNL     1       7.175   5.425  15.478  0.00  0.00    +0.000 A 
ATOM     28  C   UNL     1       6.387   5.731  16.611  0.00  0.00    +0.000 A 
BRANCH  28  29
ATOM     29  C   UNL     1       6.884   6.839  17.507  0.00  0.00    +0.000 C 
ATOM     30  F   UNL     1       8.054   7.432  17.150  0.00  0.00    +0.000 F 
ATOM     31  F   UNL     1       5.974   7.855  17.601  0.00  0.00    +0.000 F 
ATOM     32  F   UNL     1       7.068   6.409  18.792  0.00  0.00    +0.000 F 
ENDBRANCH  28  29
ENDBRANCH  22  23
ENDBRANCH   8  22
TORSDOF 5
ENDMDL
MODEL 6
REMARK VINA RESULT:      -8.1      5.660     10.642
REMARK  Name = 
REMARK  8 active torsions:
REMARK  status: ('A' for Active; 'I' for Inactive)
REMARK    1  A    between atoms: C_1  and  C_2
REMARK    2  A    between atoms: C_2  and  C_3
REMARK    3  A    between atoms: C_2  and  C_4
REMARK    4  A    between atoms: C_2  and  C_5
REMARK    5  A    between atoms: C_8  and  C_9
REMARK    6  A    between atoms: C_16  and  O_17
REMARK    7  A    between atoms: O_17  and  C_18
REMARK    8  A    between atoms: C_23  and  C_24
REMARK                            x       y       z     vdW  Elec       q    Type
REMARK                         _______ _______ _______ _____ _____    ______ ____
ROOT
ATOM      1  C   UNL     1       1.905   7.632  19.646  0.00  0.00    +0.000 A 
ATOM      2  C   UNL     1       2.085   8.262  18.427  0.00  0.00    +0.000 A 
ATOM      3  C   UNL     1       1.739   9.617  18.304  0.00  0.00    +0.000 A 
ATOM      4  C   UNL     1       1.240  10.314  19.397  0.00  0.00    +0.000 A 
ATOM      5  N   UNL     1       0.845  11.635  19.366  0.00  0.00    +0.000 N 
ATOM      6  C   UNL     1       0.908  12.354  20.640  0.00  0.00    +0.000 C 
ATOM      7  C   UNL     1      -0.370  13.163  20.796  0.00  0.00    +0.000 C 
ATOM      8  C   UNL     1      -0.525  14.151  19.639  0.00  0.00    +0.000 C 
ATOM      9  C   UNL     1      -0.406  13.429  18.286  0.00  0.00    +0.000 C 
ATOM     10  C   UNL     1       0.795  12.482  18.181  0.00  0.00    +0.000 C 
ATOM     11  N   UNL     1       1.097   9.639  20.560  0.00  0.00    +0.000 NA
ATOM     12  N   UNL     1       1.419   8.310  20.695  0.00  0.00    +0.000 NA
ENDROOT
BRANCH   1  16
ATOM     13  C   UNL     1       2.892   4.281  19.375  0.00  0.00    +0.000 A 
ATOM     14  N   UNL     1       2.444   4.210  20.612  0.00  0.00    +0.000 NA
ATOM     15  N   UNL     1       1.977   5.472  20.934  0.00  0.00    +0.000 NA
ATOM     16  C   UNL     1       2.172   6.226  19.874  0.00  0.00    +0.000 A 
ATOM     17  O   UNL     1       2.743   5.528  18.836  0.00  0.00    +0.000 OA
BRANCH  13  19
ATOM     18  C   UNL     1       4.274   2.214  19.389  0.00  0.00    +0.000 C 
ATOM     19  C   UNL     1       3.516   3.223  18.510  0.00  0.00    +0.000 C 
ATOM     20  C   UNL     1       4.507   3.861  17.521  0.00  0.00    +0.000 C 
ATOM     21  C   UNL     1       2.424   2.478  17.724  0.00  0.00    +0.000 C 
ENDBRANCH  13  19
ENDBRANCH   1  16
BRANCH   8  22
ATOM     22  O   UNL     1       0.473  15.185  19.726  0.00  0.00    +0.000 OA
BRANCH  22  23
ATOM     23  C   UNL     1       0.348  16.288  18.917  0.00  0.00    +0.000 A 
ATOM     24  C   UNL     1      -0.855  16.987  18.729  0.00  0.00    +0.000 A 
ATOM     25  C   UNL     1      -0.938  18.072  17.853  0.00  0.00    +0.000 A 
ATOM     26  C   UNL     1       0.191  18.502  17.173  0.00  0.00    +0.000 A 
ATOM     27  C   UNL     1       1.403  17.850  17.381  0.00  0.00    +0.000 A 
ATOM     28  C   UNL     1       1.499  16.735  18.246  0.00  0.00    +0.000 A 
BRANCH  28  29
ATOM     29  C   UNL     1       2.855  16.085  18.369  0.00  0.00    +0.000 C 
ATOM     30  F   UNL     1       3.315  15.870  19.631  0.00  0.00    +0.000 F 
ATOM     31  F   UNL     1       2.882  14.862  17.759  0.00  0.00    +0.000 F 
ATOM     32  F   UNL     1       3.827  16.813  17.743  0.00  0.00    +0.000 F 
ENDBRANCH  28  29
ENDBRANCH  22  23
ENDBRANCH   8  22
TORSDOF 5
ENDMDL
MODEL 7
REMARK VINA RESULT:      -8.1      5.654     10.639
REMARK  Name = 
REMARK  8 active torsions:
REMARK  status: ('A' for Active; 'I' for Inactive)
REMARK    1  A    between atoms: C_1  and  C_2
REMARK    2  A    between atoms: C_2  and  C_3
REMARK    3  A    between atoms: C_2  and  C_4
REMARK    4  A    between atoms: C_2  and  C_5
REMARK    5  A    between atoms: C_8  and  C_9
REMARK    6  A    between atoms: C_16  and  O_17
REMARK    7  A    between atoms: O_17  and  C_18
REMARK    8  A    between atoms: C_23  and  C_24
REMARK                            x       y       z     vdW  Elec       q    Type
REMARK                         _______ _______ _______ _____ _____    ______ ____
ROOT
ATOM      1  C   UNL     1       1.884   7.579  19.639  0.00  0.00    +0.000 A 
ATOM      2  C   UNL     1       2.060   8.203  18.416  0.00  0.00    +0.000 A 
ATOM      3  C   UNL     1       1.724   9.559  18.289  0.00  0.00    +0.000 A 
ATOM      4  C   UNL     1       1.236  10.265  19.382  0.00  0.00    +0.000 A 
ATOM      5  N   UNL     1       0.850  11.588  19.348  0.00  0.00    +0.000 N 
ATOM      6  C   UNL     1       0.925  12.312  20.618  0.00  0.00    +0.000 C 
ATOM      7  C   UNL     1      -0.346  13.131  20.778  0.00  0.00    +0.000 C 
ATOM      8  C   UNL     1      -0.501  14.115  19.618  0.00  0.00    +0.000 C 
ATOM      9  C   UNL     1      -0.395  13.386  18.268  0.00  0.00    +0.000 C 
ATOM     10  C   UNL     1       0.799  12.430  18.159  0.00  0.00    +0.000 C 
ATOM     11  N   UNL     1       1.096   9.595  20.548  0.00  0.00    +0.000 NA
ATOM     12  N   UNL     1       1.409   8.265  20.688  0.00  0.00    +0.000 NA
ENDROOT
BRANCH   1  16
ATOM     13  C   UNL     1       2.850   4.221  19.379  0.00  0.00    +0.000 A 
ATOM     14  N   UNL     1       2.404   4.158  20.617  0.00  0.00    +0.000 NA
ATOM     15  N   UNL     1       1.945   5.423  20.935  0.00  0.00    +0.000 NA
ATOM     16  C   UNL     1       2.143   6.172  19.872  0.00  0.00    +0.000 A 
ATOM     17  O   UNL     1       2.709   5.467  18.835  0.00  0.00    +0.000 OA
BRANCH  13  19
ATOM     18  C   UNL     1       4.417   3.801  17.495  0.00  0.00    +0.000 C 
ATOM     19  C   UNL     1       3.466   3.156  18.516  0.00  0.00    +0.000 C 
ATOM     20  C   UNL     1       2.370   2.387  17.756  0.00  0.00    +0.000 C 
ATOM     21  C   UNL     1       4.264   2.172  19.388  0.00  0.00    +0.000 C 
ENDBRANCH  13  19
ENDBRANCH   1  16
BRANCH   8  22
ATOM     22  O   UNL     1       0.504  15.142  19.694  0.00  0.00    +0.000 OA
BRANCH  22  23
ATOM     23  C   UNL     1       0.373  16.251  18.895  0.00  0.00    +0.000 A 
ATOM     24  C   UNL     1      -0.836  16.943  18.712  0.00  0.00    +0.000 A 
ATOM     25  C   UNL     1      -0.926  18.035  17.845  0.00  0.00    +0.000 A 
ATOM     26  C   UNL     1       0.200  18.479  17.170  0.00  0.00    +0.000 A 
ATOM     27  C   UNL     1       1.417  17.834  17.373  0.00  0.00    +0.000 A 
ATOM     28  C   UNL     1       1.521  16.713  18.229  0.00  0.00    +0.000 A 
BRANCH  28  29
ATOM     29  C   UNL     1       2.881  16.072  18.348  0.00  0.00    +0.000 C 
ATOM     30  F   UNL     1       3.924  16.749  17.798  0.00  0.00    +0.000 F 
ATOM     31  F   UNL     1       3.228  15.869  19.655  0.00  0.00    +0.000 F 
ATOM     32  F   UNL     1       2.909  14.829  17.779  0.00  0.00    +0.000 F 
ENDBRANCH  28  29
ENDBRANCH  22  23
ENDBRANCH   8  22
TORSDOF 5
ENDMDL
MODEL 8
REMARK VINA RESULT:      -7.9      2.230      3.010
REMARK  Name = 
REMARK  8 active torsions:
REMARK  status: ('A' for Active; 'I' for Inactive)
REMARK    1  A    between atoms: C_1  and  C_2
REMARK    2  A    between atoms: C_2  and  C_3
REMARK    3  A    between atoms: C_2  and  C_4
REMARK    4  A    between atoms: C_2  and  C_5
REMARK    5  A    between atoms: C_8  and  C_9
REMARK    6  A    between atoms: C_16  and  O_17
REMARK    7  A    between atoms: O_17  and  C_18
REMARK    8  A    between atoms: C_23  and  C_24
REMARK                            x       y       z     vdW  Elec       q    Type
REMARK                         _______ _______ _______ _____ _____    ______ ____
ROOT
ATOM      1  C   UNL     1      -0.306  12.483  21.229  0.00  0.00    +0.000 A 
ATOM      2  C   UNL     1      -0.326  12.363  19.850  0.00  0.00    +0.000 A 
ATOM      3  C   UNL     1       0.184  11.196  19.261  0.00  0.00    +0.000 A 
ATOM      4  C   UNL     1       0.686  10.173  20.056  0.00  0.00    +0.000 A 
ATOM      5  N   UNL     1       1.235   9.005  19.571  0.00  0.00    +0.000 N 
ATOM      6  C   UNL     1       1.171   7.846  20.462  0.00  0.00    +0.000 C 
ATOM      7  C   UNL     1       2.522   7.148  20.437  0.00  0.00    +0.000 C 
ATOM      8  C   UNL     1       2.870   6.703  19.017  0.00  0.00    +0.000 C 
ATOM      9  C   UNL     1       2.760   7.881  18.034  0.00  0.00    +0.000 C 
ATOM     10  C   UNL     1       1.465   8.692  18.166  0.00  0.00    +0.000 C 
ATOM     11  N   UNL     1       0.668  10.354  21.396  0.00  0.00    +0.000 NA
ATOM     12  N   UNL     1       0.184  11.494  21.989  0.00  0.00    +0.000 NA
ENDROOT
BRANCH   1  16
ATOM     13  C   UNL     1      -1.912  14.749  23.366  0.00  0.00    +0.000 A 
ATOM     14  N   UNL     1      -1.099  15.619  22.802  0.00  0.00    +0.000 NA
ATOM     15  N   UNL     1      -0.348  14.914  21.878  0.00  0.00    +0.000 NA
ATOM     16  C   UNL     1      -0.752  13.663  21.942  0.00  0.00    +0.000 A 
ATOM     17  O   UNL     1      -1.757  13.487  22.864  0.00  0.00    +0.000 OA
BRANCH  13  19
ATOM     18  C   UNL     1      -3.762  13.654  24.615  0.00  0.00    +0.000 C 
ATOM     19  C   UNL     1      -2.945  14.945  24.440  0.00  0.00    +0.000 C 
ATOM     20  C   UNL     1      -3.901  16.088  24.056  0.00  0.00    +0.000 C 
ATOM     21  C   UNL     1      -2.257  15.285  25.773  0.00  0.00    +0.000 C 
ENDBRANCH  13  19
ENDBRANCH   1  16
BRANCH   8  22
ATOM     22  O   UNL     1       1.998   5.638  18.597  0.00  0.00    +0.000 OA
BRANCH  22  23
ATOM     23  C   UNL     1       2.529   4.383  18.420  0.00  0.00    +0.000 A 
ATOM     24  C   UNL     1       3.343   4.025  17.334  0.00  0.00    +0.000 A 
ATOM     25  C   UNL     1       3.813   2.719  17.176  0.00  0.00    +0.000 A 
ATOM     26  C   UNL     1       3.506   1.752  18.120  0.00  0.00    +0.000 A 
ATOM     27  C   UNL     1       2.737   2.099  19.227  0.00  0.00    +0.000 A 
ATOM     28  C   UNL     1       2.234   3.410  19.391  0.00  0.00    +0.000 A 
BRANCH  28  29
ATOM     29  C   UNL     1       1.384   3.666  20.611  0.00  0.00    +0.000 C 
ATOM     30  F   UNL     1       0.877   2.572  21.240  0.00  0.00    +0.000 F 
ATOM     31  F   UNL     1       2.077   4.349  21.571  0.00  0.00    +0.000 F 
ATOM     32  F   UNL     1       0.306   4.456  20.324  0.00  0.00    +0.000 F 
ENDBRANCH  28  29
ENDBRANCH  22  23
ENDBRANCH   8  22
TORSDOF 5
ENDMDL
MODEL 9
REMARK VINA RESULT:      -7.9      0.594      1.065
REMARK  Name = 
REMARK  8 active torsions:
REMARK  status: ('A' for Active; 'I' for Inactive)
REMARK    1  A    between atoms: C_1  and  C_2
REMARK    2  A    between atoms: C_2  and  C_3
REMARK    3  A    between atoms: C_2  and  C_4
REMARK    4  A    between atoms: C_2  and  C_5
REMARK    5  A    between atoms: C_8  and  C_9
REMARK    6  A    between atoms: C_16  and  O_17
REMARK    7  A    between atoms: O_17  and  C_18
REMARK    8  A    between atoms: C_23  and  C_24
REMARK                            x       y       z     vdW  Elec       q    Type
REMARK                         _______ _______ _______ _____ _____    ______ ____
ROOT
ATOM      1  C   UNL     1      -0.616  10.988  22.083  0.00  0.00    +0.000 A 
ATOM      2  C   UNL     1      -0.194   9.934  22.876  0.00  0.00    +0.000 A 
ATOM      3  C   UNL     1       0.514   8.878  22.282  0.00  0.00    +0.000 A 
ATOM      4  C   UNL     1       0.798   8.902  20.922  0.00  0.00    +0.000 A 
ATOM      5  N   UNL     1       1.459   7.900  20.245  0.00  0.00    +0.000 N 
ATOM      6  C   UNL     1       2.169   8.305  19.030  0.00  0.00    +0.000 C 
ATOM      7  C   UNL     1       1.878   7.284  17.942  0.00  0.00    +0.000 C 
ATOM      8  C   UNL     1       2.330   5.890  18.378  0.00  0.00    +0.000 C 
ATOM      9  C   UNL     1       1.734   5.527  19.748  0.00  0.00    +0.000 C 
ATOM     10  C   UNL     1       1.880   6.624  20.810  0.00  0.00    +0.000 C 
ATOM     11  N   UNL     1       0.362   9.965  20.209  0.00  0.00    +0.000 NA
ATOM     12  N   UNL     1      -0.342  11.002  20.771  0.00  0.00    +0.000 NA
ENDROOT
BRANCH   1  16
ATOM     13  C   UNL     1      -3.152  13.305  22.778  0.00  0.00    +0.000 A 
ATOM     14  N   UNL     1      -2.235  13.840  23.558  0.00  0.00    +0.000 NA
ATOM     15  N   UNL     1      -1.100  13.061  23.425  0.00  0.00    +0.000 NA
ATOM     16  C   UNL     1      -1.402  12.102  22.575  0.00  0.00    +0.000 A 
ATOM     17  O   UNL     1      -2.693  12.203  22.113  0.00  0.00    +0.000 OA
BRANCH  13  19
ATOM     18  C   UNL     1      -5.230  12.753  21.530  0.00  0.00    +0.000 C 
ATOM     19  C   UNL     1      -4.574  13.722  22.528  0.00  0.00    +0.000 C 
ATOM     20  C   UNL     1      -4.614  15.143  21.939  0.00  0.00    +0.000 C 
ATOM     21  C   UNL     1      -5.368  13.696  23.844  0.00  0.00    +0.000 C 
ENDBRANCH  13  19
ENDBRANCH   1  16
BRANCH   8  22
ATOM     22  O   UNL     1       3.767   5.827  18.443  0.00  0.00    +0.000 OA
BRANCH  22  23
ATOM     23  C   UNL     1       4.460   5.441  17.322  0.00  0.00    +0.000 A 
ATOM     24  C   UNL     1       5.103   6.338  16.454  0.00  0.00    +0.000 A 
ATOM     25  C   UNL     1       5.749   5.895  15.297  0.00  0.00    +0.000 A 
ATOM     26  C   UNL     1       5.794   4.541  15.002  0.00  0.00    +0.000 A 
ATOM     27  C   UNL     1       5.200   3.633  15.874  0.00  0.00    +0.000 A 
ATOM     28  C   UNL     1       4.522   4.066  17.037  0.00  0.00    +0.000 A 
BRANCH  28  29
ATOM     29  C   UNL     1       3.887   2.997  17.892  0.00  0.00    +0.000 C 
ATOM     30  F   UNL     1       2.528   2.956  17.905  0.00  0.00    +0.000 F 
ATOM     31  F   UNL     1       4.286   1.746  17.511  0.00  0.00    +0.000 F 
ATOM     32  F   UNL     1       4.263   3.103  19.202  0.00  0.00    +0.000 F 
ENDBRANCH  28  29
ENDBRANCH  22  23
ENDBRANCH   8  22
TORSDOF 5
ENDMDL
