MODEL 1
REMARK VINA RESULT:     -10.0      0.000      0.000
REMARK  Name = 
REMARK  4 active torsions:
REMARK  status: ('A' for Active; 'I' for Inactive)
REMARK    1  A    between atoms: N_6  and  C_7
REMARK    2  A    between atoms: C_15  and  C_16
REMARK    3  A    between atoms: C_16  and  C_17
REMARK    4  A    between atoms: C_16  and  C_24
REMARK                            x       y       z     vdW  Elec       q    Type
REMARK                         _______ _______ _______ _____ _____    ______ ____
ROOT
ATOM      1  O   UNL     1       5.355   5.956  19.702  0.00  0.00    +0.000 OA
ATOM      2  C   UNL     1       5.635   5.847  18.509  0.00  0.00    +0.000 C 
ATOM      3  N   UNL     1       6.700   5.108  18.117  0.00  0.00    +0.000 N 
ATOM      4  C   UNL     1       6.947   4.656  16.854  0.00  0.00    +0.000 C 
ATOM      5  O   UNL     1       7.772   3.750  16.729  0.00  0.00    +0.000 OA
ATOM      6  N   UNL     1       6.267   5.288  15.825  0.00  0.00    +0.000 N 
ATOM      7  C   UNL     1       5.361   6.326  16.024  0.00  0.00    +0.000 C 
ATOM      8  O   UNL     1       4.922   7.041  15.120  0.00  0.00    +0.000 OA
ATOM      9  C   UNL     1       4.867   6.544  17.433  0.00  0.00    +0.000 C 
ATOM     10  H   UNL     1       7.209   4.632  18.852  0.00  0.00    +0.000 HD
ENDROOT
BRANCH   6  11
ATOM     11  C   UNL     1       6.597   4.919  14.480  0.00  0.00    +0.000 A 
ATOM     12  C   UNL     1       5.882   3.896  13.842  0.00  0.00    +0.000 A 
ATOM     13  C   UNL     1       6.174   3.543  12.523  0.00  0.00    +0.000 A 
ATOM     14  C   UNL     1       7.205   4.187  11.841  0.00  0.00    +0.000 A 
ATOM     15  C   UNL     1       7.935   5.194  12.469  0.00  0.00    +0.000 A 
ATOM     16  C   UNL     1       7.621   5.569  13.778  0.00  0.00    +0.000 A 
ENDBRANCH   6  11
BRANCH   9  17
ATOM     17  C   UNL     1       3.336   6.295  17.611  0.00  0.00    +0.000 C 
BRANCH  17  18
ATOM     18  C   UNL     1       2.625   7.412  18.404  0.00  0.00    +0.000 A 
ATOM     19  C   UNL     1       2.310   7.278  19.771  0.00  0.00    +0.000 A 
ATOM     20  C   UNL     1       1.500   8.218  20.415  0.00  0.00    +0.000 A 
ATOM     21  C   UNL     1       1.021   9.313  19.708  0.00  0.00    +0.000 A 
ATOM     22  F   UNL     1       0.202  10.183  20.312  0.00  0.00    +0.000 F 
ATOM     23  C   UNL     1       1.361   9.500  18.375  0.00  0.00    +0.000 A 
ATOM     24  C   UNL     1       2.163   8.557  17.725  0.00  0.00    +0.000 A 
ENDBRANCH  17  18
BRANCH  17  25
ATOM     25  C   UNL     1       2.993   4.862  18.076  0.00  0.00    +0.000 A 
ATOM     26  C   UNL     1       3.331   3.714  17.335  0.00  0.00    +0.000 A 
ATOM     27  C   UNL     1       2.900   2.445  17.724  0.00  0.00    +0.000 A 
ATOM     28  C   UNL     1       2.161   2.302  18.886  0.00  0.00    +0.000 A 
ATOM     29  F   UNL     1       1.716   1.091  19.244  0.00  0.00    +0.000 F 
ATOM     30  C   UNL     1       1.886   3.396  19.691  0.00  0.00    +0.000 A 
ATOM     31  C   UNL     1       2.317   4.667  19.298  0.00  0.00    +0.000 A 
ENDBRANCH  17  25
ENDBRANCH   9  17
TORSDOF 4
ENDMDL
MODEL 2
REMARK VINA RESULT:      -9.9      0.165      1.255
REMARK  Name = 
REMARK  4 active torsions:
REMARK  status: ('A' for Active; 'I' for Inactive)
REMARK    1  A    between atoms: N_6  and  C_7
REMARK    2  A    between atoms: C_15  and  C_16
REMARK    3  A    between atoms: C_16  and  C_17
REMARK    4  A    between atoms: C_16  and  C_24
REMARK                            x       y       z     vdW  Elec       q    Type
REMARK                         _______ _______ _______ _____ _____    ______ ____
ROOT
ATOM      1  O   UNL     1       5.163   5.917  19.726  0.00  0.00    +0.000 OA
ATOM      2  C   UNL     1       5.464   5.809  18.538  0.00  0.00    +0.000 C 
ATOM      3  N   UNL     1       6.505   5.030  18.160  0.00  0.00    +0.000 N 
ATOM      4  C   UNL     1       6.760   4.582  16.898  0.00  0.00    +0.000 C 
ATOM      5  O   UNL     1       7.549   3.642  16.780  0.00  0.00    +0.000 OA
ATOM      6  N   UNL     1       6.131   5.253  15.861  0.00  0.00    +0.000 N 
ATOM      7  C   UNL     1       5.265   6.326  16.053  0.00  0.00    +0.000 C 
ATOM      8  O   UNL     1       4.876   7.069  15.148  0.00  0.00    +0.000 OA
ATOM      9  C   UNL     1       4.750   6.550  17.454  0.00  0.00    +0.000 C 
ATOM     10  H   UNL     1       6.978   4.524  18.900  0.00  0.00    +0.000 HD
ENDROOT
BRANCH   6  11
ATOM     11  C   UNL     1       6.474   4.884  14.519  0.00  0.00    +0.000 A 
ATOM     12  C   UNL     1       7.549   5.514  13.877  0.00  0.00    +0.000 A 
ATOM     13  C   UNL     1       7.913   5.145  12.579  0.00  0.00    +0.000 A 
ATOM     14  C   UNL     1       7.186   4.169  11.902  0.00  0.00    +0.000 A 
ATOM     15  C   UNL     1       6.105   3.546  12.524  0.00  0.00    +0.000 A 
ATOM     16  C   UNL     1       5.761   3.892  13.833  0.00  0.00    +0.000 A 
ENDBRANCH   6  11
BRANCH   9  17
ATOM     17  C   UNL     1       3.206   6.364  17.596  0.00  0.00    +0.000 C 
BRANCH  17  18
ATOM     18  C   UNL     1       2.526   7.500  18.388  0.00  0.00    +0.000 A 
ATOM     19  C   UNL     1       2.232   7.387  19.761  0.00  0.00    +0.000 A 
ATOM     20  C   UNL     1       1.448   8.345  20.408  0.00  0.00    +0.000 A 
ATOM     21  C   UNL     1       0.973   9.440  19.697  0.00  0.00    +0.000 A 
ATOM     22  F   UNL     1       0.178  10.330  20.305  0.00  0.00    +0.000 F 
ATOM     23  C   UNL     1       1.294   9.607  18.356  0.00  0.00    +0.000 A 
ATOM     24  C   UNL     1       2.070   8.644  17.704  0.00  0.00    +0.000 A 
ENDBRANCH  17  18
BRANCH  17  25
ATOM     25  C   UNL     1       2.792   4.941  18.035  0.00  0.00    +0.000 A 
ATOM     26  C   UNL     1       2.055   4.684  19.206  0.00  0.00    +0.000 A 
ATOM     27  C   UNL     1       1.803   3.380  19.634  0.00  0.00    +0.000 A 
ATOM     28  C   UNL     1       2.248   2.313  18.873  0.00  0.00    +0.000 A 
ATOM     29  F   UNL     1       2.039   1.061  19.298  0.00  0.00    +0.000 F 
ATOM     30  C   UNL     1       2.897   2.525  17.666  0.00  0.00    +0.000 A 
ATOM     31  C   UNL     1       3.150   3.834  17.240  0.00  0.00    +0.000 A 
ENDBRANCH  17  25
ENDBRANCH   9  17
TORSDOF 4
ENDMDL
MODEL 3
REMARK VINA RESULT:      -9.7      0.320      1.283
REMARK  Name = 
REMARK  4 active torsions:
REMARK  status: ('A' for Active; 'I' for Inactive)
REMARK    1  A    between atoms: N_6  and  C_7
REMARK    2  A    between atoms: C_15  and  C_16
REMARK    3  A    between atoms: C_16  and  C_17
REMARK    4  A    between atoms: C_16  and  C_24
REMARK                            x       y       z     vdW  Elec       q    Type
REMARK                         _______ _______ _______ _____ _____    ______ ____
ROOT
ATOM      1  O   UNL     1       5.207   5.907  19.708  0.00  0.00    +0.000 OA
ATOM      2  C   UNL     1       5.525   5.822  18.522  0.00  0.00    +0.000 C 
ATOM      3  N   UNL     1       6.643   5.151  18.156  0.00  0.00    +0.000 N 
ATOM      4  C   UNL     1       6.950   4.723  16.899  0.00  0.00    +0.000 C 
ATOM      5  O   UNL     1       7.831   3.868  16.791  0.00  0.00    +0.000 OA
ATOM      6  N   UNL     1       6.261   5.319  15.854  0.00  0.00    +0.000 N 
ATOM      7  C   UNL     1       5.289   6.299  16.033  0.00  0.00    +0.000 C 
ATOM      8  O   UNL     1       4.832   6.992  15.120  0.00  0.00    +0.000 OA
ATOM      9  C   UNL     1       4.746   6.479  17.429  0.00  0.00    +0.000 C 
ATOM     10  H   UNL     1       7.160   4.702  18.902  0.00  0.00    +0.000 HD
ENDROOT
BRANCH   6  11
ATOM     11  C   UNL     1       6.649   4.978  14.517  0.00  0.00    +0.000 A 
ATOM     12  C   UNL     1       5.975   3.955  13.834  0.00  0.00    +0.000 A 
ATOM     13  C   UNL     1       6.324   3.631  12.522  0.00  0.00    +0.000 A 
ATOM     14  C   UNL     1       7.370   4.302  11.891  0.00  0.00    +0.000 A 
ATOM     15  C   UNL     1       8.058   5.309  12.565  0.00  0.00    +0.000 A 
ATOM     16  C   UNL     1       7.689   5.657  13.866  0.00  0.00    +0.000 A 
ENDBRANCH   6  11
BRANCH   9  17
ATOM     17  C   UNL     1       3.228   6.136  17.565  0.00  0.00    +0.000 C 
BRANCH  17  18
ATOM     18  C   UNL     1       2.431   7.200  18.348  0.00  0.00    +0.000 A 
ATOM     19  C   UNL     1       2.004   8.406  17.756  0.00  0.00    +0.000 A 
ATOM     20  C   UNL     1       1.456   9.431  18.532  0.00  0.00    +0.000 A 
ATOM     21  C   UNL     1       1.303   9.251  19.900  0.00  0.00    +0.000 A 
ATOM     22  F   UNL     1       0.827  10.254  20.650  0.00  0.00    +0.000 F 
ATOM     23  C   UNL     1       1.662   8.053  20.503  0.00  0.00    +0.000 A 
ATOM     24  C   UNL     1       2.220   7.029  19.731  0.00  0.00    +0.000 A 
ENDBRANCH  17  18
BRANCH  17  25
ATOM     25  C   UNL     1       2.959   4.681  18.007  0.00  0.00    +0.000 A 
ATOM     26  C   UNL     1       2.244   4.354  19.175  0.00  0.00    +0.000 A 
ATOM     27  C   UNL     1       2.124   3.032  19.607  0.00  0.00    +0.000 A 
ATOM     28  C   UNL     1       2.681   2.014  18.852  0.00  0.00    +0.000 A 
ATOM     29  F   UNL     1       2.598   0.749  19.282  0.00  0.00    +0.000 F 
ATOM     30  C   UNL     1       3.313   2.287  17.649  0.00  0.00    +0.000 A 
ATOM     31  C   UNL     1       3.434   3.613  17.219  0.00  0.00    +0.000 A 
ENDBRANCH  17  25
ENDBRANCH   9  17
TORSDOF 4
ENDMDL
MODEL 4
REMARK VINA RESULT:      -9.5      0.280      1.276
REMARK  Name = 
REMARK  4 active torsions:
REMARK  status: ('A' for Active; 'I' for Inactive)
REMARK    1  A    between atoms: N_6  and  C_7
REMARK    2  A    between atoms: C_15  and  C_16
REMARK    3  A    between atoms: C_16  and  C_17
REMARK    4  A    between atoms: C_16  and  C_24
REMARK                            x       y       z     vdW  Elec       q    Type
REMARK                         _______ _______ _______ _____ _____    ______ ____
ROOT
ATOM      1  O   UNL     1       5.343   5.786  19.734  0.00  0.00    +0.000 OA
ATOM      2  C   UNL     1       5.640   5.719  18.542  0.00  0.00    +0.000 C 
ATOM      3  N   UNL     1       6.748   5.050  18.145  0.00  0.00    +0.000 N 
ATOM      4  C   UNL     1       7.032   4.641  16.875  0.00  0.00    +0.000 C 
ATOM      5  O   UNL     1       7.907   3.785  16.739  0.00  0.00    +0.000 OA
ATOM      6  N   UNL     1       6.328   5.258  15.853  0.00  0.00    +0.000 N 
ATOM      7  C   UNL     1       5.363   6.238  16.065  0.00  0.00    +0.000 C 
ATOM      8  O   UNL     1       4.893   6.949  15.172  0.00  0.00    +0.000 OA
ATOM      9  C   UNL     1       4.845   6.397  17.474  0.00  0.00    +0.000 C 
ATOM     10  H   UNL     1       7.276   4.585  18.874  0.00  0.00    +0.000 HD
ENDROOT
BRANCH   6  11
ATOM     11  C   UNL     1       6.691   4.937  14.503  0.00  0.00    +0.000 A 
ATOM     12  C   UNL     1       7.736   5.633  13.879  0.00  0.00    +0.000 A 
ATOM     13  C   UNL     1       8.118   5.313  12.574  0.00  0.00    +0.000 A 
ATOM     14  C   UNL     1       7.440   4.319  11.872  0.00  0.00    +0.000 A 
ATOM     15  C   UNL     1       6.388   3.632  12.476  0.00  0.00    +0.000 A 
ATOM     16  C   UNL     1       6.026   3.929  13.792  0.00  0.00    +0.000 A 
ENDBRANCH   6  11
BRANCH   9  17
ATOM     17  C   UNL     1       3.328   6.059  17.630  0.00  0.00    +0.000 C 
BRANCH  17  18
ATOM     18  C   UNL     1       2.527   7.169  18.342  0.00  0.00    +0.000 A 
ATOM     19  C   UNL     1       2.220   8.393  17.715  0.00  0.00    +0.000 A 
ATOM     20  C   UNL     1       1.664   9.450  18.440  0.00  0.00    +0.000 A 
ATOM     21  C   UNL     1       1.384   9.286  19.790  0.00  0.00    +0.000 A 
ATOM     22  F   UNL     1       0.901  10.317  20.496  0.00  0.00    +0.000 F 
ATOM     23  C   UNL     1       1.623   8.073  20.421  0.00  0.00    +0.000 A 
ATOM     24  C   UNL     1       2.188   7.016  19.701  0.00  0.00    +0.000 A 
ENDBRANCH  17  18
BRANCH  17  25
ATOM     25  C   UNL     1       3.064   4.634  18.166  0.00  0.00    +0.000 A 
ATOM     26  C   UNL     1       3.322   3.472  17.414  0.00  0.00    +0.000 A 
ATOM     27  C   UNL     1       2.959   2.209  17.883  0.00  0.00    +0.000 A 
ATOM     28  C   UNL     1       2.373   2.086  19.131  0.00  0.00    +0.000 A 
ATOM     29  F   UNL     1       1.993   0.879  19.569  0.00  0.00    +0.000 F 
ATOM     30  C   UNL     1       2.187   3.196  19.940  0.00  0.00    +0.000 A 
ATOM     31  C   UNL     1       2.549   4.462  19.467  0.00  0.00    +0.000 A 
ENDBRANCH  17  25
ENDBRANCH   9  17
TORSDOF 4
ENDMDL
MODEL 5
REMARK VINA RESULT:      -8.6      6.871      9.537
REMARK  Name = 
REMARK  4 active torsions:
REMARK  status: ('A' for Active; 'I' for Inactive)
REMARK    1  A    between atoms: N_6  and  C_7
REMARK    2  A    between atoms: C_15  and  C_16
REMARK    3  A    between atoms: C_16  and  C_17
REMARK    4  A    between atoms: C_16  and  C_24
REMARK                            x       y       z     vdW  Elec       q    Type
REMARK                         _______ _______ _______ _____ _____    ______ ____
ROOT
ATOM      1  O   UNL     1      -2.250  11.956  22.235  0.00  0.00    +0.000 OA
ATOM      2  C   UNL     1      -1.454  12.515  21.480  0.00  0.00    +0.000 C 
ATOM      3  N   UNL     1      -0.458  13.285  21.979  0.00  0.00    +0.000 N 
ATOM      4  C   UNL     1       0.650  13.705  21.305  0.00  0.00    +0.000 C 
ATOM      5  O   UNL     1       1.596  14.122  21.975  0.00  0.00    +0.000 OA
ATOM      6  N   UNL     1       0.592  13.654  19.921  0.00  0.00    +0.000 N 
ATOM      7  C   UNL     1      -0.515  13.193  19.214  0.00  0.00    +0.000 C 
ATOM      8  O   UNL     1      -0.672  13.348  17.999  0.00  0.00    +0.000 OA
ATOM      9  C   UNL     1      -1.555  12.425  19.992  0.00  0.00    +0.000 C 
ATOM     10  H   UNL     1      -0.391  13.333  22.988  0.00  0.00    +0.000 HD
ENDROOT
BRANCH   6  11
ATOM     11  C   UNL     1       1.692  14.203  19.184  0.00  0.00    +0.000 A 
ATOM     12  C   UNL     1       2.757  13.376  18.802  0.00  0.00    +0.000 A 
ATOM     13  C   UNL     1       3.823  13.891  18.061  0.00  0.00    +0.000 A 
ATOM     14  C   UNL     1       3.850  15.243  17.724  0.00  0.00    +0.000 A 
ATOM     15  C   UNL     1       2.805  16.079  18.112  0.00  0.00    +0.000 A 
ATOM     16  C   UNL     1       1.723  15.558  18.826  0.00  0.00    +0.000 A 
ENDBRANCH   6  11
BRANCH   9  17
ATOM     17  C   UNL     1      -1.703  10.935  19.547  0.00  0.00    +0.000 C 
BRANCH  17  18
ATOM     18  C   UNL     1      -0.397  10.125  19.688  0.00  0.00    +0.000 A 
ATOM     19  C   UNL     1       0.532  10.011  18.635  0.00  0.00    +0.000 A 
ATOM     20  C   UNL     1       1.606   9.121  18.719  0.00  0.00    +0.000 A 
ATOM     21  C   UNL     1       1.778   8.357  19.866  0.00  0.00    +0.000 A 
ATOM     22  F   UNL     1       2.776   7.466  19.925  0.00  0.00    +0.000 F 
ATOM     23  C   UNL     1       0.911   8.490  20.943  0.00  0.00    +0.000 A 
ATOM     24  C   UNL     1      -0.171   9.372  20.857  0.00  0.00    +0.000 A 
ENDBRANCH  17  18
BRANCH  17  25
ATOM     25  C   UNL     1      -2.420  10.763  18.190  0.00  0.00    +0.000 A 
ATOM     26  C   UNL     1      -1.953   9.901  17.180  0.00  0.00    +0.000 A 
ATOM     27  C   UNL     1      -2.558   9.861  15.922  0.00  0.00    +0.000 A 
ATOM     28  C   UNL     1      -3.666  10.652  15.672  0.00  0.00    +0.000 A 
ATOM     29  F   UNL     1      -4.227  10.642  14.457  0.00  0.00    +0.000 F 
ATOM     30  C   UNL     1      -4.211  11.445  16.670  0.00  0.00    +0.000 A 
ATOM     31  C   UNL     1      -3.603  11.485  17.929  0.00  0.00    +0.000 A 
ENDBRANCH  17  25
ENDBRANCH   9  17
TORSDOF 4
ENDMDL
MODEL 6
REMARK VINA RESULT:      -8.1      0.984      4.373
REMARK  Name = 
REMARK  4 active torsions:
REMARK  status: ('A' for Active; 'I' for Inactive)
REMARK    1  A    between atoms: N_6  and  C_7
REMARK    2  A    between atoms: C_15  and  C_16
REMARK    3  A    between atoms: C_16  and  C_17
REMARK    4  A    between atoms: C_16  and  C_24
REMARK                            x       y       z     vdW  Elec       q    Type
REMARK                         _______ _______ _______ _____ _____    ______ ____
ROOT
ATOM      1  O   UNL     1       6.699   6.132  20.063  0.00  0.00    +0.000 OA
ATOM      2  C   UNL     1       6.592   5.942  18.852  0.00  0.00    +0.000 C 
ATOM      3  N   UNL     1       7.547   5.263  18.175  0.00  0.00    +0.000 N 
ATOM      4  C   UNL     1       7.423   4.724  16.929  0.00  0.00    +0.000 C 
ATOM      5  O   UNL     1       8.256   3.882  16.590  0.00  0.00    +0.000 OA
ATOM      6  N   UNL     1       6.386   5.205  16.145  0.00  0.00    +0.000 N 
ATOM      7  C   UNL     1       5.486   6.177  16.572  0.00  0.00    +0.000 C 
ATOM      8  O   UNL     1       4.706   6.772  15.823  0.00  0.00    +0.000 OA
ATOM      9  C   UNL     1       5.450   6.477  18.051  0.00  0.00    +0.000 C 
ATOM     10  H   UNL     1       8.313   4.896  18.727  0.00  0.00    +0.000 HD
ENDROOT
BRANCH   6  11
ATOM     11  C   UNL     1       6.305   4.748  14.789  0.00  0.00    +0.000 A 
ATOM     12  C   UNL     1       7.296   5.116  13.868  0.00  0.00    +0.000 A 
ATOM     13  C   UNL     1       7.245   4.655  12.551  0.00  0.00    +0.000 A 
ATOM     14  C   UNL     1       6.186   3.851  12.133  0.00  0.00    +0.000 A 
ATOM     15  C   UNL     1       5.186   3.492  13.035  0.00  0.00    +0.000 A 
ATOM     16  C   UNL     1       5.253   3.926  14.360  0.00  0.00    +0.000 A 
ENDBRANCH   6  11
BRANCH   9  17
ATOM     17  C   UNL     1       4.092   6.118  18.734  0.00  0.00    +0.000 C 
BRANCH  17  18
ATOM     18  C   UNL     1       3.515   4.765  18.269  0.00  0.00    +0.000 A 
ATOM     19  C   UNL     1       2.241   4.656  17.677  0.00  0.00    +0.000 A 
ATOM     20  C   UNL     1       1.664   3.405  17.441  0.00  0.00    +0.000 A 
ATOM     21  C   UNL     1       2.365   2.252  17.769  0.00  0.00    +0.000 A 
ATOM     22  F   UNL     1       1.789   1.055  17.592  0.00  0.00    +0.000 F 
ATOM     23  C   UNL     1       3.645   2.327  18.301  0.00  0.00    +0.000 A 
ATOM     24  C   UNL     1       4.221   3.577  18.547  0.00  0.00    +0.000 A 
ENDBRANCH  17  18
BRANCH  17  25
ATOM     25  C   UNL     1       3.075   7.280  18.738  0.00  0.00    +0.000 A 
ATOM     26  C   UNL     1       2.955   8.198  17.677  0.00  0.00    +0.000 A 
ATOM     27  C   UNL     1       2.111   9.305  17.766  0.00  0.00    +0.000 A 
ATOM     28  C   UNL     1       1.341   9.487  18.902  0.00  0.00    +0.000 A 
ATOM     29  F   UNL     1       0.556  10.567  19.006  0.00  0.00    +0.000 F 
ATOM     30  C   UNL     1       1.362   8.557  19.930  0.00  0.00    +0.000 A 
ATOM     31  C   UNL     1       2.210   7.448  19.839  0.00  0.00    +0.000 A 
ENDBRANCH  17  25
ENDBRANCH   9  17
TORSDOF 4
ENDMDL
MODEL 7
REMARK VINA RESULT:      -8.1      5.853     10.173
REMARK  Name = 
REMARK  4 active torsions:
REMARK  status: ('A' for Active; 'I' for Inactive)
REMARK    1  A    between atoms: N_6  and  C_7
REMARK    2  A    between atoms: C_15  and  C_16
REMARK    3  A    between atoms: C_16  and  C_17
REMARK    4  A    between atoms: C_16  and  C_24
REMARK                            x       y       z     vdW  Elec       q    Type
REMARK                         _______ _______ _______ _____ _____    ______ ____
ROOT
ATOM      1  O   UNL     1       2.315  13.126  19.310  0.00  0.00    +0.000 OA
ATOM      2  C   UNL     1       1.304  12.992  19.999  0.00  0.00    +0.000 C 
ATOM      3  N   UNL     1       0.703  14.071  20.555  0.00  0.00    +0.000 N 
ATOM      4  C   UNL     1      -0.558  14.114  21.072  0.00  0.00    +0.000 C 
ATOM      5  O   UNL     1      -1.061  15.226  21.246  0.00  0.00    +0.000 OA
ATOM      6  N   UNL     1      -1.143  12.897  21.385  0.00  0.00    +0.000 N 
ATOM      7  C   UNL     1      -0.517  11.669  21.187  0.00  0.00    +0.000 C 
ATOM      8  O   UNL     1      -0.923  10.604  21.660  0.00  0.00    +0.000 OA
ATOM      9  C   UNL     1       0.706  11.657  20.304  0.00  0.00    +0.000 C 
ATOM     10  H   UNL     1       1.109  14.973  20.335  0.00  0.00    +0.000 HD
ENDROOT
BRANCH   6  11
ATOM     11  C   UNL     1      -2.416  12.917  22.043  0.00  0.00    +0.000 A 
ATOM     12  C   UNL     1      -2.479  13.030  23.439  0.00  0.00    +0.000 A 
ATOM     13  C   UNL     1      -3.713  13.078  24.090  0.00  0.00    +0.000 A 
ATOM     14  C   UNL     1      -4.894  12.980  23.357  0.00  0.00    +0.000 A 
ATOM     15  C   UNL     1      -4.845  12.851  21.970  0.00  0.00    +0.000 A 
ATOM     16  C   UNL     1      -3.611  12.835  21.315  0.00  0.00    +0.000 A 
ENDBRANCH   6  11
BRANCH   9  17
ATOM     17  C   UNL     1       0.529  10.829  18.991  0.00  0.00    +0.000 C 
BRANCH  17  18
ATOM     18  C   UNL     1      -0.925  10.807  18.477  0.00  0.00    +0.000 A 
ATOM     19  C   UNL     1      -1.684   9.621  18.421  0.00  0.00    +0.000 A 
ATOM     20  C   UNL     1      -2.923   9.593  17.776  0.00  0.00    +0.000 A 
ATOM     21  C   UNL     1      -3.430  10.754  17.206  0.00  0.00    +0.000 A 
ATOM     22  F   UNL     1      -4.592  10.713  16.543  0.00  0.00    +0.000 F 
ATOM     23  C   UNL     1      -2.731  11.950  17.296  0.00  0.00    +0.000 A 
ATOM     24  C   UNL     1      -1.486  11.980  17.932  0.00  0.00    +0.000 A 
ENDBRANCH  17  18
BRANCH  17  25
ATOM     25  C   UNL     1       1.213   9.445  19.036  0.00  0.00    +0.000 A 
ATOM     26  C   UNL     1       1.256   8.648  20.196  0.00  0.00    +0.000 A 
ATOM     27  C   UNL     1       1.986   7.459  20.234  0.00  0.00    +0.000 A 
ATOM     28  C   UNL     1       2.648   7.028  19.097  0.00  0.00    +0.000 A 
ATOM     29  F   UNL     1       3.376   5.906  19.139  0.00  0.00    +0.000 F 
ATOM     30  C   UNL     1       2.554   7.737  17.909  0.00  0.00    +0.000 A 
ATOM     31  C   UNL     1       1.823   8.930  17.875  0.00  0.00    +0.000 A 
ENDBRANCH  17  25
ENDBRANCH   9  17
TORSDOF 4
ENDMDL
MODEL 8
REMARK VINA RESULT:      -8.0      5.767     10.036
REMARK  Name = 
REMARK  4 active torsions:
REMARK  status: ('A' for Active; 'I' for Inactive)
REMARK    1  A    between atoms: N_6  and  C_7
REMARK    2  A    between atoms: C_15  and  C_16
REMARK    3  A    between atoms: C_16  and  C_17
REMARK    4  A    between atoms: C_16  and  C_24
REMARK                            x       y       z     vdW  Elec       q    Type
REMARK                         _______ _______ _______ _____ _____    ______ ____
ROOT
ATOM      1  O   UNL     1       2.518  13.061  19.465  0.00  0.00    +0.000 OA
ATOM      2  C   UNL     1       1.490  12.930  20.128  0.00  0.00    +0.000 C 
ATOM      3  N   UNL     1       0.910  14.003  20.717  0.00  0.00    +0.000 N 
ATOM      4  C   UNL     1      -0.359  14.064  21.211  0.00  0.00    +0.000 C 
ATOM      5  O   UNL     1      -0.832  15.182  21.422  0.00  0.00    +0.000 OA
ATOM      6  N   UNL     1      -0.986  12.853  21.463  0.00  0.00    +0.000 N 
ATOM      7  C   UNL     1      -0.394  11.616  21.227  0.00  0.00    +0.000 C 
ATOM      8  O   UNL     1      -0.840  10.546  21.647  0.00  0.00    +0.000 OA
ATOM      9  C   UNL     1       0.847  11.603  20.367  0.00  0.00    +0.000 C 
ATOM     10  H   UNL     1       1.347  14.900  20.543  0.00  0.00    +0.000 HD
ENDROOT
BRANCH   6  11
ATOM     11  C   UNL     1      -2.271  12.885  22.097  0.00  0.00    +0.000 A 
ATOM     12  C   UNL     1      -3.435  12.826  21.317  0.00  0.00    +0.000 A 
ATOM     13  C   UNL     1      -4.694  12.828  21.922  0.00  0.00    +0.000 A 
ATOM     14  C   UNL     1      -4.802  12.923  23.308  0.00  0.00    +0.000 A 
ATOM     15  C   UNL     1      -3.653  12.999  24.093  0.00  0.00    +0.000 A 
ATOM     16  C   UNL     1      -2.393  12.964  23.491  0.00  0.00    +0.000 A 
ENDBRANCH   6  11
BRANCH   9  17
ATOM     17  C   UNL     1       0.671  10.835  19.018  0.00  0.00    +0.000 C 
BRANCH  17  18
ATOM     18  C   UNL     1      -0.790  10.796  18.525  0.00  0.00    +0.000 A 
ATOM     19  C   UNL     1      -1.502   9.589  18.381  0.00  0.00    +0.000 A 
ATOM     20  C   UNL     1      -2.751   9.563  17.754  0.00  0.00    +0.000 A 
ATOM     21  C   UNL     1      -3.313  10.745  17.291  0.00  0.00    +0.000 A 
ATOM     22  F   UNL     1      -4.485  10.712  16.644  0.00  0.00    +0.000 F 
ATOM     23  C   UNL     1      -2.660  11.958  17.470  0.00  0.00    +0.000 A 
ATOM     24  C   UNL     1      -1.406  11.986  18.088  0.00  0.00    +0.000 A 
ENDBRANCH  17  18
BRANCH  17  25
ATOM     25  C   UNL     1       1.395   9.471  18.984  0.00  0.00    +0.000 A 
ATOM     26  C   UNL     1       2.059   8.983  17.843  0.00  0.00    +0.000 A 
ATOM     27  C   UNL     1       2.598   7.696  17.811  0.00  0.00    +0.000 A 
ATOM     28  C   UNL     1       2.518   6.894  18.936  0.00  0.00    +0.000 A 
ATOM     29  F   UNL     1       3.003   5.646  18.897  0.00  0.00    +0.000 F 
ATOM     30  C   UNL     1       1.953   7.371  20.109  0.00  0.00    +0.000 A 
ATOM     31  C   UNL     1       1.412   8.661  20.138  0.00  0.00    +0.000 A 
ENDBRANCH  17  25
ENDBRANCH   9  17
TORSDOF 4
ENDMDL
MODEL 9
REMARK VINA RESULT:      -8.0      6.106     11.084
REMARK  Name = 
REMARK  4 active torsions:
REMARK  status: ('A' for Active; 'I' for Inactive)
REMARK    1  A    between atoms: N_6  and  C_7
REMARK    2  A    between atoms: C_15  and  C_16
REMARK    3  A    between atoms: C_16  and  C_17
REMARK    4  A    between atoms: C_16  and  C_24
REMARK                            x       y       z     vdW  Elec       q    Type
REMARK                         _______ _______ _______ _____ _____    ______ ____
ROOT
ATOM      1  O   UNL     1       0.908  12.613  18.236  0.00  0.00    +0.000 OA
ATOM      2  C   UNL     1       0.410  12.846  19.337  0.00  0.00    +0.000 C 
ATOM      3  N   UNL     1      -0.085  14.074  19.622  0.00  0.00    +0.000 N 
ATOM      4  C   UNL     1      -0.918  14.388  20.654  0.00  0.00    +0.000 C 
ATOM      5  O   UNL     1      -1.519  15.461  20.591  0.00  0.00    +0.000 OA
ATOM      6  N   UNL     1      -0.981  13.478  21.699  0.00  0.00    +0.000 N 
ATOM      7  C   UNL     1      -0.260  12.288  21.728  0.00  0.00    +0.000 C 
ATOM      8  O   UNL     1      -0.132  11.584  22.733  0.00  0.00    +0.000 OA
ATOM      9  C   UNL     1       0.359  11.829  20.430  0.00  0.00    +0.000 C 
ATOM     10  H   UNL     1      -0.054  14.754  18.872  0.00  0.00    +0.000 HD
ENDROOT
BRANCH   6  11
ATOM     11  C   UNL     1      -1.752  13.838  22.853  0.00  0.00    +0.000 A 
ATOM     12  C   UNL     1      -1.190  14.660  23.839  0.00  0.00    +0.000 A 
ATOM     13  C   UNL     1      -1.938  15.041  24.955  0.00  0.00    +0.000 A 
ATOM     14  C   UNL     1      -3.243  14.578  25.111  0.00  0.00    +0.000 A 
ATOM     15  C   UNL     1      -3.809  13.747  24.145  0.00  0.00    +0.000 A 
ATOM     16  C   UNL     1      -3.072  13.392  23.013  0.00  0.00    +0.000 A 
ENDBRANCH   6  11
BRANCH   9  17
ATOM     17  C   UNL     1      -0.225  10.484  19.894  0.00  0.00    +0.000 C 
BRANCH  17  18
ATOM     18  C   UNL     1       0.862   9.466  19.490  0.00  0.00    +0.000 A 
ATOM     19  C   UNL     1       1.432   9.448  18.201  0.00  0.00    +0.000 A 
ATOM     20  C   UNL     1       2.269   8.403  17.802  0.00  0.00    +0.000 A 
ATOM     21  C   UNL     1       2.567   7.381  18.695  0.00  0.00    +0.000 A 
ATOM     22  F   UNL     1       3.326   6.353  18.294  0.00  0.00    +0.000 F 
ATOM     23  C   UNL     1       2.066   7.402  19.989  0.00  0.00    +0.000 A 
ATOM     24  C   UNL     1       1.220   8.441  20.388  0.00  0.00    +0.000 A 
ENDBRANCH  17  18
BRANCH  17  25
ATOM     25  C   UNL     1      -1.347  10.670  18.849  0.00  0.00    +0.000 A 
ATOM     26  C   UNL     1      -2.469  11.493  19.066  0.00  0.00    +0.000 A 
ATOM     27  C   UNL     1      -3.521  11.543  18.151  0.00  0.00    +0.000 A 
ATOM     28  C   UNL     1      -3.446  10.804  16.983  0.00  0.00    +0.000 A 
ATOM     29  F   UNL     1      -4.469  10.824  16.119  0.00  0.00    +0.000 F 
ATOM     30  C   UNL     1      -2.318  10.054  16.690  0.00  0.00    +0.000 A 
ATOM     31  C   UNL     1      -1.265  10.004  17.609  0.00  0.00    +0.000 A 
ENDBRANCH  17  25
ENDBRANCH   9  17
TORSDOF 4
ENDMDL
