MODEL 1
REMARK VINA RESULT:      -7.6      0.000      0.000
REMARK  Name = 
REMARK  9 active torsions:
REMARK  status: ('A' for Active; 'I' for Inactive)
REMARK    1  A    between atoms: C_1  and  C_2
REMARK    2  A    between atoms: C_2  and  C_3
REMARK    3  A    between atoms: C_3  and  N_4
REMARK    4  A    between atoms: C_5  and  C_7
REMARK    5  A    between atoms: C_7  and  C_8
REMARK    6  A    between atoms: C_8  and  C_9
REMARK    7  A    between atoms: C_11  and  C_12
REMARK    8  A    between atoms: C_17  and  O_18
REMARK    9  A    between atoms: O_18  and  C_19
REMARK                            x       y       z     vdW  Elec       q    Type
REMARK                         _______ _______ _______ _____ _____    ______ ____
ROOT
ATOM      1  C   UNL     1       2.257   5.908  18.117  0.00  0.00    +0.000 C 
ENDROOT
BRANCH   1   2
ATOM      2  C   UNL     1       3.214   4.653  18.139  0.00  0.00    +0.000 C 
ATOM      3  C   UNL     1       3.543   4.267  19.624  0.00  0.00    +0.000 C 
ATOM      4  C   UNL     1       2.440   3.513  20.354  0.00  0.00    +0.000 C 
ATOM      5  O   UNL     1       2.009   2.385  19.601  0.00  0.00    +0.000 OA
ATOM      6  C   UNL     1       1.504   2.757  18.325  0.00  0.00    +0.000 C 
ATOM      7  C   UNL     1       2.601   3.395  17.476  0.00  0.00    +0.000 C 
BRANCH   2   9
ATOM      8  N   UNL     1       5.695   4.632  18.236  0.00  0.00    +0.000 N 
ATOM      9  C   UNL     1       4.593   4.962  17.493  0.00  0.00    +0.000 C 
ATOM     10  O   UNL     1       4.701   5.499  16.391  0.00  0.00    +0.000 OA
ATOM     11  H   UNL     1       5.600   3.933  18.962  0.00  0.00    +0.000 HD
BRANCH   8  12
ATOM     12  C   UNL     1       7.045   4.892  17.781  0.00  0.00    +0.000 C 
BRANCH  12  14
ATOM     13  C   UNL     1       7.605   7.358  17.626  0.00  0.00    +0.000 C 
ATOM     14  C   UNL     1       7.644   6.104  18.490  0.00  0.00    +0.000 C 
ENDBRANCH  12  14
ENDBRANCH   8  12
ENDBRANCH   2   9
ENDBRANCH   1   2
BRANCH   1  15
ATOM     15  C   UNL     1       2.772   7.288  18.609  0.00  0.00    +0.000 C 
ATOM     16  C   UNL     1       2.180   8.489  17.886  0.00  0.00    +0.000 C 
ATOM     17  C   UNL     1       1.230   9.010  18.926  0.00  0.00    +0.000 C 
ATOM     18  N   UNL     1       1.429   8.487  20.089  0.00  0.00    +0.000 NA
ATOM     19  O   UNL     1       2.466   7.530  19.984  0.00  0.00    +0.000 OA
BRANCH  17  20
ATOM     20  C   UNL     1       0.229  10.084  18.621  0.00  0.00    +0.000 A 
ATOM     21  C   UNL     1      -0.861   9.698  17.801  0.00  0.00    +0.000 A 
ATOM     22  C   UNL     1      -1.837  10.613  17.385  0.00  0.00    +0.000 A 
ATOM     23  C   UNL     1      -1.760  11.936  17.789  0.00  0.00    +0.000 A 
ATOM     24  C   UNL     1      -0.687  12.346  18.584  0.00  0.00    +0.000 A 
ATOM     25  C   UNL     1       0.317  11.439  18.995  0.00  0.00    +0.000 A 
BRANCH  25  26
ATOM     26  O   UNL     1       1.381  12.078  19.578  0.00  0.00    +0.000 OA
ATOM     27  C   UNL     1       1.110  12.974  20.648  0.00  0.00    +0.000 C 
ENDBRANCH  25  26
ENDBRANCH  17  20
ENDBRANCH   1  15
TORSDOF 7
ENDMDL
MODEL 2
REMARK VINA RESULT:      -7.5      2.015      4.310
REMARK  Name = 
REMARK  9 active torsions:
REMARK  status: ('A' for Active; 'I' for Inactive)
REMARK    1  A    between atoms: C_1  and  C_2
REMARK    2  A    between atoms: C_2  and  C_3
REMARK    3  A    between atoms: C_3  and  N_4
REMARK    4  A    between atoms: C_5  and  C_7
REMARK    5  A    between atoms: C_7  and  C_8
REMARK    6  A    between atoms: C_8  and  C_9
REMARK    7  A    between atoms: C_11  and  C_12
REMARK    8  A    between atoms: C_17  and  O_18
REMARK    9  A    between atoms: O_18  and  C_19
REMARK                            x       y       z     vdW  Elec       q    Type
REMARK                         _______ _______ _______ _____ _____    ______ ____
ROOT
ATOM      1  C   UNL     1       4.429   6.211  18.578  0.00  0.00    +0.000 C 
ENDROOT
BRANCH   1   2
ATOM      2  C   UNL     1       5.119   4.877  18.092  0.00  0.00    +0.000 C 
ATOM      3  C   UNL     1       4.910   4.709  16.545  0.00  0.00    +0.000 C 
ATOM      4  C   UNL     1       5.818   5.567  15.674  0.00  0.00    +0.000 C 
ATOM      5  O   UNL     1       7.182   5.399  16.042  0.00  0.00    +0.000 OA
ATOM      6  C   UNL     1       7.419   5.761  17.396  0.00  0.00    +0.000 C 
ATOM      7  C   UNL     1       6.647   4.844  18.341  0.00  0.00    +0.000 C 
BRANCH   2   9
ATOM      8  N   UNL     1       3.342   3.143  18.091  0.00  0.00    +0.000 N 
ATOM      9  C   UNL     1       4.460   3.618  18.721  0.00  0.00    +0.000 C 
ATOM     10  O   UNL     1       4.893   3.088  19.743  0.00  0.00    +0.000 OA
ATOM     11  H   UNL     1       3.193   3.382  17.118  0.00  0.00    +0.000 HD
BRANCH   8  12
ATOM     12  C   UNL     1       2.601   1.999  18.581  0.00  0.00    +0.000 C 
BRANCH  12  14
ATOM     13  C   UNL     1       1.025   3.188  20.168  0.00  0.00    +0.000 C 
ATOM     14  C   UNL     1       1.153   2.370  18.890  0.00  0.00    +0.000 C 
ENDBRANCH  12  14
ENDBRANCH   8  12
ENDBRANCH   2   9
ENDBRANCH   1   2
BRANCH   1  15
ATOM     15  C   UNL     1       3.000   6.572  18.085  0.00  0.00    +0.000 C 
ATOM     16  C   UNL     1       1.980   6.800  19.190  0.00  0.00    +0.000 C 
ATOM     17  C   UNL     1       1.850   8.295  19.157  0.00  0.00    +0.000 C 
ATOM     18  N   UNL     1       2.379   8.817  18.102  0.00  0.00    +0.000 NA
ATOM     19  O   UNL     1       2.970   7.787  17.334  0.00  0.00    +0.000 OA
BRANCH  17  20
ATOM     20  C   UNL     1       1.104   9.052  20.216  0.00  0.00    +0.000 A 
ATOM     21  C   UNL     1       1.326   8.627  21.550  0.00  0.00    +0.000 A 
ATOM     22  C   UNL     1       0.648   9.202  22.633  0.00  0.00    +0.000 A 
ATOM     23  C   UNL     1      -0.258  10.228  22.416  0.00  0.00    +0.000 A 
ATOM     24  C   UNL     1      -0.506  10.654  21.109  0.00  0.00    +0.000 A 
ATOM     25  C   UNL     1       0.155  10.070  20.003  0.00  0.00    +0.000 A 
BRANCH  25  26
ATOM     26  O   UNL     1      -0.383  10.475  18.809  0.00  0.00    +0.000 OA
ATOM     27  C   UNL     1      -0.650  11.861  18.638  0.00  0.00    +0.000 C 
ENDBRANCH  25  26
ENDBRANCH  17  20
ENDBRANCH   1  15
TORSDOF 7
ENDMDL
MODEL 3
REMARK VINA RESULT:      -7.5      1.029      1.066
REMARK  Name = 
REMARK  9 active torsions:
REMARK  status: ('A' for Active; 'I' for Inactive)
REMARK    1  A    between atoms: C_1  and  C_2
REMARK    2  A    between atoms: C_2  and  C_3
REMARK    3  A    between atoms: C_3  and  N_4
REMARK    4  A    between atoms: C_5  and  C_7
REMARK    5  A    between atoms: C_7  and  C_8
REMARK    6  A    between atoms: C_8  and  C_9
REMARK    7  A    between atoms: C_11  and  C_12
REMARK    8  A    between atoms: C_17  and  O_18
REMARK    9  A    between atoms: O_18  and  C_19
REMARK                            x       y       z     vdW  Elec       q    Type
REMARK                         _______ _______ _______ _____ _____    ______ ____
ROOT
ATOM      1  C   UNL     1       2.173   5.972  18.245  0.00  0.00    +0.000 C 
ENDROOT
BRANCH   1   2
ATOM      2  C   UNL     1       2.929   4.703  18.801  0.00  0.00    +0.000 C 
ATOM      3  C   UNL     1       2.581   4.505  20.318  0.00  0.00    +0.000 C 
ATOM      4  C   UNL     1       1.218   3.886  20.593  0.00  0.00    +0.000 C 
ATOM      5  O   UNL     1       1.046   2.683  19.853  0.00  0.00    +0.000 OA
ATOM      6  C   UNL     1       1.145   2.900  18.452  0.00  0.00    +0.000 C 
ATOM      7  C   UNL     1       2.543   3.388  18.080  0.00  0.00    +0.000 C 
BRANCH   2   9
ATOM      8  N   UNL     1       5.089   4.575  17.583  0.00  0.00    +0.000 N 
ATOM      9  C   UNL     1       4.472   4.883  18.766  0.00  0.00    +0.000 C 
ATOM     10  O   UNL     1       5.116   5.253  19.746  0.00  0.00    +0.000 OA
ATOM     11  H   UNL     1       4.540   4.581  16.732  0.00  0.00    +0.000 HD
BRANCH   8  12
ATOM     12  C   UNL     1       6.525   4.660  17.410  0.00  0.00    +0.000 C 
BRANCH  12  14
ATOM     13  C   UNL     1       7.534   6.966  17.693  0.00  0.00    +0.000 C 
ATOM     14  C   UNL     1       6.922   5.964  16.723  0.00  0.00    +0.000 C 
ENDBRANCH  12  14
ENDBRANCH   8  12
ENDBRANCH   2   9
ENDBRANCH   1   2
BRANCH   1  15
ATOM     15  C   UNL     1       2.671   7.397  18.614  0.00  0.00    +0.000 C 
ATOM     16  C   UNL     1       2.021   8.526  17.827  0.00  0.00    +0.000 C 
ATOM     17  C   UNL     1       1.098   9.102  18.861  0.00  0.00    +0.000 C 
ATOM     18  N   UNL     1       1.353   8.672  20.050  0.00  0.00    +0.000 NA
ATOM     19  O   UNL     1       2.409   7.734  19.977  0.00  0.00    +0.000 OA
BRANCH  17  20
ATOM     20  C   UNL     1       0.058  10.127  18.516  0.00  0.00    +0.000 A 
ATOM     21  C   UNL     1      -1.011   9.673  17.704  0.00  0.00    +0.000 A 
ATOM     22  C   UNL     1      -2.018  10.537  17.253  0.00  0.00    +0.000 A 
ATOM     23  C   UNL     1      -1.993  11.874  17.614  0.00  0.00    +0.000 A 
ATOM     24  C   UNL     1      -0.942  12.351  18.400  0.00  0.00    +0.000 A 
ATOM     25  C   UNL     1       0.094  11.496  18.846  0.00  0.00    +0.000 A 
BRANCH  25  26
ATOM     26  O   UNL     1       1.129  12.193  19.413  0.00  0.00    +0.000 OA
ATOM     27  C   UNL     1       2.054  12.831  18.542  0.00  0.00    +0.000 C 
ENDBRANCH  25  26
ENDBRANCH  17  20
ENDBRANCH   1  15
TORSDOF 7
ENDMDL
MODEL 4
REMARK VINA RESULT:      -7.4      1.971      4.221
REMARK  Name = 
REMARK  9 active torsions:
REMARK  status: ('A' for Active; 'I' for Inactive)
REMARK    1  A    between atoms: C_1  and  C_2
REMARK    2  A    between atoms: C_2  and  C_3
REMARK    3  A    between atoms: C_3  and  N_4
REMARK    4  A    between atoms: C_5  and  C_7
REMARK    5  A    between atoms: C_7  and  C_8
REMARK    6  A    between atoms: C_8  and  C_9
REMARK    7  A    between atoms: C_11  and  C_12
REMARK    8  A    between atoms: C_17  and  O_18
REMARK    9  A    between atoms: O_18  and  C_19
REMARK                            x       y       z     vdW  Elec       q    Type
REMARK                         _______ _______ _______ _____ _____    ______ ____
ROOT
ATOM      1  C   UNL     1       4.412   6.441  18.157  0.00  0.00    +0.000 C 
ENDROOT
BRANCH   1   2
ATOM      2  C   UNL     1       4.967   4.991  17.875  0.00  0.00    +0.000 C 
ATOM      3  C   UNL     1       5.052   4.751  16.327  0.00  0.00    +0.000 C 
ATOM      4  C   UNL     1       6.241   5.405  15.636  0.00  0.00    +0.000 C 
ATOM      5  O   UNL     1       7.459   5.064  16.288  0.00  0.00    +0.000 OA
ATOM      6  C   UNL     1       7.471   5.478  17.648  0.00  0.00    +0.000 C 
ATOM      7  C   UNL     1       6.389   4.751  18.442  0.00  0.00    +0.000 C 
BRANCH   2   9
ATOM      8  N   UNL     1       4.045   3.640  19.743  0.00  0.00    +0.000 N 
ATOM      9  C   UNL     1       4.005   3.888  18.397  0.00  0.00    +0.000 C 
ATOM     10  O   UNL     1       3.267   3.248  17.650  0.00  0.00    +0.000 OA
ATOM     11  H   UNL     1       4.403   4.358  20.360  0.00  0.00    +0.000 HD
BRANCH   8  12
ATOM     12  C   UNL     1       3.232   2.618  20.369  0.00  0.00    +0.000 C 
BRANCH  12  14
ATOM     13  C   UNL     1       0.988   3.788  20.489  0.00  0.00    +0.000 C 
ATOM     14  C   UNL     1       2.169   3.235  21.275  0.00  0.00    +0.000 C 
ENDBRANCH  12  14
ENDBRANCH   8  12
ENDBRANCH   2   9
ENDBRANCH   1   2
BRANCH   1  15
ATOM     15  C   UNL     1       2.969   6.820  17.724  0.00  0.00    +0.000 C 
ATOM     16  C   UNL     1       1.977   6.977  18.866  0.00  0.00    +0.000 C 
ATOM     17  C   UNL     1       1.839   8.470  18.923  0.00  0.00    +0.000 C 
ATOM     18  N   UNL     1       2.336   9.056  17.886  0.00  0.00    +0.000 NA
ATOM     19  O   UNL     1       2.912   8.076  17.045  0.00  0.00    +0.000 OA
BRANCH  17  20
ATOM     20  C   UNL     1       1.117   9.160  20.043  0.00  0.00    +0.000 A 
ATOM     21  C   UNL     1       1.325   8.619  21.336  0.00  0.00    +0.000 A 
ATOM     22  C   UNL     1       0.666   9.124  22.465  0.00  0.00    +0.000 A 
ATOM     23  C   UNL     1      -0.207  10.192  22.336  0.00  0.00    +0.000 A 
ATOM     24  C   UNL     1      -0.442  10.732  21.070  0.00  0.00    +0.000 A 
ATOM     25  C   UNL     1       0.200  10.221  19.917  0.00  0.00    +0.000 A 
BRANCH  25  26
ATOM     26  O   UNL     1      -0.326  10.740  18.762  0.00  0.00    +0.000 OA
ATOM     27  C   UNL     1      -1.629  10.319  18.380  0.00  0.00    +0.000 C 
ENDBRANCH  25  26
ENDBRANCH  17  20
ENDBRANCH   1  15
TORSDOF 7
ENDMDL
MODEL 5
REMARK VINA RESULT:      -7.2      1.271      2.008
REMARK  Name = 
REMARK  9 active torsions:
REMARK  status: ('A' for Active; 'I' for Inactive)
REMARK    1  A    between atoms: C_1  and  C_2
REMARK    2  A    between atoms: C_2  and  C_3
REMARK    3  A    between atoms: C_3  and  N_4
REMARK    4  A    between atoms: C_5  and  C_7
REMARK    5  A    between atoms: C_7  and  C_8
REMARK    6  A    between atoms: C_8  and  C_9
REMARK    7  A    between atoms: C_11  and  C_12
REMARK    8  A    between atoms: C_17  and  O_18
REMARK    9  A    between atoms: O_18  and  C_19
REMARK                            x       y       z     vdW  Elec       q    Type
REMARK                         _______ _______ _______ _____ _____    ______ ____
ROOT
ATOM      1  C   UNL     1       2.022   6.448  18.141  0.00  0.00    +0.000 C 
ENDROOT
BRANCH   1   2
ATOM      2  C   UNL     1       2.960   5.178  18.114  0.00  0.00    +0.000 C 
ATOM      3  C   UNL     1       3.445   4.851  19.571  0.00  0.00    +0.000 C 
ATOM      4  C   UNL     1       2.420   4.150  20.451  0.00  0.00    +0.000 C 
ATOM      5  O   UNL     1       1.894   2.998  19.801  0.00  0.00    +0.000 OA
ATOM      6  C   UNL     1       1.255   3.323  18.573  0.00  0.00    +0.000 C 
ATOM      7  C   UNL     1       2.261   3.903  17.581  0.00  0.00    +0.000 C 
BRANCH   2   9
ATOM      8  N   UNL     1       5.242   4.483  17.426  0.00  0.00    +0.000 N 
ATOM      9  C   UNL     1       4.263   5.433  17.308  0.00  0.00    +0.000 C 
ATOM     10  O   UNL     1       4.429   6.441  16.623  0.00  0.00    +0.000 OA
ATOM     11  H   UNL     1       4.981   3.550  17.720  0.00  0.00    +0.000 HD
BRANCH   8  12
ATOM     12  C   UNL     1       6.524   4.601  16.762  0.00  0.00    +0.000 C 
BRANCH  12  14
ATOM     13  C   UNL     1       7.656   5.939  18.591  0.00  0.00    +0.000 C 
ATOM     14  C   UNL     1       7.666   4.655  17.772  0.00  0.00    +0.000 C 
ENDBRANCH  12  14
ENDBRANCH   8  12
ENDBRANCH   2   9
ENDBRANCH   1   2
BRANCH   1  15
ATOM     15  C   UNL     1       2.468   7.728  18.900  0.00  0.00    +0.000 C 
ATOM     16  C   UNL     1       1.831   9.019  18.409  0.00  0.00    +0.000 C 
ATOM     17  C   UNL     1       0.845   9.288  19.509  0.00  0.00    +0.000 C 
ATOM     18  N   UNL     1       1.053   8.560  20.553  0.00  0.00    +0.000 NA
ATOM     19  O   UNL     1       2.134   7.686  20.289  0.00  0.00    +0.000 OA
BRANCH  17  20
ATOM     20  C   UNL     1      -0.200  10.358  19.395  0.00  0.00    +0.000 A 
ATOM     21  C   UNL     1      -0.357  11.192  20.530  0.00  0.00    +0.000 A 
ATOM     22  C   UNL     1      -1.338  12.191  20.586  0.00  0.00    +0.000 A 
ATOM     23  C   UNL     1      -2.179  12.395  19.504  0.00  0.00    +0.000 A 
ATOM     24  C   UNL     1      -2.055  11.577  18.379  0.00  0.00    +0.000 A 
ATOM     25  C   UNL     1      -1.084  10.550  18.315  0.00  0.00    +0.000 A 
BRANCH  25  26
ATOM     26  O   UNL     1      -1.269   9.733  17.230  0.00  0.00    +0.000 OA
ATOM     27  C   UNL     1      -2.486   9.858  16.506  0.00  0.00    +0.000 C 
ENDBRANCH  25  26
ENDBRANCH  17  20
ENDBRANCH   1  15
TORSDOF 7
ENDMDL
MODEL 6
REMARK VINA RESULT:      -7.2      1.830      2.086
REMARK  Name = 
REMARK  9 active torsions:
REMARK  status: ('A' for Active; 'I' for Inactive)
REMARK    1  A    between atoms: C_1  and  C_2
REMARK    2  A    between atoms: C_2  and  C_3
REMARK    3  A    between atoms: C_3  and  N_4
REMARK    4  A    between atoms: C_5  and  C_7
REMARK    5  A    between atoms: C_7  and  C_8
REMARK    6  A    between atoms: C_8  and  C_9
REMARK    7  A    between atoms: C_11  and  C_12
REMARK    8  A    between atoms: C_17  and  O_18
REMARK    9  A    between atoms: O_18  and  C_19
REMARK                            x       y       z     vdW  Elec       q    Type
REMARK                         _______ _______ _______ _____ _____    ______ ____
ROOT
ATOM      1  C   UNL     1       2.047   5.818  18.275  0.00  0.00    +0.000 C 
ENDROOT
BRANCH   1   2
ATOM      2  C   UNL     1       2.801   4.445  18.473  0.00  0.00    +0.000 C 
ATOM      3  C   UNL     1       2.994   4.166  20.005  0.00  0.00    +0.000 C 
ATOM      4  C   UNL     1       1.756   3.659  20.730  0.00  0.00    +0.000 C 
ATOM      5  O   UNL     1       1.197   2.536  20.058  0.00  0.00    +0.000 OA
ATOM      6  C   UNL     1       0.816   2.847  18.724  0.00  0.00    +0.000 C 
ATOM      7  C   UNL     1       2.038   3.230  17.891  0.00  0.00    +0.000 C 
BRANCH   2   9
ATOM      8  N   UNL     1       4.389   4.005  16.616  0.00  0.00    +0.000 N 
ATOM      9  C   UNL     1       4.241   4.483  17.890  0.00  0.00    +0.000 C 
ATOM     10  O   UNL     1       5.205   4.891  18.537  0.00  0.00    +0.000 OA
ATOM     11  H   UNL     1       3.579   3.975  16.010  0.00  0.00    +0.000 HD
BRANCH   8  12
ATOM     12  C   UNL     1       5.676   3.944  15.953  0.00  0.00    +0.000 C 
BRANCH  12  14
ATOM     13  C   UNL     1       6.218   3.832  13.481  0.00  0.00    +0.000 C 
ATOM     14  C   UNL     1       5.642   4.673  14.612  0.00  0.00    +0.000 C 
ENDBRANCH  12  14
ENDBRANCH   8  12
ENDBRANCH   2   9
ENDBRANCH   1   2
BRANCH   1  15
ATOM     15  C   UNL     1       2.647   7.127  18.859  0.00  0.00    +0.000 C 
ATOM     16  C   UNL     1       1.968   8.406  18.395  0.00  0.00    +0.000 C 
ATOM     17  C   UNL     1       1.191   8.780  19.624  0.00  0.00    +0.000 C 
ATOM     18  N   UNL     1       1.556   8.112  20.665  0.00  0.00    +0.000 NA
ATOM     19  O   UNL     1       2.553   7.185  20.283  0.00  0.00    +0.000 OA
BRANCH  17  20
ATOM     20  C   UNL     1       0.168   9.878  19.614  0.00  0.00    +0.000 A 
ATOM     21  C   UNL     1      -0.379  10.200  18.347  0.00  0.00    +0.000 A 
ATOM     22  C   UNL     1      -1.297  11.246  18.180  0.00  0.00    +0.000 A 
ATOM     23  C   UNL     1      -1.706  11.988  19.277  0.00  0.00    +0.000 A 
ATOM     24  C   UNL     1      -1.169  11.701  20.534  0.00  0.00    +0.000 A 
ATOM     25  C   UNL     1      -0.226  10.662  20.715  0.00  0.00    +0.000 A 
BRANCH  25  26
ATOM     26  O   UNL     1       0.332  10.685  21.968  0.00  0.00    +0.000 OA
ATOM     27  C   UNL     1      -0.398  10.087  23.030  0.00  0.00    +0.000 C 
ENDBRANCH  25  26
ENDBRANCH  17  20
ENDBRANCH   1  15
TORSDOF 7
ENDMDL
MODEL 7
REMARK VINA RESULT:      -7.2      1.359      1.666
REMARK  Name = 
REMARK  9 active torsions:
REMARK  status: ('A' for Active; 'I' for Inactive)
REMARK    1  A    between atoms: C_1  and  C_2
REMARK    2  A    between atoms: C_2  and  C_3
REMARK    3  A    between atoms: C_3  and  N_4
REMARK    4  A    between atoms: C_5  and  C_7
REMARK    5  A    between atoms: C_7  and  C_8
REMARK    6  A    between atoms: C_8  and  C_9
REMARK    7  A    between atoms: C_11  and  C_12
REMARK    8  A    between atoms: C_17  and  O_18
REMARK    9  A    between atoms: O_18  and  C_19
REMARK                            x       y       z     vdW  Elec       q    Type
REMARK                         _______ _______ _______ _____ _____    ______ ____
ROOT
ATOM      1  C   UNL     1       2.159   5.887  18.201  0.00  0.00    +0.000 C 
ENDROOT
BRANCH   1   2
ATOM      2  C   UNL     1       3.019   4.602  18.519  0.00  0.00    +0.000 C 
ATOM      3  C   UNL     1       3.179   4.445  20.072  0.00  0.00    +0.000 C 
ATOM      4  C   UNL     1       1.962   3.882  20.793  0.00  0.00    +0.000 C 
ATOM      5  O   UNL     1       1.525   2.672  20.186  0.00  0.00    +0.000 OA
ATOM      6  C   UNL     1       1.168   2.858  18.822  0.00  0.00    +0.000 C 
ATOM      7  C   UNL     1       2.382   3.288  18.002  0.00  0.00    +0.000 C 
BRANCH   2   9
ATOM      8  N   UNL     1       4.596   5.024  16.649  0.00  0.00    +0.000 N 
ATOM      9  C   UNL     1       4.471   4.725  17.979  0.00  0.00    +0.000 C 
ATOM     10  O   UNL     1       5.457   4.540  18.689  0.00  0.00    +0.000 OA
ATOM     11  H   UNL     1       3.821   5.469  16.174  0.00  0.00    +0.000 HD
BRANCH   8  12
ATOM     12  C   UNL     1       5.885   5.137  15.996  0.00  0.00    +0.000 C 
BRANCH  12  14
ATOM     13  C   UNL     1       5.952   3.883  13.795  0.00  0.00    +0.000 C 
ATOM     14  C   UNL     1       6.260   3.839  15.286  0.00  0.00    +0.000 C 
ENDBRANCH  12  14
ENDBRANCH   8  12
ENDBRANCH   2   9
ENDBRANCH   1   2
BRANCH   1  15
ATOM     15  C   UNL     1       2.654   7.287  18.659  0.00  0.00    +0.000 C 
ATOM     16  C   UNL     1       2.048   8.459  17.902  0.00  0.00    +0.000 C 
ATOM     17  C   UNL     1       1.087   8.995  18.924  0.00  0.00    +0.000 C 
ATOM     18  N   UNL     1       1.288   8.505  20.100  0.00  0.00    +0.000 NA
ATOM     19  O   UNL     1       2.338   7.560  20.025  0.00  0.00    +0.000 OA
BRANCH  17  20
ATOM     20  C   UNL     1       0.073  10.047  18.586  0.00  0.00    +0.000 A 
ATOM     21  C   UNL     1      -1.076   9.596  17.890  0.00  0.00    +0.000 A 
ATOM     22  C   UNL     1      -2.074  10.479  17.456  0.00  0.00    +0.000 A 
ATOM     23  C   UNL     1      -1.959  11.835  17.720  0.00  0.00    +0.000 A 
ATOM     24  C   UNL     1      -0.829  12.307  18.391  0.00  0.00    +0.000 A 
ATOM     25  C   UNL     1       0.197  11.431  18.817  0.00  0.00    +0.000 A 
BRANCH  25  26
ATOM     26  O   UNL     1       1.304  12.110  19.256  0.00  0.00    +0.000 OA
ATOM     27  C   UNL     1       2.165  12.676  18.276  0.00  0.00    +0.000 C 
ENDBRANCH  25  26
ENDBRANCH  17  20
ENDBRANCH   1  15
TORSDOF 7
ENDMDL
MODEL 8
REMARK VINA RESULT:      -7.2      3.565      6.192
REMARK  Name = 
REMARK  9 active torsions:
REMARK  status: ('A' for Active; 'I' for Inactive)
REMARK    1  A    between atoms: C_1  and  C_2
REMARK    2  A    between atoms: C_2  and  C_3
REMARK    3  A    between atoms: C_3  and  N_4
REMARK    4  A    between atoms: C_5  and  C_7
REMARK    5  A    between atoms: C_7  and  C_8
REMARK    6  A    between atoms: C_8  and  C_9
REMARK    7  A    between atoms: C_11  and  C_12
REMARK    8  A    between atoms: C_17  and  O_18
REMARK    9  A    between atoms: O_18  and  C_19
REMARK                            x       y       z     vdW  Elec       q    Type
REMARK                         _______ _______ _______ _____ _____    ______ ____
ROOT
ATOM      1  C   UNL     1       5.048   7.480  17.524  0.00  0.00    +0.000 C 
ENDROOT
BRANCH   1   2
ATOM      2  C   UNL     1       6.018   6.304  17.113  0.00  0.00    +0.000 C 
ATOM      3  C   UNL     1       7.506   6.739  17.360  0.00  0.00    +0.000 C 
ATOM      4  C   UNL     1       7.962   6.688  18.811  0.00  0.00    +0.000 C 
ATOM      5  O   UNL     1       7.684   5.417  19.388  0.00  0.00    +0.000 OA
ATOM      6  C   UNL     1       6.295   5.112  19.362  0.00  0.00    +0.000 C 
ATOM      7  C   UNL     1       5.795   5.004  17.924  0.00  0.00    +0.000 C 
BRANCH   2   9
ATOM      8  N   UNL     1       6.697   4.937  15.156  0.00  0.00    +0.000 N 
ATOM      9  C   UNL     1       5.942   5.991  15.593  0.00  0.00    +0.000 C 
ATOM     10  O   UNL     1       5.267   6.662  14.814  0.00  0.00    +0.000 OA
ATOM     11  H   UNL     1       6.980   4.230  15.823  0.00  0.00    +0.000 HD
BRANCH   8  12
ATOM     12  C   UNL     1       6.755   4.547  13.761  0.00  0.00    +0.000 C 
BRANCH  12  14
ATOM     13  C   UNL     1       5.685   3.125  11.959  0.00  0.00    +0.000 C 
ATOM     14  C   UNL     1       5.648   3.553  13.419  0.00  0.00    +0.000 C 
ENDBRANCH  12  14
ENDBRANCH   8  12
ENDBRANCH   2   9
ENDBRANCH   1   2
BRANCH   1  15
ATOM     15  C   UNL     1       3.509   7.277  17.456  0.00  0.00    +0.000 C 
ATOM     16  C   UNL     1       3.044   5.839  17.628  0.00  0.00    +0.000 C 
ATOM     17  C   UNL     1       2.495   5.879  19.025  0.00  0.00    +0.000 C 
ATOM     18  N   UNL     1       2.348   7.082  19.467  0.00  0.00    +0.000 NA
ATOM     19  O   UNL     1       2.816   7.986  18.485  0.00  0.00    +0.000 OA
BRANCH  17  20
ATOM     20  C   UNL     1       2.097   4.633  19.758  0.00  0.00    +0.000 A 
ATOM     21  C   UNL     1       2.303   4.649  21.160  0.00  0.00    +0.000 A 
ATOM     22  C   UNL     1       2.035   3.532  21.962  0.00  0.00    +0.000 A 
ATOM     23  C   UNL     1       1.538   2.373  21.388  0.00  0.00    +0.000 A 
ATOM     24  C   UNL     1       1.340   2.325  20.006  0.00  0.00    +0.000 A 
ATOM     25  C   UNL     1       1.626   3.438  19.181  0.00  0.00    +0.000 A 
BRANCH  25  26
ATOM     26  O   UNL     1       1.571   3.118  17.848  0.00  0.00    +0.000 OA
ATOM     27  C   UNL     1       2.575   2.255  17.332  0.00  0.00    +0.000 C 
ENDBRANCH  25  26
ENDBRANCH  17  20
ENDBRANCH   1  15
TORSDOF 7
ENDMDL
MODEL 9
REMARK VINA RESULT:      -7.1      1.755      2.478
REMARK  Name = 
REMARK  9 active torsions:
REMARK  status: ('A' for Active; 'I' for Inactive)
REMARK    1  A    between atoms: C_1  and  C_2
REMARK    2  A    between atoms: C_2  and  C_3
REMARK    3  A    between atoms: C_3  and  N_4
REMARK    4  A    between atoms: C_5  and  C_7
REMARK    5  A    between atoms: C_7  and  C_8
REMARK    6  A    between atoms: C_8  and  C_9
REMARK    7  A    between atoms: C_11  and  C_12
REMARK    8  A    between atoms: C_17  and  O_18
REMARK    9  A    between atoms: O_18  and  C_19
REMARK                            x       y       z     vdW  Elec       q    Type
REMARK                         _______ _______ _______ _____ _____    ______ ____
ROOT
ATOM      1  C   UNL     1       1.885   6.124  18.230  0.00  0.00    +0.000 C 
ENDROOT
BRANCH   1   2
ATOM      2  C   UNL     1       2.617   4.761  18.547  0.00  0.00    +0.000 C 
ATOM      3  C   UNL     1       2.679   4.546  20.100  0.00  0.00    +0.000 C 
ATOM      4  C   UNL     1       1.383   4.067  20.738  0.00  0.00    +0.000 C 
ATOM      5  O   UNL     1       0.880   2.916  20.068  0.00  0.00    +0.000 OA
ATOM      6  C   UNL     1       0.614   3.172  18.695  0.00  0.00    +0.000 C 
ATOM      7  C   UNL     1       1.903   3.522  17.953  0.00  0.00    +0.000 C 
BRANCH   2   9
ATOM      8  N   UNL     1       4.333   4.424  16.785  0.00  0.00    +0.000 N 
ATOM      9  C   UNL     1       4.101   4.777  18.087  0.00  0.00    +0.000 C 
ATOM     10  O   UNL     1       5.025   5.062  18.848  0.00  0.00    +0.000 OA
ATOM     11  H   UNL     1       3.576   4.502  16.117  0.00  0.00    +0.000 HD
BRANCH   8  12
ATOM     12  C   UNL     1       5.667   4.359  16.223  0.00  0.00    +0.000 C 
BRANCH  12  14
ATOM     13  C   UNL     1       6.201   3.947  13.781  0.00  0.00    +0.000 C 
ATOM     14  C   UNL     1       5.702   4.948  14.815  0.00  0.00    +0.000 C 
ENDBRANCH  12  14
ENDBRANCH   8  12
ENDBRANCH   2   9
ENDBRANCH   1   2
BRANCH   1  15
ATOM     15  C   UNL     1       2.476   7.463  18.749  0.00  0.00    +0.000 C 
ATOM     16  C   UNL     1       1.818   8.714  18.187  0.00  0.00    +0.000 C 
ATOM     17  C   UNL     1       1.009   9.167  19.368  0.00  0.00    +0.000 C 
ATOM     18  N   UNL     1       1.339   8.564  20.459  0.00  0.00    +0.000 NA
ATOM     19  O   UNL     1       2.341   7.610  20.164  0.00  0.00    +0.000 OA
BRANCH  17  20
ATOM     20  C   UNL     1      -0.007  10.267  19.260  0.00  0.00    +0.000 A 
ATOM     21  C   UNL     1      -0.064  11.163  20.356  0.00  0.00    +0.000 A 
ATOM     22  C   UNL     1      -1.006  12.199  20.418  0.00  0.00    +0.000 A 
ATOM     23  C   UNL     1      -1.907  12.376  19.380  0.00  0.00    +0.000 A 
ATOM     24  C   UNL     1      -1.882  11.496  18.296  0.00  0.00    +0.000 A 
ATOM     25  C   UNL     1      -0.951  10.434  18.228  0.00  0.00    +0.000 A 
BRANCH  25  26
ATOM     26  O   UNL     1      -1.231   9.567  17.203  0.00  0.00    +0.000 OA
ATOM     27  C   UNL     1      -2.405   9.805  16.438  0.00  0.00    +0.000 C 
ENDBRANCH  25  26
ENDBRANCH  17  20
ENDBRANCH   1  15
TORSDOF 7
ENDMDL
