MODEL 1
REMARK VINA RESULT:      -6.5      0.000      0.000
REMARK  Name = 
REMARK  9 active torsions:
REMARK  status: ('A' for Active; 'I' for Inactive)
REMARK    1  A    between atoms: C_14  and  O_15
REMARK    2  A    between atoms: O_15  and  C_16
REMARK    3  A    between atoms: C_17  and  O_18
REMARK    4  A    between atoms: O_18  and  C_19
REMARK    5  A    between atoms: C_20  and  O_21
REMARK    6  A    between atoms: O_21  and  C_22
REMARK    7  A    between atoms: C_25  and  N_26
REMARK    8  A    between atoms: C_27  and  C_29
REMARK    9  A    between atoms: C_29  and  O_30
REMARK                            x       y       z     vdW  Elec       q    Type
REMARK                         _______ _______ _______ _____ _____    ______ ____
ROOT
ATOM      1  C   UNL     1      -3.771   9.896  14.636  0.00  0.00    +0.000 C 
ATOM      2  C   UNL     1      -3.804  10.308  15.967  0.00  0.00    +0.000 C 
ATOM      3  C   UNL     1      -2.673  11.293  15.776  0.00  0.00    +0.000 C 
ATOM      4  O   UNL     1      -1.749  10.752  16.691  0.00  0.00    +0.000 OA
ATOM      5  C   UNL     1      -2.538  10.730  17.820  0.00  0.00    +0.000 A 
ATOM      6  C   UNL     1      -1.791  11.031  18.937  0.00  0.00    +0.000 A 
ATOM      7  C   UNL     1      -2.243  11.785  20.018  0.00  0.00    +0.000 A 
ATOM      8  C   UNL     1      -3.557  12.310  19.951  0.00  0.00    +0.000 A 
ATOM      9  C   UNL     1      -4.391  11.825  18.658  0.00  0.00    +0.000 A 
ATOM     10  C   UNL     1      -3.845  10.829  17.531  0.00  0.00    +0.000 A 
ATOM     11  C   UNL     1      -3.899  13.339  21.205  0.00  0.00    +0.000 A 
ATOM     12  C   UNL     1      -2.913  14.277  21.735  0.00  0.00    +0.000 A 
ATOM     13  C   UNL     1      -3.073  15.049  22.948  0.00  0.00    +0.000 A 
ATOM     14  C   UNL     1      -4.205  14.977  23.727  0.00  0.00    +0.000 A 
ATOM     15  C   UNL     1      -5.194  14.073  23.303  0.00  0.00    +0.000 A 
ATOM     16  C   UNL     1      -5.037  13.254  22.068  0.00  0.00    +0.000 A 
ATOM     17  C   UNL     1      -1.564  14.499  21.096  0.00  0.00    +0.000 C 
ATOM     18  C   UNL     1      -0.605  13.339  21.315  0.00  0.00    +0.000 C 
ATOM     19  C   UNL     1      -1.256  11.944  21.192  0.00  0.00    +0.000 C 
ENDROOT
BRANCH  19  20
ATOM     20  N   UNL     1      -0.175  10.934  21.138  0.00  0.00    +0.000 N 
ATOM     21  C   UNL     1       0.189  10.247  22.286  0.00  0.00    +0.000 C 
ATOM     22  O   UNL     1      -0.336  10.424  23.383  0.00  0.00    +0.000 OA
ATOM     23  H   UNL     1       0.089  10.561  20.235  0.00  0.00    +0.000 HD
BRANCH  21  24
ATOM     24  C   UNL     1       1.256   9.170  22.090  0.00  0.00    +0.000 C 
BRANCH  24  25
ATOM     25  O   UNL     1       2.355   9.350  22.972  0.00  0.00    +0.000 OA
ATOM     26  H   UNL     1       3.035   9.827  22.456  0.00  0.00    +0.000 HD
ENDBRANCH  24  25
ENDBRANCH  21  24
ENDBRANCH  19  20
BRANCH  14  27
ATOM     27  O   UNL     1      -4.404  15.728  24.852  0.00  0.00    +0.000 OA
ATOM     28  C   UNL     1      -4.693  17.118  24.806  0.00  0.00    +0.000 C 
ENDBRANCH  14  27
BRANCH  15  29
ATOM     29  O   UNL     1      -6.366  13.915  24.022  0.00  0.00    +0.000 OA
ATOM     30  C   UNL     1      -7.504  14.749  23.827  0.00  0.00    +0.000 C 
ENDBRANCH  15  29
BRANCH  16  31
ATOM     31  O   UNL     1      -5.948  12.302  21.661  0.00  0.00    +0.000 OA
ATOM     32  C   UNL     1      -7.071  12.732  20.907  0.00  0.00    +0.000 C 
ENDBRANCH  16  31
TORSDOF 6
ENDMDL
MODEL 2
REMARK VINA RESULT:      -6.0      1.665      2.051
REMARK  Name = 
REMARK  9 active torsions:
REMARK  status: ('A' for Active; 'I' for Inactive)
REMARK    1  A    between atoms: C_14  and  O_15
REMARK    2  A    between atoms: O_15  and  C_16
REMARK    3  A    between atoms: C_17  and  O_18
REMARK    4  A    between atoms: O_18  and  C_19
REMARK    5  A    between atoms: C_20  and  O_21
REMARK    6  A    between atoms: O_21  and  C_22
REMARK    7  A    between atoms: C_25  and  N_26
REMARK    8  A    between atoms: C_27  and  C_29
REMARK    9  A    between atoms: C_29  and  O_30
REMARK                            x       y       z     vdW  Elec       q    Type
REMARK                         _______ _______ _______ _____ _____    ______ ____
ROOT
ATOM      1  C   UNL     1      -4.266   9.941  14.371  0.00  0.00    +0.000 C 
ATOM      2  C   UNL     1      -3.966  10.243  15.699  0.00  0.00    +0.000 C 
ATOM      3  C   UNL     1      -2.666  10.924  15.336  0.00  0.00    +0.000 C 
ATOM      4  O   UNL     1      -1.774  10.098  16.049  0.00  0.00    +0.000 OA
ATOM      5  C   UNL     1      -2.341  10.186  17.302  0.00  0.00    +0.000 A 
ATOM      6  C   UNL     1      -1.365  10.201  18.273  0.00  0.00    +0.000 A 
ATOM      7  C   UNL     1      -1.416  10.957  19.442  0.00  0.00    +0.000 A 
ATOM      8  C   UNL     1      -2.539  11.798  19.634  0.00  0.00    +0.000 A 
ATOM      9  C   UNL     1      -3.676  11.642  18.500  0.00  0.00    +0.000 A 
ATOM     10  C   UNL     1      -3.607  10.632  17.260  0.00  0.00    +0.000 A 
ATOM     11  C   UNL     1      -2.385  12.778  20.962  0.00  0.00    +0.000 A 
ATOM     12  C   UNL     1      -1.115  13.395  21.333  0.00  0.00    +0.000 A 
ATOM     13  C   UNL     1      -0.862  14.084  22.580  0.00  0.00    +0.000 A 
ATOM     14  C   UNL     1      -1.825  14.236  23.550  0.00  0.00    +0.000 A 
ATOM     15  C   UNL     1      -3.073  13.646  23.284  0.00  0.00    +0.000 A 
ATOM     16  C   UNL     1      -3.344  12.914  22.015  0.00  0.00    +0.000 A 
ATOM     17  C   UNL     1       0.119  13.321  20.467  0.00  0.00    +0.000 C 
ATOM     18  C   UNL     1       0.764  11.944  20.469  0.00  0.00    +0.000 C 
ATOM     19  C   UNL     1      -0.238  10.771  20.421  0.00  0.00    +0.000 C 
ENDROOT
BRANCH  19  20
ATOM     20  N   UNL     1       0.516   9.529  20.138  0.00  0.00    +0.000 N 
ATOM     21  C   UNL     1       0.865   8.679  21.175  0.00  0.00    +0.000 C 
ATOM     22  O   UNL     1       0.586   8.888  22.354  0.00  0.00    +0.000 OA
ATOM     23  H   UNL     1       0.526   9.179  19.187  0.00  0.00    +0.000 HD
BRANCH  21  24
ATOM     24  C   UNL     1       1.567   7.388  20.751  0.00  0.00    +0.000 C 
BRANCH  24  25
ATOM     25  O   UNL     1       2.212   7.528  19.493  0.00  0.00    +0.000 OA
ATOM     26  H   UNL     1       1.778   8.286  19.054  0.00  0.00    +0.000 HD
ENDBRANCH  24  25
ENDBRANCH  21  24
ENDBRANCH  19  20
BRANCH  14  27
ATOM     27  O   UNL     1      -1.629  14.923  24.716  0.00  0.00    +0.000 OA
ATOM     28  C   UNL     1      -0.928  16.157  24.773  0.00  0.00    +0.000 C 
ENDBRANCH  14  27
BRANCH  15  29
ATOM     29  O   UNL     1      -4.107  13.730  24.200  0.00  0.00    +0.000 OA
ATOM     30  C   UNL     1      -4.538  12.615  24.975  0.00  0.00    +0.000 C 
ENDBRANCH  15  29
BRANCH  16  31
ATOM     31  O   UNL     1      -4.527  12.256  21.750  0.00  0.00    +0.000 OA
ATOM     32  C   UNL     1      -5.637  13.026  21.315  0.00  0.00    +0.000 C 
ENDBRANCH  16  31
TORSDOF 6
ENDMDL
MODEL 3
REMARK VINA RESULT:      -5.9      2.889      5.294
REMARK  Name = 
REMARK  9 active torsions:
REMARK  status: ('A' for Active; 'I' for Inactive)
REMARK    1  A    between atoms: C_14  and  O_15
REMARK    2  A    between atoms: O_15  and  C_16
REMARK    3  A    between atoms: C_17  and  O_18
REMARK    4  A    between atoms: O_18  and  C_19
REMARK    5  A    between atoms: C_20  and  O_21
REMARK    6  A    between atoms: O_21  and  C_22
REMARK    7  A    between atoms: C_25  and  N_26
REMARK    8  A    between atoms: C_27  and  C_29
REMARK    9  A    between atoms: C_29  and  O_30
REMARK                            x       y       z     vdW  Elec       q    Type
REMARK                         _______ _______ _______ _____ _____    ______ ____
ROOT
ATOM      1  C   UNL     1       4.407  15.940  17.714  0.00  0.00    +0.000 C 
ATOM      2  C   UNL     1       3.193  15.596  18.305  0.00  0.00    +0.000 C 
ATOM      3  C   UNL     1       3.682  14.223  18.705  0.00  0.00    +0.000 C 
ATOM      4  O   UNL     1       2.759  13.438  17.985  0.00  0.00    +0.000 OA
ATOM      5  C   UNL     1       1.586  13.982  18.460  0.00  0.00    +0.000 A 
ATOM      6  C   UNL     1       0.625  13.005  18.601  0.00  0.00    +0.000 A 
ATOM      7  C   UNL     1      -0.312  12.953  19.631  0.00  0.00    +0.000 A 
ATOM      8  C   UNL     1      -0.254  13.960  20.625  0.00  0.00    +0.000 A 
ATOM      9  C   UNL     1       0.832  15.115  20.326  0.00  0.00    +0.000 A 
ATOM     10  C   UNL     1       1.772  15.181  19.033  0.00  0.00    +0.000 A 
ATOM     11  C   UNL     1      -1.294  13.676  21.884  0.00  0.00    +0.000 A 
ATOM     12  C   UNL     1      -1.530  12.335  22.413  0.00  0.00    +0.000 A 
ATOM     13  C   UNL     1      -2.566  11.989  23.361  0.00  0.00    +0.000 A 
ATOM     14  C   UNL     1      -3.440  12.920  23.874  0.00  0.00    +0.000 A 
ATOM     15  C   UNL     1      -3.301  14.233  23.395  0.00  0.00    +0.000 A 
ATOM     16  C   UNL     1      -2.252  14.603  22.402  0.00  0.00    +0.000 A 
ATOM     17  C   UNL     1      -0.743  11.126  21.969  0.00  0.00    +0.000 C 
ATOM     18  C   UNL     1      -1.111  10.660  20.569  0.00  0.00    +0.000 C 
ATOM     19  C   UNL     1      -1.337  11.802  19.556  0.00  0.00    +0.000 C 
ENDROOT
BRANCH  19  20
ATOM     20  N   UNL     1      -1.398  11.213  18.200  0.00  0.00    +0.000 N 
ATOM     21  C   UNL     1      -2.614  11.112  17.542  0.00  0.00    +0.000 C 
ATOM     22  O   UNL     1      -3.683  11.487  18.021  0.00  0.00    +0.000 OA
ATOM     23  H   UNL     1      -0.541  11.147  17.665  0.00  0.00    +0.000 HD
BRANCH  21  24
ATOM     24  C   UNL     1      -2.540  10.565  16.116  0.00  0.00    +0.000 C 
BRANCH  24  25
ATOM     25  O   UNL     1      -3.129  11.456  15.179  0.00  0.00    +0.000 OA
ATOM     26  H   UNL     1      -3.258  12.299  15.659  0.00  0.00    +0.000 HD
ENDBRANCH  24  25
ENDBRANCH  21  24
ENDBRANCH  19  20
BRANCH  14  27
ATOM     27  O   UNL     1      -4.398  12.631  24.806  0.00  0.00    +0.000 OA
ATOM     28  C   UNL     1      -5.748  12.356  24.460  0.00  0.00    +0.000 C 
ENDBRANCH  14  27
BRANCH  15  29
ATOM     29  O   UNL     1      -4.137  15.243  23.837  0.00  0.00    +0.000 OA
ATOM     30  C   UNL     1      -3.788  16.115  24.908  0.00  0.00    +0.000 C 
ENDBRANCH  15  29
BRANCH  16  31
ATOM     31  O   UNL     1      -2.133  15.861  21.850  0.00  0.00    +0.000 OA
ATOM     32  C   UNL     1      -2.953  16.183  20.737  0.00  0.00    +0.000 C 
ENDBRANCH  16  31
TORSDOF 6
ENDMDL
MODEL 4
REMARK VINA RESULT:      -5.8      1.109      1.186
REMARK  Name = 
REMARK  9 active torsions:
REMARK  status: ('A' for Active; 'I' for Inactive)
REMARK    1  A    between atoms: C_14  and  O_15
REMARK    2  A    between atoms: O_15  and  C_16
REMARK    3  A    between atoms: C_17  and  O_18
REMARK    4  A    between atoms: O_18  and  C_19
REMARK    5  A    between atoms: C_20  and  O_21
REMARK    6  A    between atoms: O_21  and  C_22
REMARK    7  A    between atoms: C_25  and  N_26
REMARK    8  A    between atoms: C_27  and  C_29
REMARK    9  A    between atoms: C_29  and  O_30
REMARK                            x       y       z     vdW  Elec       q    Type
REMARK                         _______ _______ _______ _____ _____    ______ ____
ROOT
ATOM      1  C   UNL     1      -4.079   9.858  14.514  0.00  0.00    +0.000 C 
ATOM      2  C   UNL     1      -3.940  10.292  15.832  0.00  0.00    +0.000 C 
ATOM      3  C   UNL     1      -2.647  11.020  15.542  0.00  0.00    +0.000 C 
ATOM      4  O   UNL     1      -1.794  10.317  16.416  0.00  0.00    +0.000 OA
ATOM      5  C   UNL     1      -2.496  10.478  17.591  0.00  0.00    +0.000 A 
ATOM      6  C   UNL     1      -1.632  10.638  18.650  0.00  0.00    +0.000 A 
ATOM      7  C   UNL     1      -1.849  11.488  19.733  0.00  0.00    +0.000 A 
ATOM      8  C   UNL     1      -3.030  12.270  19.730  0.00  0.00    +0.000 A 
ATOM      9  C   UNL     1      -4.028  11.944  18.506  0.00  0.00    +0.000 A 
ATOM     10  C   UNL     1      -3.772  10.837  17.379  0.00  0.00    +0.000 A 
ATOM     11  C   UNL     1      -3.072  13.368  20.971  0.00  0.00    +0.000 A 
ATOM     12  C   UNL     1      -1.884  14.094  21.411  0.00  0.00    +0.000 A 
ATOM     13  C   UNL     1      -1.803  14.904  22.607  0.00  0.00    +0.000 A 
ATOM     14  C   UNL     1      -2.872  15.078  23.456  0.00  0.00    +0.000 A 
ATOM     15  C   UNL     1      -4.051  14.390  23.120  0.00  0.00    +0.000 A 
ATOM     16  C   UNL     1      -4.144  13.534  21.903  0.00  0.00    +0.000 A 
ATOM     17  C   UNL     1      -0.562  14.023  20.685  0.00  0.00    +0.000 C 
ATOM     18  C   UNL     1       0.152  12.695  20.881  0.00  0.00    +0.000 C 
ATOM     19  C   UNL     1      -0.775  11.462  20.840  0.00  0.00    +0.000 C 
ENDROOT
BRANCH  19  20
ATOM     20  N   UNL     1       0.071  10.250  20.752  0.00  0.00    +0.000 N 
ATOM     21  C   UNL     1       0.562   9.662  21.907  0.00  0.00    +0.000 C 
ATOM     22  O   UNL     1       0.341  10.090  23.039  0.00  0.00    +0.000 OA
ATOM     23  H   UNL     1       0.053   9.713  19.894  0.00  0.00    +0.000 HD
BRANCH  21  24
ATOM     24  C   UNL     1       1.352   8.370  21.696  0.00  0.00    +0.000 C 
BRANCH  24  25
ATOM     25  O   UNL     1       1.747   8.210  20.341  0.00  0.00    +0.000 OA
ATOM     26  H   UNL     1       0.922   8.047  19.840  0.00  0.00    +0.000 HD
ENDBRANCH  24  25
ENDBRANCH  21  24
ENDBRANCH  19  20
BRANCH  14  27
ATOM     27  O   UNL     1      -2.840  15.874  24.567  0.00  0.00    +0.000 OA
ATOM     28  C   UNL     1      -2.363  15.418  25.825  0.00  0.00    +0.000 C 
ENDBRANCH  14  27
BRANCH  15  29
ATOM     29  O   UNL     1      -5.180  14.487  23.914  0.00  0.00    +0.000 OA
ATOM     30  C   UNL     1      -6.108  15.562  23.797  0.00  0.00    +0.000 C 
ENDBRANCH  15  29
BRANCH  16  31
ATOM     31  O   UNL     1      -5.255  12.782  21.581  0.00  0.00    +0.000 OA
ATOM     32  C   UNL     1      -6.339  13.434  20.937  0.00  0.00    +0.000 C 
ENDBRANCH  16  31
TORSDOF 6
ENDMDL
MODEL 5
REMARK VINA RESULT:      -5.8      8.922     13.387
REMARK  Name = 
REMARK  9 active torsions:
REMARK  status: ('A' for Active; 'I' for Inactive)
REMARK    1  A    between atoms: C_14  and  O_15
REMARK    2  A    between atoms: O_15  and  C_16
REMARK    3  A    between atoms: C_17  and  O_18
REMARK    4  A    between atoms: O_18  and  C_19
REMARK    5  A    between atoms: C_20  and  O_21
REMARK    6  A    between atoms: O_21  and  C_22
REMARK    7  A    between atoms: C_25  and  N_26
REMARK    8  A    between atoms: C_27  and  C_29
REMARK    9  A    between atoms: C_29  and  O_30
REMARK                            x       y       z     vdW  Elec       q    Type
REMARK                         _______ _______ _______ _____ _____    ______ ____
ROOT
ATOM      1  C   UNL     1       5.536  10.839  26.809  0.00  0.00    +0.000 C 
ATOM      2  C   UNL     1       6.149  11.278  25.636  0.00  0.00    +0.000 C 
ATOM      3  C   UNL     1       6.004  12.736  26.007  0.00  0.00    +0.000 C 
ATOM      4  O   UNL     1       5.206  13.163  24.928  0.00  0.00    +0.000 OA
ATOM      5  C   UNL     1       5.994  12.732  23.883  0.00  0.00    +0.000 A 
ATOM      6  C   UNL     1       5.943  13.629  22.839  0.00  0.00    +0.000 A 
ATOM      7  C   UNL     1       7.022  13.962  22.022  0.00  0.00    +0.000 A 
ATOM      8  C   UNL     1       8.272  13.358  22.304  0.00  0.00    +0.000 A 
ATOM      9  C   UNL     1       8.215  12.250  23.474  0.00  0.00    +0.000 A 
ATOM     10  C   UNL     1       6.895  11.815  24.267  0.00  0.00    +0.000 A 
ATOM     11  C   UNL     1       9.503  13.979  21.384  0.00  0.00    +0.000 A 
ATOM     12  C   UNL     1       9.593  15.400  21.058  0.00  0.00    +0.000 A 
ATOM     13  C   UNL     1      10.513  15.974  20.100  0.00  0.00    +0.000 A 
ATOM     14  C   UNL     1      11.421  15.213  19.400  0.00  0.00    +0.000 A 
ATOM     15  C   UNL     1      11.382  13.828  19.634  0.00  0.00    +0.000 A 
ATOM     16  C   UNL     1      10.427  13.218  20.601  0.00  0.00    +0.000 A 
ATOM     17  C   UNL     1       8.670  16.439  21.648  0.00  0.00    +0.000 C 
ATOM     18  C   UNL     1       7.262  16.376  21.076  0.00  0.00    +0.000 C 
ATOM     19  C   UNL     1       6.722  14.944  20.871  0.00  0.00    +0.000 C 
ENDROOT
BRANCH  19  20
ATOM     20  N   UNL     1       5.270  15.033  20.594  0.00  0.00    +0.000 N 
ATOM     21  C   UNL     1       4.814  15.028  19.285  0.00  0.00    +0.000 C 
ATOM     22  O   UNL     1       5.552  14.954  18.304  0.00  0.00    +0.000 OA
ATOM     23  H   UNL     1       4.624  14.820  21.343  0.00  0.00    +0.000 HD
BRANCH  21  24
ATOM     24  C   UNL     1       3.293  15.038  19.125  0.00  0.00    +0.000 C 
BRANCH  24  25
ATOM     25  O   UNL     1       2.907  15.058  17.759  0.00  0.00    +0.000 OA
ATOM     26  H   UNL     1       3.155  15.944  17.425  0.00  0.00    +0.000 HD
ENDBRANCH  24  25
ENDBRANCH  21  24
ENDBRANCH  19  20
BRANCH  14  27
ATOM     27  O   UNL     1      12.333  15.733  18.524  0.00  0.00    +0.000 OA
ATOM     28  C   UNL     1      11.981  16.661  17.508  0.00  0.00    +0.000 C 
ENDBRANCH  14  27
BRANCH  15  29
ATOM     29  O   UNL     1      12.245  12.972  18.971  0.00  0.00    +0.000 OA
ATOM     30  C   UNL     1      12.118  12.679  17.583  0.00  0.00    +0.000 C 
ENDBRANCH  15  29
BRANCH  16  31
ATOM     31  O   UNL     1      10.305  11.859  20.801  0.00  0.00    +0.000 OA
ATOM     32  C   UNL     1       9.540  11.112  19.867  0.00  0.00    +0.000 C 
ENDBRANCH  16  31
TORSDOF 6
ENDMDL
MODEL 6
REMARK VINA RESULT:      -5.6      2.500      7.926
REMARK  Name = 
REMARK  9 active torsions:
REMARK  status: ('A' for Active; 'I' for Inactive)
REMARK    1  A    between atoms: C_14  and  O_15
REMARK    2  A    between atoms: O_15  and  C_16
REMARK    3  A    between atoms: C_17  and  O_18
REMARK    4  A    between atoms: O_18  and  C_19
REMARK    5  A    between atoms: C_20  and  O_21
REMARK    6  A    between atoms: O_21  and  C_22
REMARK    7  A    between atoms: C_25  and  N_26
REMARK    8  A    between atoms: C_27  and  C_29
REMARK    9  A    between atoms: C_29  and  O_30
REMARK                            x       y       z     vdW  Elec       q    Type
REMARK                         _______ _______ _______ _____ _____    ______ ____
ROOT
ATOM      1  C   UNL     1      -3.283  15.711  25.253  0.00  0.00    +0.000 C 
ATOM      2  C   UNL     1      -2.907  14.648  24.432  0.00  0.00    +0.000 C 
ATOM      3  C   UNL     1      -2.311  15.560  23.384  0.00  0.00    +0.000 C 
ATOM      4  O   UNL     1      -3.127  15.207  22.291  0.00  0.00    +0.000 OA
ATOM      5  C   UNL     1      -2.930  13.844  22.296  0.00  0.00    +0.000 A 
ATOM      6  C   UNL     1      -2.894  13.358  21.008  0.00  0.00    +0.000 A 
ATOM      7  C   UNL     1      -2.060  12.333  20.566  0.00  0.00    +0.000 A 
ATOM      8  C   UNL     1      -1.158  11.769  21.502  0.00  0.00    +0.000 A 
ATOM      9  C   UNL     1      -1.338  12.327  23.004  0.00  0.00    +0.000 A 
ATOM     10  C   UNL     1      -2.431  13.404  23.461  0.00  0.00    +0.000 A 
ATOM     11  C   UNL     1      -0.100  10.700  20.805  0.00  0.00    +0.000 A 
ATOM     12  C   UNL     1       0.482  10.927  19.485  0.00  0.00    +0.000 A 
ATOM     13  C   UNL     1       1.242   9.950  18.735  0.00  0.00    +0.000 A 
ATOM     14  C   UNL     1       1.502   8.688  19.216  0.00  0.00    +0.000 A 
ATOM     15  C   UNL     1       0.953   8.376  20.471  0.00  0.00    +0.000 A 
ATOM     16  C   UNL     1       0.150   9.363  21.248  0.00  0.00    +0.000 A 
ATOM     17  C   UNL     1       0.294  12.212  18.714  0.00  0.00    +0.000 C 
ATOM     18  C   UNL     1      -1.107  12.362  18.143  0.00  0.00    +0.000 C 
ATOM     19  C   UNL     1      -2.234  11.905  19.094  0.00  0.00    +0.000 C 
ENDROOT
BRANCH  19  20
ATOM     20  N   UNL     1      -3.525  12.370  18.539  0.00  0.00    +0.000 N 
ATOM     21  C   UNL     1      -4.389  11.465  17.944  0.00  0.00    +0.000 C 
ATOM     22  O   UNL     1      -4.154  10.263  17.838  0.00  0.00    +0.000 OA
ATOM     23  H   UNL     1      -3.881  13.269  18.839  0.00  0.00    +0.000 HD
BRANCH  21  24
ATOM     24  C   UNL     1      -5.727  12.047  17.485  0.00  0.00    +0.000 C 
BRANCH  24  25
ATOM     25  O   UNL     1      -5.903  13.382  17.936  0.00  0.00    +0.000 OA
ATOM     26  H   UNL     1      -6.439  13.319  18.752  0.00  0.00    +0.000 HD
ENDBRANCH  24  25
ENDBRANCH  21  24
ENDBRANCH  19  20
BRANCH  14  27
ATOM     27  O   UNL     1       2.256   7.761  18.551  0.00  0.00    +0.000 OA
ATOM     28  C   UNL     1       3.238   8.116  17.589  0.00  0.00    +0.000 C 
ENDBRANCH  14  27
BRANCH  15  29
ATOM     29  O   UNL     1       1.145   7.129  21.040  0.00  0.00    +0.000 OA
ATOM     30  C   UNL     1       2.079   6.186  20.523  0.00  0.00    +0.000 C 
ENDBRANCH  15  29
BRANCH  16  31
ATOM     31  O   UNL     1      -0.470   9.071  22.445  0.00  0.00    +0.000 OA
ATOM     32  C   UNL     1       0.226   9.366  23.646  0.00  0.00    +0.000 C 
ENDBRANCH  16  31
TORSDOF 6
ENDMDL
MODEL 7
REMARK VINA RESULT:      -5.6      2.479      4.491
REMARK  Name = 
REMARK  9 active torsions:
REMARK  status: ('A' for Active; 'I' for Inactive)
REMARK    1  A    between atoms: C_14  and  O_15
REMARK    2  A    between atoms: O_15  and  C_16
REMARK    3  A    between atoms: C_17  and  O_18
REMARK    4  A    between atoms: O_18  and  C_19
REMARK    5  A    between atoms: C_20  and  O_21
REMARK    6  A    between atoms: O_21  and  C_22
REMARK    7  A    between atoms: C_25  and  N_26
REMARK    8  A    between atoms: C_27  and  C_29
REMARK    9  A    between atoms: C_29  and  O_30
REMARK                            x       y       z     vdW  Elec       q    Type
REMARK                         _______ _______ _______ _____ _____    ______ ____
ROOT
ATOM      1  C   UNL     1       3.544  15.113  17.662  0.00  0.00    +0.000 C 
ATOM      2  C   UNL     1       2.373  14.472  18.063  0.00  0.00    +0.000 C 
ATOM      3  C   UNL     1       2.442  15.043  19.461  0.00  0.00    +0.000 C 
ATOM      4  O   UNL     1       2.526  13.841  20.190  0.00  0.00    +0.000 OA
ATOM      5  C   UNL     1       1.409  13.201  19.697  0.00  0.00    +0.000 A 
ATOM      6  C   UNL     1       0.795  12.471  20.689  0.00  0.00    +0.000 A 
ATOM      7  C   UNL     1      -0.583  12.325  20.833  0.00  0.00    +0.000 A 
ATOM      8  C   UNL     1      -1.417  13.005  19.912  0.00  0.00    +0.000 A 
ATOM      9  C   UNL     1      -0.614  13.751  18.728  0.00  0.00    +0.000 A 
ATOM     10  C   UNL     1       0.976  13.743  18.548  0.00  0.00    +0.000 A 
ATOM     11  C   UNL     1      -3.023  12.903  20.308  0.00  0.00    +0.000 A 
ATOM     12  C   UNL     1      -3.492  12.969  21.690  0.00  0.00    +0.000 A 
ATOM     13  C   UNL     1      -4.843  12.683  22.121  0.00  0.00    +0.000 A 
ATOM     14  C   UNL     1      -5.839  12.324  21.243  0.00  0.00    +0.000 A 
ATOM     15  C   UNL     1      -5.466  12.209  19.893  0.00  0.00    +0.000 A 
ATOM     16  C   UNL     1      -4.074  12.479  19.434  0.00  0.00    +0.000 A 
ATOM     17  C   UNL     1      -2.582  13.286  22.852  0.00  0.00    +0.000 C 
ATOM     18  C   UNL     1      -1.647  12.140  23.203  0.00  0.00    +0.000 C 
ATOM     19  C   UNL     1      -1.051  11.407  21.982  0.00  0.00    +0.000 C 
ENDROOT
BRANCH  19  20
ATOM     20  N   UNL     1       0.042  10.528  22.457  0.00  0.00    +0.000 N 
ATOM     21  C   UNL     1       0.323   9.349  21.786  0.00  0.00    +0.000 C 
ATOM     22  O   UNL     1      -0.290   8.965  20.792  0.00  0.00    +0.000 OA
ATOM     23  H   UNL     1       0.736  10.920  23.081  0.00  0.00    +0.000 HD
BRANCH  21  24
ATOM     24  C   UNL     1       1.525   8.568  22.319  0.00  0.00    +0.000 C 
BRANCH  24  25
ATOM     25  O   UNL     1       2.364   9.379  23.128  0.00  0.00    +0.000 OA
ATOM     26  H   UNL     1       1.850   9.569  23.938  0.00  0.00    +0.000 HD
ENDBRANCH  24  25
ENDBRANCH  21  24
ENDBRANCH  19  20
BRANCH  14  27
ATOM     27  O   UNL     1      -7.135  12.094  21.615  0.00  0.00    +0.000 OA
ATOM     28  C   UNL     1      -7.594  12.267  22.948  0.00  0.00    +0.000 C 
ENDBRANCH  14  27
BRANCH  15  29
ATOM     29  O   UNL     1      -6.390  11.842  18.930  0.00  0.00    +0.000 OA
ATOM     30  C   UNL     1      -6.750  10.485  18.691  0.00  0.00    +0.000 C 
ENDBRANCH  15  29
BRANCH  16  31
ATOM     31  O   UNL     1      -3.650  12.303  18.134  0.00  0.00    +0.000 OA
ATOM     32  C   UNL     1      -3.276  10.996  17.725  0.00  0.00    +0.000 C 
ENDBRANCH  16  31
TORSDOF 6
ENDMDL
MODEL 8
REMARK VINA RESULT:      -5.4      3.447      5.250
REMARK  Name = 
REMARK  9 active torsions:
REMARK  status: ('A' for Active; 'I' for Inactive)
REMARK    1  A    between atoms: C_14  and  O_15
REMARK    2  A    between atoms: O_15  and  C_16
REMARK    3  A    between atoms: C_17  and  O_18
REMARK    4  A    between atoms: O_18  and  C_19
REMARK    5  A    between atoms: C_20  and  O_21
REMARK    6  A    between atoms: O_21  and  C_22
REMARK    7  A    between atoms: C_25  and  N_26
REMARK    8  A    between atoms: C_27  and  C_29
REMARK    9  A    between atoms: C_29  and  O_30
REMARK                            x       y       z     vdW  Elec       q    Type
REMARK                         _______ _______ _______ _____ _____    ______ ____
ROOT
ATOM      1  C   UNL     1       3.289   5.895  18.520  0.00  0.00    +0.000 C 
ATOM      2  C   UNL     1       2.671   7.035  19.034  0.00  0.00    +0.000 C 
ATOM      3  C   UNL     1       1.939   7.321  17.743  0.00  0.00    +0.000 C 
ATOM      4  O   UNL     1       2.480   8.590  17.456  0.00  0.00    +0.000 OA
ATOM      5  C   UNL     1       2.187   9.231  18.640  0.00  0.00    +0.000 A 
ATOM      6  C   UNL     1       1.847  10.544  18.405  0.00  0.00    +0.000 A 
ATOM      7  C   UNL     1       0.865  11.248  19.099  0.00  0.00    +0.000 A 
ATOM      8  C   UNL     1       0.139  10.554  20.098  0.00  0.00    +0.000 A 
ATOM      9  C   UNL     1       0.671   9.057  20.374  0.00  0.00    +0.000 A 
ATOM     10  C   UNL     1       1.912   8.370  19.632  0.00  0.00    +0.000 A 
ATOM     11  C   UNL     1      -1.118  11.446  20.710  0.00  0.00    +0.000 A 
ATOM     12  C   UNL     1      -1.945  12.307  19.869  0.00  0.00    +0.000 A 
ATOM     13  C   UNL     1      -2.915  13.261  20.362  0.00  0.00    +0.000 A 
ATOM     14  C   UNL     1      -3.162  13.439  21.704  0.00  0.00    +0.000 A 
ATOM     15  C   UNL     1      -2.386  12.667  22.585  0.00  0.00    +0.000 A 
ATOM     16  C   UNL     1      -1.368  11.695  22.096  0.00  0.00    +0.000 A 
ATOM     17  C   UNL     1      -1.828  12.345  18.365  0.00  0.00    +0.000 C 
ATOM     18  C   UNL     1      -0.569  13.051  17.885  0.00  0.00    +0.000 C 
ATOM     19  C   UNL     1       0.694  12.732  18.712  0.00  0.00    +0.000 C 
ENDROOT
BRANCH  19  20
ATOM     20  N   UNL     1       1.872  13.242  17.974  0.00  0.00    +0.000 N 
ATOM     21  C   UNL     1       2.731  14.146  18.579  0.00  0.00    +0.000 C 
ATOM     22  O   UNL     1       2.580  14.571  19.723  0.00  0.00    +0.000 OA
ATOM     23  H   UNL     1       2.187  12.730  17.160  0.00  0.00    +0.000 HD
BRANCH  21  24
ATOM     24  C   UNL     1       3.955  14.536  17.751  0.00  0.00    +0.000 C 
BRANCH  24  25
ATOM     25  O   UNL     1       3.647  15.540  16.795  0.00  0.00    +0.000 OA
ATOM     26  H   UNL     1       2.795  15.927  17.081  0.00  0.00    +0.000 HD
ENDBRANCH  24  25
ENDBRANCH  21  24
ENDBRANCH  19  20
BRANCH  14  27
ATOM     27  O   UNL     1      -4.104  14.298  22.196  0.00  0.00    +0.000 OA
ATOM     28  C   UNL     1      -5.448  14.311  21.735  0.00  0.00    +0.000 C 
ENDBRANCH  14  27
BRANCH  15  29
ATOM     29  O   UNL     1      -2.547  12.779  23.956  0.00  0.00    +0.000 OA
ATOM     30  C   UNL     1      -3.778  12.481  24.610  0.00  0.00    +0.000 C 
ENDBRANCH  15  29
BRANCH  16  31
ATOM     31  O   UNL     1      -0.535  10.978  22.928  0.00  0.00    +0.000 OA
ATOM     32  C   UNL     1      -0.929   9.665  23.298  0.00  0.00    +0.000 C 
ENDBRANCH  16  31
TORSDOF 6
ENDMDL
MODEL 9
REMARK VINA RESULT:      -5.3      8.581     13.202
REMARK  Name = 
REMARK  9 active torsions:
REMARK  status: ('A' for Active; 'I' for Inactive)
REMARK    1  A    between atoms: C_14  and  O_15
REMARK    2  A    between atoms: O_15  and  C_16
REMARK    3  A    between atoms: C_17  and  O_18
REMARK    4  A    between atoms: O_18  and  C_19
REMARK    5  A    between atoms: C_20  and  O_21
REMARK    6  A    between atoms: O_21  and  C_22
REMARK    7  A    between atoms: C_25  and  N_26
REMARK    8  A    between atoms: C_27  and  C_29
REMARK    9  A    between atoms: C_29  and  O_30
REMARK                            x       y       z     vdW  Elec       q    Type
REMARK                         _______ _______ _______ _____ _____    ______ ____
ROOT
ATOM      1  C   UNL     1       6.283  10.792  27.843  0.00  0.00    +0.000 C 
ATOM      2  C   UNL     1       6.694  11.176  26.567  0.00  0.00    +0.000 C 
ATOM      3  C   UNL     1       6.506  12.647  26.860  0.00  0.00    +0.000 C 
ATOM      4  O   UNL     1       5.538  12.948  25.882  0.00  0.00    +0.000 OA
ATOM      5  C   UNL     1       6.197  12.486  24.764  0.00  0.00    +0.000 A 
ATOM      6  C   UNL     1       5.941  13.299  23.683  0.00  0.00    +0.000 A 
ATOM      7  C   UNL     1       6.869  13.630  22.697  0.00  0.00    +0.000 A 
ATOM      8  C   UNL     1       8.184  13.120  22.834  0.00  0.00    +0.000 A 
ATOM      9  C   UNL     1       8.366  12.099  24.069  0.00  0.00    +0.000 A 
ATOM     10  C   UNL     1       7.202  11.651  25.072  0.00  0.00    +0.000 A 
ATOM     11  C   UNL     1       9.229  13.739  21.706  0.00  0.00    +0.000 A 
ATOM     12  C   UNL     1       9.177  15.135  21.279  0.00  0.00    +0.000 A 
ATOM     13  C   UNL     1       9.913  15.687  20.162  0.00  0.00    +0.000 A 
ATOM     14  C   UNL     1      10.762  14.929  19.388  0.00  0.00    +0.000 A 
ATOM     15  C   UNL     1      10.849  13.565  19.715  0.00  0.00    +0.000 A 
ATOM     16  C   UNL     1      10.081  12.975  20.848  0.00  0.00    +0.000 A 
ATOM     17  C   UNL     1       8.280  16.161  21.928  0.00  0.00    +0.000 C 
ATOM     18  C   UNL     1       6.813  15.977  21.571  0.00  0.00    +0.000 C 
ATOM     19  C   UNL     1       6.345  14.506  21.541  0.00  0.00    +0.000 C 
ENDROOT
BRANCH  19  20
ATOM     20  N   UNL     1       4.867  14.493  21.472  0.00  0.00    +0.000 N 
ATOM     21  C   UNL     1       4.231  14.512  20.241  0.00  0.00    +0.000 C 
ATOM     22  O   UNL     1       4.825  14.543  19.165  0.00  0.00    +0.000 OA
ATOM     23  H   UNL     1       4.350  14.195  22.290  0.00  0.00    +0.000 HD
BRANCH  21  24
ATOM     24  C   UNL     1       2.706  14.410  20.293  0.00  0.00    +0.000 C 
BRANCH  24  25
ATOM     25  O   UNL     1       2.280  13.196  20.895  0.00  0.00    +0.000 OA
ATOM     26  H   UNL     1       2.168  12.559  20.161  0.00  0.00    +0.000 HD
ENDBRANCH  24  25
ENDBRANCH  21  24
ENDBRANCH  19  20
BRANCH  14  27
ATOM     27  O   UNL     1      11.506  15.432  18.357  0.00  0.00    +0.000 OA
ATOM     28  C   UNL     1      12.024  16.755  18.358  0.00  0.00    +0.000 C 
ENDBRANCH  14  27
BRANCH  15  29
ATOM     29  O   UNL     1      11.664  12.712  18.991  0.00  0.00    +0.000 OA
ATOM     30  C   UNL     1      11.251  12.111  17.767  0.00  0.00    +0.000 C 
ENDBRANCH  15  29
BRANCH  16  31
ATOM     31  O   UNL     1      10.079  11.630  21.152  0.00  0.00    +0.000 OA
ATOM     32  C   UNL     1       9.293  10.764  20.347  0.00  0.00    +0.000 C 
ENDBRANCH  16  31
TORSDOF 6
ENDMDL
