MODEL 1
REMARK VINA RESULT:      -7.8      0.000      0.000
REMARK  Name = 
REMARK  1 active torsions:
REMARK  status: ('A' for Active; 'I' for Inactive)
REMARK    1  A    between atoms: C_1  and  C_2
REMARK                            x       y       z     vdW  Elec       q    Type
REMARK                         _______ _______ _______ _____ _____    ______ ____
ROOT
ATOM      1  C   UNL     1      -2.114  12.525  22.547  0.00  0.00    +0.000 C 
ATOM      2  C   UNL     1      -1.206  11.368  22.244  0.00  0.00    +0.000 A 
ATOM      3  C   UNL     1      -0.902  10.424  23.227  0.00  0.00    +0.000 A 
ATOM      4  C   UNL     1      -0.088   9.323  22.936  0.00  0.00    +0.000 A 
ATOM      5  C   UNL     1       0.436   9.164  21.640  0.00  0.00    +0.000 A 
ATOM      6  N   UNL     1       1.212   8.106  21.202  0.00  0.00    +0.000 NA
ATOM      7  C   UNL     1       1.582   8.293  19.952  0.00  0.00    +0.000 A 
ATOM      8  N   UNL     1       2.351   7.405  19.217  0.00  0.00    +0.000 N 
ATOM      9  S   UNL     1       2.592   5.807  19.815  0.00  0.00    +0.000 S 
ATOM     10  C   UNL     1       3.608   5.411  18.430  0.00  0.00    +0.000 A 
ATOM     11  C   UNL     1       4.232   4.206  18.151  0.00  0.00    +0.000 A 
ATOM     12  C   UNL     1       5.045   4.118  17.018  0.00  0.00    +0.000 A 
ATOM     13  C   UNL     1       5.226   5.229  16.180  0.00  0.00    +0.000 A 
ATOM     14  C   UNL     1       4.581   6.436  16.457  0.00  0.00    +0.000 A 
ATOM     15  C   UNL     1       3.769   6.503  17.582  0.00  0.00    +0.000 A 
ATOM     16  C   UNL     1       3.016   7.694  18.031  0.00  0.00    +0.000 A 
ATOM     17  O   UNL     1       3.076   8.729  17.386  0.00  0.00    +0.000 OA
ATOM     18  S   UNL     1       0.976   9.722  19.226  0.00  0.00    +0.000 S 
ATOM     19  C   UNL     1       0.158  10.132  20.679  0.00  0.00    +0.000 A 
ATOM     20  C   UNL     1      -0.669  11.235  20.953  0.00  0.00    +0.000 A 
ENDROOT
TORSDOF 0
ENDMDL
MODEL 2
REMARK VINA RESULT:      -7.4      1.417      7.424
REMARK  Name = 
REMARK  1 active torsions:
REMARK  status: ('A' for Active; 'I' for Inactive)
REMARK    1  A    between atoms: C_1  and  C_2
REMARK                            x       y       z     vdW  Elec       q    Type
REMARK                         _______ _______ _______ _____ _____    ______ ____
ROOT
ATOM      1  C   UNL     1       5.810   4.293  16.250  0.00  0.00    +0.000 C 
ATOM      2  C   UNL     1       4.880   4.892  17.266  0.00  0.00    +0.000 A 
ATOM      3  C   UNL     1       4.600   4.222  18.459  0.00  0.00    +0.000 A 
ATOM      4  C   UNL     1       3.765   4.795  19.424  0.00  0.00    +0.000 A 
ATOM      5  C   UNL     1       3.195   6.061  19.193  0.00  0.00    +0.000 A 
ATOM      6  N   UNL     1       2.394   6.763  20.074  0.00  0.00    +0.000 NA
ATOM      7  C   UNL     1       1.984   7.888  19.526  0.00  0.00    +0.000 A 
ATOM      8  N   UNL     1       1.180   8.825  20.158  0.00  0.00    +0.000 N 
ATOM      9  S   UNL     1       0.942   8.717  21.860  0.00  0.00    +0.000 S 
ATOM     10  C   UNL     1      -0.125  10.120  21.830  0.00  0.00    +0.000 A 
ATOM     11  C   UNL     1      -0.770  10.720  22.899  0.00  0.00    +0.000 A 
ATOM     12  C   UNL     1      -1.622  11.799  22.648  0.00  0.00    +0.000 A 
ATOM     13  C   UNL     1      -1.820  12.264  21.339  0.00  0.00    +0.000 A 
ATOM     14  C   UNL     1      -1.152  11.667  20.268  0.00  0.00    +0.000 A 
ATOM     15  C   UNL     1      -0.303  10.602  20.536  0.00  0.00    +0.000 A 
ATOM     16  C   UNL     1       0.478   9.848  19.531  0.00  0.00    +0.000 A 
ATOM     17  O   UNL     1       0.407  10.156  18.352  0.00  0.00    +0.000 OA
ATOM     18  S   UNL     1       2.579   8.181  17.947  0.00  0.00    +0.000 S 
ATOM     19  C   UNL     1       3.451   6.702  17.984  0.00  0.00    +0.000 A 
ATOM     20  C   UNL     1       4.299   6.145  17.012  0.00  0.00    +0.000 A 
ENDROOT
TORSDOF 0
ENDMDL
MODEL 3
REMARK VINA RESULT:      -7.3      1.313      7.490
REMARK  Name = 
REMARK  1 active torsions:
REMARK  status: ('A' for Active; 'I' for Inactive)
REMARK    1  A    between atoms: C_1  and  C_2
REMARK                            x       y       z     vdW  Elec       q    Type
REMARK                         _______ _______ _______ _____ _____    ______ ____
ROOT
ATOM      1  C   UNL     1       6.253   4.200  14.957  0.00  0.00    +0.000 C 
ATOM      2  C   UNL     1       5.267   4.607  16.014  0.00  0.00    +0.000 A 
ATOM      3  C   UNL     1       4.673   3.651  16.841  0.00  0.00    +0.000 A 
ATOM      4  C   UNL     1       3.785   4.032  17.853  0.00  0.00    +0.000 A 
ATOM      5  C   UNL     1       3.481   5.393  18.042  0.00  0.00    +0.000 A 
ATOM      6  N   UNL     1       2.662   5.913  19.027  0.00  0.00    +0.000 NA
ATOM      7  C   UNL     1       2.546   7.217  18.888  0.00  0.00    +0.000 A 
ATOM      8  N   UNL     1       1.808   8.036  19.728  0.00  0.00    +0.000 N 
ATOM      9  S   UNL     1       1.256   7.414  21.237  0.00  0.00    +0.000 S 
ATOM     10  C   UNL     1       0.456   8.941  21.607  0.00  0.00    +0.000 A 
ATOM     11  C   UNL     1      -0.262   9.269  22.745  0.00  0.00    +0.000 A 
ATOM     12  C   UNL     1      -0.867  10.528  22.817  0.00  0.00    +0.000 A 
ATOM     13  C   UNL     1      -0.749  11.439  21.755  0.00  0.00    +0.000 A 
ATOM     14  C   UNL     1      -0.009  11.108  20.619  0.00  0.00    +0.000 A 
ATOM     15  C   UNL     1       0.593   9.858  20.568  0.00  0.00    +0.000 A 
ATOM     16  C   UNL     1       1.407   9.337  19.448  0.00  0.00    +0.000 A 
ATOM     17  O   UNL     1       1.598  10.033  18.463  0.00  0.00    +0.000 OA
ATOM     18  S   UNL     1       3.454   7.890  17.600  0.00  0.00    +0.000 S 
ATOM     19  C   UNL     1       4.050   6.333  17.187  0.00  0.00    +0.000 A 
ATOM     20  C   UNL     1       4.954   5.967  16.176  0.00  0.00    +0.000 A 
ENDROOT
TORSDOF 0
ENDMDL
MODEL 4
REMARK VINA RESULT:      -7.3      1.356      7.779
REMARK  Name = 
REMARK  1 active torsions:
REMARK  status: ('A' for Active; 'I' for Inactive)
REMARK    1  A    between atoms: C_1  and  C_2
REMARK                            x       y       z     vdW  Elec       q    Type
REMARK                         _______ _______ _______ _____ _____    ______ ____
ROOT
ATOM      1  C   UNL     1       5.925   3.412  15.651  0.00  0.00    +0.000 C 
ATOM      2  C   UNL     1       5.262   4.652  16.179  0.00  0.00    +0.000 A 
ATOM      3  C   UNL     1       5.455   5.886  15.554  0.00  0.00    +0.000 A 
ATOM      4  C   UNL     1       4.808   7.035  16.020  0.00  0.00    +0.000 A 
ATOM      5  C   UNL     1       3.953   6.953  17.135  0.00  0.00    +0.000 A 
ATOM      6  N   UNL     1       3.217   7.992  17.673  0.00  0.00    +0.000 NA
ATOM      7  C   UNL     1       2.566   7.589  18.744  0.00  0.00    +0.000 A 
ATOM      8  N   UNL     1       1.724   8.389  19.501  0.00  0.00    +0.000 N 
ATOM      9  S   UNL     1       1.212   9.907  18.867  0.00  0.00    +0.000 S 
ATOM     10  C   UNL     1       0.298  10.245  20.336  0.00  0.00    +0.000 A 
ATOM     11  C   UNL     1      -0.467  11.364  20.622  0.00  0.00    +0.000 A 
ATOM     12  C   UNL     1      -1.071  11.460  21.879  0.00  0.00    +0.000 A 
ATOM     13  C   UNL     1      -0.904  10.444  22.832  0.00  0.00    +0.000 A 
ATOM     14  C   UNL     1      -0.147   9.310  22.531  0.00  0.00    +0.000 A 
ATOM     15  C   UNL     1       0.439   9.227  21.275  0.00  0.00    +0.000 A 
ATOM     16  C   UNL     1       1.275   8.109  20.786  0.00  0.00    +0.000 A 
ATOM     17  O   UNL     1       1.492   7.151  21.512  0.00  0.00    +0.000 OA
ATOM     18  S   UNL     1       2.766   5.932  19.130  0.00  0.00    +0.000 S 
ATOM     19  C   UNL     1       3.798   5.725  17.774  0.00  0.00    +0.000 A 
ATOM     20  C   UNL     1       4.431   4.560  17.308  0.00  0.00    +0.000 A 
ENDROOT
TORSDOF 0
ENDMDL
MODEL 5
REMARK VINA RESULT:      -6.9      1.757      7.598
REMARK  Name = 
REMARK  1 active torsions:
REMARK  status: ('A' for Active; 'I' for Inactive)
REMARK    1  A    between atoms: C_1  and  C_2
REMARK                            x       y       z     vdW  Elec       q    Type
REMARK                         _______ _______ _______ _____ _____    ______ ____
ROOT
ATOM      1  C   UNL     1       5.042   5.512  16.495  0.00  0.00    +0.000 C 
ATOM      2  C   UNL     1       4.107   6.092  17.518  0.00  0.00    +0.000 A 
ATOM      3  C   UNL     1       3.869   5.429  18.724  0.00  0.00    +0.000 A 
ATOM      4  C   UNL     1       3.030   5.986  19.695  0.00  0.00    +0.000 A 
ATOM      5  C   UNL     1       2.413   7.228  19.456  0.00  0.00    +0.000 A 
ATOM      6  N   UNL     1       1.601   7.915  20.341  0.00  0.00    +0.000 NA
ATOM      7  C   UNL     1       1.144   9.017  19.785  0.00  0.00    +0.000 A 
ATOM      8  N   UNL     1       0.318   9.934  20.417  0.00  0.00    +0.000 N 
ATOM      9  S   UNL     1       0.110   9.841  22.124  0.00  0.00    +0.000 S 
ATOM     10  C   UNL     1      -1.005  11.206  22.092  0.00  0.00    +0.000 A 
ATOM     11  C   UNL     1      -1.654  11.797  23.164  0.00  0.00    +0.000 A 
ATOM     12  C   UNL     1      -2.547  12.843  22.912  0.00  0.00    +0.000 A 
ATOM     13  C   UNL     1      -2.782  13.282  21.600  0.00  0.00    +0.000 A 
ATOM     14  C   UNL     1      -2.111  12.694  20.527  0.00  0.00    +0.000 A 
ATOM     15  C   UNL     1      -1.220  11.663  20.795  0.00  0.00    +0.000 A 
ATOM     16  C   UNL     1      -0.429  10.923  19.788  0.00  0.00    +0.000 A 
ATOM     17  O   UNL     1      -0.530  11.213  18.606  0.00  0.00    +0.000 OA
ATOM     18  S   UNL     1       1.704   9.309  18.192  0.00  0.00    +0.000 S 
ATOM     19  C   UNL     1       2.627   7.862  18.235  0.00  0.00    +0.000 A 
ATOM     20  C   UNL     1       3.479   7.321  17.257  0.00  0.00    +0.000 A 
ENDROOT
TORSDOF 0
ENDMDL
MODEL 6
REMARK VINA RESULT:      -6.8      1.695      2.574
REMARK  Name = 
REMARK  1 active torsions:
REMARK  status: ('A' for Active; 'I' for Inactive)
REMARK    1  A    between atoms: C_1  and  C_2
REMARK                            x       y       z     vdW  Elec       q    Type
REMARK                         _______ _______ _______ _____ _____    ______ ____
ROOT
ATOM      1  C   UNL     1      -1.162  10.704  23.156  0.00  0.00    +0.000 C 
ATOM      2  C   UNL     1      -0.383  10.235  21.961  0.00  0.00    +0.000 A 
ATOM      3  C   UNL     1      -0.220  11.061  20.846  0.00  0.00    +0.000 A 
ATOM      4  C   UNL     1       0.538  10.642  19.748  0.00  0.00    +0.000 A 
ATOM      5  C   UNL     1       1.143   9.371  19.759  0.00  0.00    +0.000 A 
ATOM      6  N   UNL     1       1.953   8.849  18.768  0.00  0.00    +0.000 NA
ATOM      7  C   UNL     1       2.309   7.617  19.067  0.00  0.00    +0.000 A 
ATOM      8  N   UNL     1       3.135   6.824  18.285  0.00  0.00    +0.000 N 
ATOM      9  S   UNL     1       4.034   7.550  17.007  0.00  0.00    +0.000 S 
ATOM     10  C   UNL     1       4.711   5.987  16.555  0.00  0.00    +0.000 A 
ATOM     11  C   UNL     1       5.610   5.713  15.537  0.00  0.00    +0.000 A 
ATOM     12  C   UNL     1       5.981   4.385  15.310  0.00  0.00    +0.000 A 
ATOM     13  C   UNL     1       5.452   3.350  16.097  0.00  0.00    +0.000 A 
ATOM     14  C   UNL     1       4.561   3.635  17.133  0.00  0.00    +0.000 A 
ATOM     15  C   UNL     1       4.210   4.961  17.351  0.00  0.00    +0.000 A 
ATOM     16  C   UNL     1       3.280   5.446  18.394  0.00  0.00    +0.000 A 
ATOM     17  O   UNL     1       2.755   4.650  19.157  0.00  0.00    +0.000 OA
ATOM     18  S   UNL     1       1.729   7.042  20.573  0.00  0.00    +0.000 S 
ATOM     19  C   UNL     1       0.942   8.542  20.859  0.00  0.00    +0.000 A 
ATOM     20  C   UNL     1       0.195   8.955  21.975  0.00  0.00    +0.000 A 
ENDROOT
TORSDOF 0
ENDMDL
MODEL 7
REMARK VINA RESULT:      -6.8      1.742      2.470
REMARK  Name = 
REMARK  1 active torsions:
REMARK  status: ('A' for Active; 'I' for Inactive)
REMARK    1  A    between atoms: C_1  and  C_2
REMARK                            x       y       z     vdW  Elec       q    Type
REMARK                         _______ _______ _______ _____ _____    ______ ____
ROOT
ATOM      1  C   UNL     1      -1.720  13.125  22.406  0.00  0.00    +0.000 C 
ATOM      2  C   UNL     1      -0.999  12.221  21.447  0.00  0.00    +0.000 A 
ATOM      3  C   UNL     1      -0.825  12.592  20.112  0.00  0.00    +0.000 A 
ATOM      4  C   UNL     1      -0.120  11.770  19.225  0.00  0.00    +0.000 A 
ATOM      5  C   UNL     1       0.419  10.551  19.679  0.00  0.00    +0.000 A 
ATOM      6  N   UNL     1       1.173   9.668  18.930  0.00  0.00    +0.000 NA
ATOM      7  C   UNL     1       1.473   8.601  19.641  0.00  0.00    +0.000 A 
ATOM      8  N   UNL     1       2.235   7.537  19.183  0.00  0.00    +0.000 N 
ATOM      9  S   UNL     1       3.134   7.715  17.724  0.00  0.00    +0.000 S 
ATOM     10  C   UNL     1       3.717   6.056  17.847  0.00  0.00    +0.000 A 
ATOM     11  C   UNL     1       4.572   5.390  16.984  0.00  0.00    +0.000 A 
ATOM     12  C   UNL     1       4.868   4.047  17.237  0.00  0.00    +0.000 A 
ATOM     13  C   UNL     1       4.308   3.388  18.342  0.00  0.00    +0.000 A 
ATOM     14  C   UNL     1       3.461   4.070  19.218  0.00  0.00    +0.000 A 
ATOM     15  C   UNL     1       3.185   5.406  18.957  0.00  0.00    +0.000 A 
ATOM     16  C   UNL     1       2.311   6.280  19.769  0.00  0.00    +0.000 A 
ATOM     17  O   UNL     1       1.767   5.834  20.768  0.00  0.00    +0.000 OA
ATOM     18  S   UNL     1       0.906   8.627  21.258  0.00  0.00    +0.000 S 
ATOM     19  C   UNL     1       0.205  10.174  21.003  0.00  0.00    +0.000 A 
ATOM     20  C   UNL     1      -0.488  10.996  21.907  0.00  0.00    +0.000 A 
ENDROOT
TORSDOF 0
ENDMDL
MODEL 8
REMARK VINA RESULT:      -6.8      2.145      6.999
REMARK  Name = 
REMARK  1 active torsions:
REMARK  status: ('A' for Active; 'I' for Inactive)
REMARK    1  A    between atoms: C_1  and  C_2
REMARK                            x       y       z     vdW  Elec       q    Type
REMARK                         _______ _______ _______ _____ _____    ______ ____
ROOT
ATOM      1  C   UNL     1       3.709   1.452  18.697  0.00  0.00    +0.000 C 
ATOM      2  C   UNL     1       3.071   2.714  19.203  0.00  0.00    +0.000 A 
ATOM      3  C   UNL     1       2.295   2.705  20.364  0.00  0.00    +0.000 A 
ATOM      4  C   UNL     1       1.733   3.887  20.859  0.00  0.00    +0.000 A 
ATOM      5  C   UNL     1       1.945   5.101  20.180  0.00  0.00    +0.000 A 
ATOM      6  N   UNL     1       1.491   6.345  20.579  0.00  0.00    +0.000 NA
ATOM      7  C   UNL     1       1.817   7.260  19.690  0.00  0.00    +0.000 A 
ATOM      8  N   UNL     1       1.523   8.610  19.806  0.00  0.00    +0.000 N 
ATOM      9  S   UNL     1       0.990   9.227  21.323  0.00  0.00    +0.000 S 
ATOM     10  C   UNL     1       0.823  10.844  20.640  0.00  0.00    +0.000 A 
ATOM     11  C   UNL     1       0.417  12.000  21.286  0.00  0.00    +0.000 A 
ATOM     12  C   UNL     1       0.299  13.177  20.541  0.00  0.00    +0.000 A 
ATOM     13  C   UNL     1       0.586  13.186  19.167  0.00  0.00    +0.000 A 
ATOM     14  C   UNL     1       1.013  12.021  18.527  0.00  0.00    +0.000 A 
ATOM     15  C   UNL     1       1.133  10.862  19.283  0.00  0.00    +0.000 A 
ATOM     16  C   UNL     1       1.564   9.542  18.776  0.00  0.00    +0.000 A 
ATOM     17  O   UNL     1       1.855   9.411  17.597  0.00  0.00    +0.000 OA
ATOM     18  S   UNL     1       2.726   6.682  18.358  0.00  0.00    +0.000 S 
ATOM     19  C   UNL     1       2.689   5.091  19.003  0.00  0.00    +0.000 A 
ATOM     20  C   UNL     1       3.271   3.915  18.502  0.00  0.00    +0.000 A 
ENDROOT
TORSDOF 0
ENDMDL
MODEL 9
REMARK VINA RESULT:      -6.7      1.388      1.928
REMARK  Name = 
REMARK  1 active torsions:
REMARK  status: ('A' for Active; 'I' for Inactive)
REMARK    1  A    between atoms: C_1  and  C_2
REMARK                            x       y       z     vdW  Elec       q    Type
REMARK                         _______ _______ _______ _____ _____    ______ ____
ROOT
ATOM      1  C   UNL     1      -3.452  14.256  21.187  0.00  0.00    +0.000 C 
ATOM      2  C   UNL     1      -2.445  13.143  21.244  0.00  0.00    +0.000 A 
ATOM      3  C   UNL     1      -2.039  12.612  22.470  0.00  0.00    +0.000 A 
ATOM      4  C   UNL     1      -1.131  11.548  22.525  0.00  0.00    +0.000 A 
ATOM      5  C   UNL     1      -0.616  11.006  21.333  0.00  0.00    +0.000 A 
ATOM      6  N   UNL     1       0.248   9.931  21.236  0.00  0.00    +0.000 NA
ATOM      7  C   UNL     1       0.578   9.717  19.980  0.00  0.00    +0.000 A 
ATOM      8  N   UNL     1       1.414   8.699  19.548  0.00  0.00    +0.000 N 
ATOM      9  S   UNL     1       1.813   7.421  20.632  0.00  0.00    +0.000 S 
ATOM     10  C   UNL     1       2.838   6.667  19.412  0.00  0.00    +0.000 A 
ATOM     11  C   UNL     1       3.566   5.494  19.523  0.00  0.00    +0.000 A 
ATOM     12  C   UNL     1       4.365   5.097  18.446  0.00  0.00    +0.000 A 
ATOM     13  C   UNL     1       4.429   5.873  17.279  0.00  0.00    +0.000 A 
ATOM     14  C   UNL     1       3.679   7.045  17.167  0.00  0.00    +0.000 A 
ATOM     15  C   UNL     1       2.883   7.420  18.242  0.00  0.00    +0.000 A 
ATOM     16  C   UNL     1       2.030   8.626  18.304  0.00  0.00    +0.000 A 
ATOM     17  O   UNL     1       1.983   9.386  17.349  0.00  0.00    +0.000 OA
ATOM     18  S   UNL     1      -0.170  10.764  18.848  0.00  0.00    +0.000 S 
ATOM     19  C   UNL     1      -0.999  11.569  20.118  0.00  0.00    +0.000 A 
ATOM     20  C   UNL     1      -1.920  12.628  20.047  0.00  0.00    +0.000 A 
ENDROOT
TORSDOF 0
ENDMDL
