MODEL 1
REMARK VINA RESULT:      -7.9      0.000      0.000
REMARK  Name = 
REMARK  9 active torsions:
REMARK  status: ('A' for Active; 'I' for Inactive)
REMARK    1  A    between atoms: C_2  and  C_3
REMARK    2  A    between atoms: C_3  and  N_4
REMARK    3  A    between atoms: C_5  and  S_6
REMARK    4  A    between atoms: S_6  and  C_7
REMARK    5  A    between atoms: C_7  and  C_8
REMARK    6  A    between atoms: C_8  and  C_10
REMARK    7  A    between atoms: C_25  and  C_26
REMARK    8  A    between atoms: C_29  and  O_30
REMARK    9  A    between atoms: O_30  and  C_31
REMARK                            x       y       z     vdW  Elec       q    Type
REMARK                         _______ _______ _______ _____ _____    ______ ____
ROOT
ATOM      1  S   UNL     1       0.464   8.810  21.097  0.00  0.00    +0.000 S 
ENDROOT
BRANCH   1   3
ATOM      2  N   UNL     1       2.175   7.242  19.576  0.00  0.00    +0.000 N 
ATOM      3  C   UNL     1       1.458   8.411  19.727  0.00  0.00    +0.000 A 
ATOM      4  N   UNL     1       1.672   9.188  18.693  0.00  0.00    +0.000 NA
ATOM      5  N   UNL     1       2.513   8.520  17.832  0.00  0.00    +0.000 NA
ATOM      6  C   UNL     1       2.780   7.319  18.325  0.00  0.00    +0.000 A 
BRANCH   6   7
ATOM      7  C   UNL     1       3.591   6.291  17.629  0.00  0.00    +0.000 A 
ATOM      8  C   UNL     1       4.700   6.671  16.864  0.00  0.00    +0.000 A 
ATOM      9  C   UNL     1       5.458   5.718  16.165  0.00  0.00    +0.000 A 
ATOM     10  C   UNL     1       5.143   4.362  16.224  0.00  0.00    +0.000 A 
ATOM     11  C   UNL     1       4.031   3.967  16.947  0.00  0.00    +0.000 A 
ATOM     12  C   UNL     1       3.265   4.926  17.624  0.00  0.00    +0.000 A 
BRANCH  10  13
ATOM     13  O   UNL     1       5.940   3.524  15.496  0.00  0.00    +0.000 OA
ATOM     14  C   UNL     1       6.395   4.037  14.247  0.00  0.00    +0.000 C 
ENDBRANCH  10  13
ENDBRANCH   6   7
BRANCH   2  15
ATOM     15  C   UNL     1       2.364   6.178  20.550  0.00  0.00    +0.000 C 
BRANCH  15  17
ATOM     16  C   UNL     1       1.441   3.880  20.987  0.00  0.00    +0.000 C 
ATOM     17  C   UNL     1       1.327   5.092  20.431  0.00  0.00    +0.000 C 
ENDBRANCH  15  17
ENDBRANCH   2  15
ENDBRANCH   1   3
BRANCH   1  18
ATOM     18  C   UNL     1       1.078  10.473  21.591  0.00  0.00    +0.000 C 
BRANCH  18  19
ATOM     19  C   UNL     1       0.641  11.581  20.615  0.00  0.00    +0.000 C 
ATOM     20  O   UNL     1       1.437  12.288  19.986  0.00  0.00    +0.000 OA
BRANCH  19  21
ATOM     21  C   UNL     1      -0.839  11.836  20.419  0.00  0.00    +0.000 A 
ATOM     22  C   UNL     1      -1.653  12.350  21.454  0.00  0.00    +0.000 A 
ATOM     23  C   UNL     1      -3.026  12.570  21.258  0.00  0.00    +0.000 A 
ATOM     24  C   UNL     1      -3.593  12.276  20.029  0.00  0.00    +0.000 A 
ATOM     25  C   UNL     1      -2.792  11.767  18.989  0.00  0.00    +0.000 A 
ATOM     26  C   UNL     1      -1.423  11.541  19.168  0.00  0.00    +0.000 A 
ATOM     27  C   UNL     1      -3.632  11.537  17.745  0.00  0.00    +0.000 C 
ATOM     28  C   UNL     1      -5.007  11.991  18.200  0.00  0.00    +0.000 A 
ATOM     29  C   UNL     1      -6.186  12.031  17.474  0.00  0.00    +0.000 A 
ATOM     30  C   UNL     1      -7.338  12.499  18.112  0.00  0.00    +0.000 A 
ATOM     31  C   UNL     1      -7.294  12.913  19.455  0.00  0.00    +0.000 A 
ATOM     32  C   UNL     1      -6.098  12.871  20.180  0.00  0.00    +0.000 A 
ATOM     33  C   UNL     1      -4.955  12.413  19.547  0.00  0.00    +0.000 A 
ENDBRANCH  19  21
ENDBRANCH  18  19
ENDBRANCH   1  18
TORSDOF 8
ENDMDL
MODEL 2
REMARK VINA RESULT:      -7.7      2.877      3.269
REMARK  Name = 
REMARK  9 active torsions:
REMARK  status: ('A' for Active; 'I' for Inactive)
REMARK    1  A    between atoms: C_2  and  C_3
REMARK    2  A    between atoms: C_3  and  N_4
REMARK    3  A    between atoms: C_5  and  S_6
REMARK    4  A    between atoms: S_6  and  C_7
REMARK    5  A    between atoms: C_7  and  C_8
REMARK    6  A    between atoms: C_8  and  C_10
REMARK    7  A    between atoms: C_25  and  C_26
REMARK    8  A    between atoms: C_29  and  O_30
REMARK    9  A    between atoms: O_30  and  C_31
REMARK                            x       y       z     vdW  Elec       q    Type
REMARK                         _______ _______ _______ _____ _____    ______ ____
ROOT
ATOM      1  S   UNL     1       0.648   8.008  21.255  0.00  0.00    +0.000 S 
ENDROOT
BRANCH   1   3
ATOM      2  N   UNL     1       2.400   6.693  19.551  0.00  0.00    +0.000 N 
ATOM      3  C   UNL     1       1.658   7.816  19.852  0.00  0.00    +0.000 A 
ATOM      4  N   UNL     1       1.864   8.730  18.934  0.00  0.00    +0.000 NA
ATOM      5  N   UNL     1       2.723   8.200  17.998  0.00  0.00    +0.000 NA
ATOM      6  C   UNL     1       3.012   6.949  18.327  0.00  0.00    +0.000 A 
BRANCH   6   7
ATOM      7  C   UNL     1       3.847   6.040  17.507  0.00  0.00    +0.000 A 
ATOM      8  C   UNL     1       4.813   6.565  16.641  0.00  0.00    +0.000 A 
ATOM      9  C   UNL     1       5.589   5.725  15.825  0.00  0.00    +0.000 A 
ATOM     10  C   UNL     1       5.435   4.341  15.865  0.00  0.00    +0.000 A 
ATOM     11  C   UNL     1       4.463   3.801  16.689  0.00  0.00    +0.000 A 
ATOM     12  C   UNL     1       3.677   4.647  17.483  0.00  0.00    +0.000 A 
BRANCH  10  13
ATOM     13  O   UNL     1       6.232   3.619  15.022  0.00  0.00    +0.000 OA
ATOM     14  C   UNL     1       6.113   3.938  13.637  0.00  0.00    +0.000 C 
ENDBRANCH  10  13
ENDBRANCH   6   7
BRANCH   2  15
ATOM     15  C   UNL     1       2.604   5.511  20.376  0.00  0.00    +0.000 C 
BRANCH  15  17
ATOM     16  C   UNL     1       1.337   3.452  21.069  0.00  0.00    +0.000 C 
ATOM     17  C   UNL     1       1.438   4.560  20.325  0.00  0.00    +0.000 C 
ENDBRANCH  15  17
ENDBRANCH   2  15
ENDBRANCH   1   3
BRANCH   1  18
ATOM     18  C   UNL     1       1.059   9.703  21.840  0.00  0.00    +0.000 C 
BRANCH  18  19
ATOM     19  C   UNL     1      -0.151  10.430  22.454  0.00  0.00    +0.000 C 
ATOM     20  O   UNL     1      -0.843   9.954  23.362  0.00  0.00    +0.000 OA
BRANCH  19  21
ATOM     21  C   UNL     1      -0.531  11.794  21.917  0.00  0.00    +0.000 A 
ATOM     22  C   UNL     1      -1.552  12.572  22.509  0.00  0.00    +0.000 A 
ATOM     23  C   UNL     1      -1.899  13.831  21.991  0.00  0.00    +0.000 A 
ATOM     24  C   UNL     1      -1.232  14.316  20.879  0.00  0.00    +0.000 A 
ATOM     25  C   UNL     1      -0.211  13.551  20.283  0.00  0.00    +0.000 A 
ATOM     26  C   UNL     1       0.147  12.296  20.785  0.00  0.00    +0.000 A 
ATOM     27  C   UNL     1       0.375  14.294  19.095  0.00  0.00    +0.000 C 
ATOM     28  C   UNL     1      -0.428  15.583  19.097  0.00  0.00    +0.000 A 
ATOM     29  C   UNL     1      -0.317  16.669  18.244  0.00  0.00    +0.000 A 
ATOM     30  C   UNL     1      -1.171  17.757  18.447  0.00  0.00    +0.000 A 
ATOM     31  C   UNL     1      -2.114  17.741  19.491  0.00  0.00    +0.000 A 
ATOM     32  C   UNL     1      -2.216  16.640  20.348  0.00  0.00    +0.000 A 
ATOM     33  C   UNL     1      -1.368  15.564  20.151  0.00  0.00    +0.000 A 
ENDBRANCH  19  21
ENDBRANCH  18  19
ENDBRANCH   1  18
TORSDOF 8
ENDMDL
MODEL 3
REMARK VINA RESULT:      -7.6      3.495     10.882
REMARK  Name = 
REMARK  9 active torsions:
REMARK  status: ('A' for Active; 'I' for Inactive)
REMARK    1  A    between atoms: C_2  and  C_3
REMARK    2  A    between atoms: C_3  and  N_4
REMARK    3  A    between atoms: C_5  and  S_6
REMARK    4  A    between atoms: S_6  and  C_7
REMARK    5  A    between atoms: C_7  and  C_8
REMARK    6  A    between atoms: C_8  and  C_10
REMARK    7  A    between atoms: C_25  and  C_26
REMARK    8  A    between atoms: C_29  and  O_30
REMARK    9  A    between atoms: O_30  and  C_31
REMARK                            x       y       z     vdW  Elec       q    Type
REMARK                         _______ _______ _______ _____ _____    ______ ____
ROOT
ATOM      1  S   UNL     1       1.657   7.559  20.103  0.00  0.00    +0.000 S 
ENDROOT
BRANCH   1   3
ATOM      2  N   UNL     1       0.309   9.830  20.955  0.00  0.00    +0.000 N 
ATOM      3  C   UNL     1       1.120   8.753  21.248  0.00  0.00    +0.000 A 
ATOM      4  N   UNL     1       1.453   8.793  22.515  0.00  0.00    +0.000 NA
ATOM      5  N   UNL     1       0.833   9.885  23.079  0.00  0.00    +0.000 NA
ATOM      6  C   UNL     1       0.092  10.490  22.162  0.00  0.00    +0.000 A 
BRANCH   6   7
ATOM      7  C   UNL     1      -0.781  11.658  22.429  0.00  0.00    +0.000 A 
ATOM      8  C   UNL     1      -1.977  11.492  23.138  0.00  0.00    +0.000 A 
ATOM      9  C   UNL     1      -2.838  12.577  23.368  0.00  0.00    +0.000 A 
ATOM     10  C   UNL     1      -2.522  13.856  22.915  0.00  0.00    +0.000 A 
ATOM     11  C   UNL     1      -1.361  14.037  22.184  0.00  0.00    +0.000 A 
ATOM     12  C   UNL     1      -0.518  12.946  21.937  0.00  0.00    +0.000 A 
BRANCH  10  13
ATOM     13  O   UNL     1      -3.436  14.836  23.184  0.00  0.00    +0.000 OA
ATOM     14  C   UNL     1      -3.538  15.225  24.552  0.00  0.00    +0.000 C 
ENDBRANCH  10  13
ENDBRANCH   6   7
BRANCH   2  15
ATOM     15  C   UNL     1      -0.154  10.270  19.648  0.00  0.00    +0.000 C 
BRANCH  15  17
ATOM     16  C   UNL     1       1.790  10.742  18.124  0.00  0.00    +0.000 C 
ATOM     17  C   UNL     1       0.834  11.172  18.956  0.00  0.00    +0.000 C 
ENDBRANCH  15  17
ENDBRANCH   2  15
ENDBRANCH   1   3
BRANCH   1  18
ATOM     18  C   UNL     1       1.775   6.028  21.117  0.00  0.00    +0.000 C 
BRANCH  18  19
ATOM     19  C   UNL     1       1.638   4.746  20.275  0.00  0.00    +0.000 C 
ATOM     20  O   UNL     1       0.866   3.823  20.561  0.00  0.00    +0.000 OA
BRANCH  19  21
ATOM     21  C   UNL     1       2.498   4.592  19.038  0.00  0.00    +0.000 A 
ATOM     22  C   UNL     1       2.078   3.826  17.927  0.00  0.00    +0.000 A 
ATOM     23  C   UNL     1       2.893   3.684  16.792  0.00  0.00    +0.000 A 
ATOM     24  C   UNL     1       4.131   4.304  16.762  0.00  0.00    +0.000 A 
ATOM     25  C   UNL     1       4.558   5.072  17.862  0.00  0.00    +0.000 A 
ATOM     26  C   UNL     1       3.760   5.223  19.000  0.00  0.00    +0.000 A 
ATOM     27  C   UNL     1       5.934   5.656  17.590  0.00  0.00    +0.000 C 
ATOM     28  C   UNL     1       6.230   5.138  16.194  0.00  0.00    +0.000 A 
ATOM     29  C   UNL     1       7.349   5.367  15.409  0.00  0.00    +0.000 A 
ATOM     30  C   UNL     1       7.395   4.782  14.140  0.00  0.00    +0.000 A 
ATOM     31  C   UNL     1       6.332   3.982  13.683  0.00  0.00    +0.000 A 
ATOM     32  C   UNL     1       5.207   3.757  14.482  0.00  0.00    +0.000 A 
ATOM     33  C   UNL     1       5.157   4.341  15.737  0.00  0.00    +0.000 A 
ENDBRANCH  19  21
ENDBRANCH  18  19
ENDBRANCH   1  18
TORSDOF 8
ENDMDL
MODEL 4
REMARK VINA RESULT:      -7.5      1.665      2.222
REMARK  Name = 
REMARK  9 active torsions:
REMARK  status: ('A' for Active; 'I' for Inactive)
REMARK    1  A    between atoms: C_2  and  C_3
REMARK    2  A    between atoms: C_3  and  N_4
REMARK    3  A    between atoms: C_5  and  S_6
REMARK    4  A    between atoms: S_6  and  C_7
REMARK    5  A    between atoms: C_7  and  C_8
REMARK    6  A    between atoms: C_8  and  C_10
REMARK    7  A    between atoms: C_25  and  C_26
REMARK    8  A    between atoms: C_29  and  O_30
REMARK    9  A    between atoms: O_30  and  C_31
REMARK                            x       y       z     vdW  Elec       q    Type
REMARK                         _______ _______ _______ _____ _____    ______ ____
ROOT
ATOM      1  S   UNL     1       1.008   7.978  21.156  0.00  0.00    +0.000 S 
ENDROOT
BRANCH   1   3
ATOM      2  N   UNL     1       2.716   6.678  19.398  0.00  0.00    +0.000 N 
ATOM      3  C   UNL     1       1.928   7.770  19.695  0.00  0.00    +0.000 A 
ATOM      4  N   UNL     1       2.011   8.643  18.720  0.00  0.00    +0.000 NA
ATOM      5  N   UNL     1       2.835   8.115  17.752  0.00  0.00    +0.000 NA
ATOM      6  C   UNL     1       3.224   6.903  18.121  0.00  0.00    +0.000 A 
BRANCH   6   7
ATOM      7  C   UNL     1       4.056   6.001  17.289  0.00  0.00    +0.000 A 
ATOM      8  C   UNL     1       4.903   6.534  16.309  0.00  0.00    +0.000 A 
ATOM      9  C   UNL     1       5.670   5.697  15.482  0.00  0.00    +0.000 A 
ATOM     10  C   UNL     1       5.627   4.311  15.622  0.00  0.00    +0.000 A 
ATOM     11  C   UNL     1       4.772   3.762  16.562  0.00  0.00    +0.000 A 
ATOM     12  C   UNL     1       3.992   4.601  17.368  0.00  0.00    +0.000 A 
BRANCH  10  13
ATOM     13  O   UNL     1       6.405   3.592  14.759  0.00  0.00    +0.000 OA
ATOM     14  C   UNL     1       6.467   4.090  13.425  0.00  0.00    +0.000 C 
ENDBRANCH  10  13
ENDBRANCH   6   7
BRANCH   2  15
ATOM     15  C   UNL     1       3.052   5.557  20.263  0.00  0.00    +0.000 C 
BRANCH  15  17
ATOM     16  C   UNL     1       0.949   4.202  20.522  0.00  0.00    +0.000 C 
ATOM     17  C   UNL     1       2.180   4.354  20.018  0.00  0.00    +0.000 C 
ENDBRANCH  15  17
ENDBRANCH   2  15
ENDBRANCH   1   3
BRANCH   1  18
ATOM     18  C   UNL     1       1.478   9.668  21.712  0.00  0.00    +0.000 C 
BRANCH  18  19
ATOM     19  C   UNL     1       0.719  10.774  20.956  0.00  0.00    +0.000 C 
ATOM     20  O   UNL     1       1.118  11.272  19.896  0.00  0.00    +0.000 OA
BRANCH  19  21
ATOM     21  C   UNL     1      -0.578  11.296  21.538  0.00  0.00    +0.000 A 
ATOM     22  C   UNL     1      -0.931  11.078  22.889  0.00  0.00    +0.000 A 
ATOM     23  C   UNL     1      -2.143  11.559  23.410  0.00  0.00    +0.000 A 
ATOM     24  C   UNL     1      -3.009  12.257  22.585  0.00  0.00    +0.000 A 
ATOM     25  C   UNL     1      -2.666  12.483  21.238  0.00  0.00    +0.000 A 
ATOM     26  C   UNL     1      -1.463  12.010  20.703  0.00  0.00    +0.000 A 
ATOM     27  C   UNL     1      -3.761  13.275  20.544  0.00  0.00    +0.000 C 
ATOM     28  C   UNL     1      -4.763  13.484  21.666  0.00  0.00    +0.000 A 
ATOM     29  C   UNL     1      -5.967  14.168  21.630  0.00  0.00    +0.000 A 
ATOM     30  C   UNL     1      -6.724  14.233  22.803  0.00  0.00    +0.000 A 
ATOM     31  C   UNL     1      -6.269  13.616  23.983  0.00  0.00    +0.000 A 
ATOM     32  C   UNL     1      -5.051  12.930  24.010  0.00  0.00    +0.000 A 
ATOM     33  C   UNL     1      -4.297  12.870  22.850  0.00  0.00    +0.000 A 
ENDBRANCH  19  21
ENDBRANCH  18  19
ENDBRANCH   1  18
TORSDOF 8
ENDMDL
MODEL 5
REMARK VINA RESULT:      -7.5      3.558     10.674
REMARK  Name = 
REMARK  9 active torsions:
REMARK  status: ('A' for Active; 'I' for Inactive)
REMARK    1  A    between atoms: C_2  and  C_3
REMARK    2  A    between atoms: C_3  and  N_4
REMARK    3  A    between atoms: C_5  and  S_6
REMARK    4  A    between atoms: S_6  and  C_7
REMARK    5  A    between atoms: C_7  and  C_8
REMARK    6  A    between atoms: C_8  and  C_10
REMARK    7  A    between atoms: C_25  and  C_26
REMARK    8  A    between atoms: C_29  and  O_30
REMARK    9  A    between atoms: O_30  and  C_31
REMARK                            x       y       z     vdW  Elec       q    Type
REMARK                         _______ _______ _______ _____ _____    ______ ____
ROOT
ATOM      1  S   UNL     1       1.110  12.430  20.398  0.00  0.00    +0.000 S 
ENDROOT
BRANCH   1   3
ATOM      2  N   UNL     1      -1.396  13.082  21.396  0.00  0.00    +0.000 N 
ATOM      3  C   UNL     1      -0.227  13.475  20.779  0.00  0.00    +0.000 A 
ATOM      4  N   UNL     1      -0.298  14.752  20.491  0.00  0.00    +0.000 NA
ATOM      5  N   UNL     1      -1.509  15.220  20.949  0.00  0.00    +0.000 NA
ATOM      6  C   UNL     1      -2.161  14.235  21.549  0.00  0.00    +0.000 A 
BRANCH   6   7
ATOM      7  C   UNL     1      -3.467  14.391  22.233  0.00  0.00    +0.000 A 
ATOM      8  C   UNL     1      -4.634  13.896  21.638  0.00  0.00    +0.000 A 
ATOM      9  C   UNL     1      -5.887  14.067  22.249  0.00  0.00    +0.000 A 
ATOM     10  C   UNL     1      -6.007  14.717  23.475  0.00  0.00    +0.000 A 
ATOM     11  C   UNL     1      -4.871  15.243  24.065  0.00  0.00    +0.000 A 
ATOM     12  C   UNL     1      -3.627  15.089  23.439  0.00  0.00    +0.000 A 
BRANCH  10  13
ATOM     13  O   UNL     1      -7.274  14.838  23.974  0.00  0.00    +0.000 OA
ATOM     14  C   UNL     1      -7.915  13.616  24.331  0.00  0.00    +0.000 C 
ENDBRANCH  10  13
ENDBRANCH   6   7
BRANCH   2  15
ATOM     15  C   UNL     1      -1.817  11.730  21.734  0.00  0.00    +0.000 C 
BRANCH  15  17
ATOM     16  C   UNL     1      -0.545  10.132  23.202  0.00  0.00    +0.000 C 
ATOM     17  C   UNL     1      -1.252  11.258  23.047  0.00  0.00    +0.000 C 
ENDBRANCH  15  17
ENDBRANCH   2  15
ENDBRANCH   1   3
BRANCH   1  18
ATOM     18  C   UNL     1       0.433  11.348  19.073  0.00  0.00    +0.000 C 
BRANCH  18  19
ATOM     19  C   UNL     1       1.503  10.436  18.446  0.00  0.00    +0.000 C 
ATOM     20  O   UNL     1       2.230  10.782  17.508  0.00  0.00    +0.000 OA
BRANCH  19  21
ATOM     21  C   UNL     1       1.673   9.033  18.992  0.00  0.00    +0.000 A 
ATOM     22  C   UNL     1       1.252   8.682  20.295  0.00  0.00    +0.000 A 
ATOM     23  C   UNL     1       1.428   7.379  20.789  0.00  0.00    +0.000 A 
ATOM     24  C   UNL     1       2.027   6.422  19.987  0.00  0.00    +0.000 A 
ATOM     25  C   UNL     1       2.447   6.760  18.686  0.00  0.00    +0.000 A 
ATOM     26  C   UNL     1       2.280   8.052  18.179  0.00  0.00    +0.000 A 
ATOM     27  C   UNL     1       3.058   5.549  18.002  0.00  0.00    +0.000 C 
ATOM     28  C   UNL     1       2.921   4.477  19.069  0.00  0.00    +0.000 A 
ATOM     29  C   UNL     1       3.291   3.144  19.004  0.00  0.00    +0.000 A 
ATOM     30  C   UNL     1       3.057   2.339  20.123  0.00  0.00    +0.000 A 
ATOM     31  C   UNL     1       2.464   2.877  21.280  0.00  0.00    +0.000 A 
ATOM     32  C   UNL     1       2.092   4.224  21.335  0.00  0.00    +0.000 A 
ATOM     33  C   UNL     1       2.318   5.022  20.225  0.00  0.00    +0.000 A 
ENDBRANCH  19  21
ENDBRANCH  18  19
ENDBRANCH   1  18
TORSDOF 8
ENDMDL
MODEL 6
REMARK VINA RESULT:      -7.5      2.844      4.003
REMARK  Name = 
REMARK  9 active torsions:
REMARK  status: ('A' for Active; 'I' for Inactive)
REMARK    1  A    between atoms: C_2  and  C_3
REMARK    2  A    between atoms: C_3  and  N_4
REMARK    3  A    between atoms: C_5  and  S_6
REMARK    4  A    between atoms: S_6  and  C_7
REMARK    5  A    between atoms: C_7  and  C_8
REMARK    6  A    between atoms: C_8  and  C_10
REMARK    7  A    between atoms: C_25  and  C_26
REMARK    8  A    between atoms: C_29  and  O_30
REMARK    9  A    between atoms: O_30  and  C_31
REMARK                            x       y       z     vdW  Elec       q    Type
REMARK                         _______ _______ _______ _____ _____    ______ ____
ROOT
ATOM      1  S   UNL     1       0.838   7.830  21.432  0.00  0.00    +0.000 S 
ENDROOT
BRANCH   1   3
ATOM      2  N   UNL     1       2.570   6.678  19.594  0.00  0.00    +0.000 N 
ATOM      3  C   UNL     1       1.781   7.744  19.972  0.00  0.00    +0.000 A 
ATOM      4  N   UNL     1       1.882   8.697  19.077  0.00  0.00    +0.000 NA
ATOM      5  N   UNL     1       2.719   8.250  18.080  0.00  0.00    +0.000 NA
ATOM      6  C   UNL     1       3.098   7.009  18.350  0.00  0.00    +0.000 A 
BRANCH   6   7
ATOM      7  C   UNL     1       3.940   6.179  17.455  0.00  0.00    +0.000 A 
ATOM      8  C   UNL     1       3.653   4.819  17.286  0.00  0.00    +0.000 A 
ATOM      9  C   UNL     1       4.460   4.004  16.475  0.00  0.00    +0.000 A 
ATOM     10  C   UNL     1       5.560   4.526  15.798  0.00  0.00    +0.000 A 
ATOM     11  C   UNL     1       5.882   5.860  15.977  0.00  0.00    +0.000 A 
ATOM     12  C   UNL     1       5.086   6.662  16.806  0.00  0.00    +0.000 A 
BRANCH  10  13
ATOM     13  O   UNL     1       6.282   3.643  15.046  0.00  0.00    +0.000 OA
ATOM     14  C   UNL     1       6.149   3.783  13.634  0.00  0.00    +0.000 C 
ENDBRANCH  10  13
ENDBRANCH   6   7
BRANCH   2  15
ATOM     15  C   UNL     1       2.888   5.485  20.365  0.00  0.00    +0.000 C 
BRANCH  15  17
ATOM     16  C   UNL     1       1.469   3.600  21.236  0.00  0.00    +0.000 C 
ATOM     17  C   UNL     1       1.835   4.416  20.240  0.00  0.00    +0.000 C 
ENDBRANCH  15  17
ENDBRANCH   2  15
ENDBRANCH   1   3
BRANCH   1  18
ATOM     18  C   UNL     1      -0.338   9.203  21.092  0.00  0.00    +0.000 C 
BRANCH  18  19
ATOM     19  C   UNL     1      -0.033  10.466  21.918  0.00  0.00    +0.000 C 
ATOM     20  O   UNL     1       0.027  10.473  23.154  0.00  0.00    +0.000 OA
BRANCH  19  21
ATOM     21  C   UNL     1       0.196  11.774  21.191  0.00  0.00    +0.000 A 
ATOM     22  C   UNL     1       1.427  12.076  20.565  0.00  0.00    +0.000 A 
ATOM     23  C   UNL     1       1.625  13.299  19.905  0.00  0.00    +0.000 A 
ATOM     24  C   UNL     1       0.598  14.227  19.868  0.00  0.00    +0.000 A 
ATOM     25  C   UNL     1      -0.633  13.936  20.485  0.00  0.00    +0.000 A 
ATOM     26  C   UNL     1      -0.848  12.723  21.148  0.00  0.00    +0.000 A 
ATOM     27  C   UNL     1      -1.598  15.095  20.301  0.00  0.00    +0.000 C 
ATOM     28  C   UNL     1      -0.769  16.075  19.490  0.00  0.00    +0.000 A 
ATOM     29  C   UNL     1      -1.137  17.318  19.002  0.00  0.00    +0.000 A 
ATOM     30  C   UNL     1      -0.194  18.044  18.269  0.00  0.00    +0.000 A 
ATOM     31  C   UNL     1       1.091  17.521  18.040  0.00  0.00    +0.000 A 
ATOM     32  C   UNL     1       1.453  16.264  18.536  0.00  0.00    +0.000 A 
ATOM     33  C   UNL     1       0.518  15.541  19.258  0.00  0.00    +0.000 A 
ENDBRANCH  19  21
ENDBRANCH  18  19
ENDBRANCH   1  18
TORSDOF 8
ENDMDL
MODEL 7
REMARK VINA RESULT:      -7.5      2.591      3.386
REMARK  Name = 
REMARK  9 active torsions:
REMARK  status: ('A' for Active; 'I' for Inactive)
REMARK    1  A    between atoms: C_2  and  C_3
REMARK    2  A    between atoms: C_3  and  N_4
REMARK    3  A    between atoms: C_5  and  S_6
REMARK    4  A    between atoms: S_6  and  C_7
REMARK    5  A    between atoms: C_7  and  C_8
REMARK    6  A    between atoms: C_8  and  C_10
REMARK    7  A    between atoms: C_25  and  C_26
REMARK    8  A    between atoms: C_29  and  O_30
REMARK    9  A    between atoms: O_30  and  C_31
REMARK                            x       y       z     vdW  Elec       q    Type
REMARK                         _______ _______ _______ _____ _____    ______ ____
ROOT
ATOM      1  S   UNL     1       0.297  10.891  19.075  0.00  0.00    +0.000 S 
ENDROOT
BRANCH   1   3
ATOM      2  N   UNL     1       1.489   8.387  19.175  0.00  0.00    +0.000 N 
ATOM      3  C   UNL     1       1.337   9.603  18.542  0.00  0.00    +0.000 A 
ATOM      4  N   UNL     1       2.126   9.648  17.496  0.00  0.00    +0.000 NA
ATOM      5  N   UNL     1       2.785   8.442  17.414  0.00  0.00    +0.000 NA
ATOM      6  C   UNL     1       2.369   7.648  18.389  0.00  0.00    +0.000 A 
BRANCH   6   7
ATOM      7  C   UNL     1       2.803   6.242  18.566  0.00  0.00    +0.000 A 
ATOM      8  C   UNL     1       4.014   5.957  19.208  0.00  0.00    +0.000 A 
ATOM      9  C   UNL     1       4.464   4.634  19.351  0.00  0.00    +0.000 A 
ATOM     10  C   UNL     1       3.711   3.562  18.876  0.00  0.00    +0.000 A 
ATOM     11  C   UNL     1       2.527   3.822  18.209  0.00  0.00    +0.000 A 
ATOM     12  C   UNL     1       2.095   5.145  18.049  0.00  0.00    +0.000 A 
BRANCH  10  13
ATOM     13  O   UNL     1       4.248   2.318  19.059  0.00  0.00    +0.000 OA
ATOM     14  C   UNL     1       4.548   1.969  20.408  0.00  0.00    +0.000 C 
ENDBRANCH  10  13
ENDBRANCH   6   7
BRANCH   2  15
ATOM     15  C   UNL     1       0.939   7.974  20.458  0.00  0.00    +0.000 C 
BRANCH  15  17
ATOM     16  C   UNL     1       0.662   9.305  22.573  0.00  0.00    +0.000 C 
ATOM     17  C   UNL     1       1.441   8.815  21.602  0.00  0.00    +0.000 C 
ENDBRANCH  15  17
ENDBRANCH   2  15
ENDBRANCH   1   3
BRANCH   1  18
ATOM     18  C   UNL     1       1.415  12.352  19.094  0.00  0.00    +0.000 C 
BRANCH  18  19
ATOM     19  C   UNL     1       0.791  13.570  19.799  0.00  0.00    +0.000 C 
ATOM     20  O   UNL     1       1.195  14.728  19.645  0.00  0.00    +0.000 OA
BRANCH  19  21
ATOM     21  C   UNL     1      -0.373  13.346  20.743  0.00  0.00    +0.000 A 
ATOM     22  C   UNL     1      -0.181  12.934  22.081  0.00  0.00    +0.000 A 
ATOM     23  C   UNL     1      -1.272  12.721  22.940  0.00  0.00    +0.000 A 
ATOM     24  C   UNL     1      -2.558  12.915  22.466  0.00  0.00    +0.000 A 
ATOM     25  C   UNL     1      -2.761  13.329  21.135  0.00  0.00    +0.000 A 
ATOM     26  C   UNL     1      -1.687  13.545  20.267  0.00  0.00    +0.000 A 
ATOM     27  C   UNL     1      -4.246  13.485  20.856  0.00  0.00    +0.000 C 
ATOM     28  C   UNL     1      -4.862  13.123  22.196  0.00  0.00    +0.000 A 
ATOM     29  C   UNL     1      -6.201  13.107  22.553  0.00  0.00    +0.000 A 
ATOM     30  C   UNL     1      -6.530  12.742  23.862  0.00  0.00    +0.000 A 
ATOM     31  C   UNL     1      -5.524  12.399  24.783  0.00  0.00    +0.000 A 
ATOM     32  C   UNL     1      -4.175  12.420  24.413  0.00  0.00    +0.000 A 
ATOM     33  C   UNL     1      -3.847  12.787  23.119  0.00  0.00    +0.000 A 
ENDBRANCH  19  21
ENDBRANCH  18  19
ENDBRANCH   1  18
TORSDOF 8
ENDMDL
MODEL 8
REMARK VINA RESULT:      -7.4      3.226     10.753
REMARK  Name = 
REMARK  9 active torsions:
REMARK  status: ('A' for Active; 'I' for Inactive)
REMARK    1  A    between atoms: C_2  and  C_3
REMARK    2  A    between atoms: C_3  and  N_4
REMARK    3  A    between atoms: C_5  and  S_6
REMARK    4  A    between atoms: S_6  and  C_7
REMARK    5  A    between atoms: C_7  and  C_8
REMARK    6  A    between atoms: C_8  and  C_10
REMARK    7  A    between atoms: C_25  and  C_26
REMARK    8  A    between atoms: C_29  and  O_30
REMARK    9  A    between atoms: O_30  and  C_31
REMARK                            x       y       z     vdW  Elec       q    Type
REMARK                         _______ _______ _______ _____ _____    ______ ____
ROOT
ATOM      1  S   UNL     1       0.740  12.365  19.233  0.00  0.00    +0.000 S 
ENDROOT
BRANCH   1   3
ATOM      2  N   UNL     1      -1.568  12.730  20.729  0.00  0.00    +0.000 N 
ATOM      3  C   UNL     1      -0.193  12.637  20.676  0.00  0.00    +0.000 A 
ATOM      4  N   UNL     1       0.301  12.822  21.876  0.00  0.00    +0.000 NA
ATOM      5  N   UNL     1      -0.754  13.009  22.741  0.00  0.00    +0.000 NA
ATOM      6  C   UNL     1      -1.893  12.899  22.072  0.00  0.00    +0.000 A 
BRANCH   6   7
ATOM      7  C   UNL     1      -3.237  12.963  22.694  0.00  0.00    +0.000 A 
ATOM      8  C   UNL     1      -4.225  13.790  22.146  0.00  0.00    +0.000 A 
ATOM      9  C   UNL     1      -5.493  13.896  22.742  0.00  0.00    +0.000 A 
ATOM     10  C   UNL     1      -5.814  13.168  23.885  0.00  0.00    +0.000 A 
ATOM     11  C   UNL     1      -4.843  12.370  24.463  0.00  0.00    +0.000 A 
ATOM     12  C   UNL     1      -3.573  12.286  23.877  0.00  0.00    +0.000 A 
BRANCH  10  13
ATOM     13  O   UNL     1      -7.072  13.355  24.388  0.00  0.00    +0.000 OA
ATOM     14  C   UNL     1      -7.755  14.516  23.921  0.00  0.00    +0.000 C 
ENDBRANCH  10  13
ENDBRANCH   6   7
BRANCH   2  15
ATOM     15  C   UNL     1      -2.506  12.757  19.616  0.00  0.00    +0.000 C 
BRANCH  15  17
ATOM     16  C   UNL     1      -2.768  10.962  17.874  0.00  0.00    +0.000 C 
ATOM     17  C   UNL     1      -2.882  11.378  19.141  0.00  0.00    +0.000 C 
ENDBRANCH  15  17
ENDBRANCH   2  15
ENDBRANCH   1   3
BRANCH   1  18
ATOM     18  C   UNL     1       0.648  10.541  19.011  0.00  0.00    +0.000 C 
BRANCH  18  19
ATOM     19  C   UNL     1       1.831   9.981  18.201  0.00  0.00    +0.000 C 
ATOM     20  O   UNL     1       2.424  10.624  17.327  0.00  0.00    +0.000 OA
BRANCH  19  21
ATOM     21  C   UNL     1       2.293   8.564  18.472  0.00  0.00    +0.000 A 
ATOM     22  C   UNL     1       3.279   7.935  17.677  0.00  0.00    +0.000 A 
ATOM     23  C   UNL     1       3.687   6.616  17.935  0.00  0.00    +0.000 A 
ATOM     24  C   UNL     1       3.112   5.919  18.985  0.00  0.00    +0.000 A 
ATOM     25  C   UNL     1       2.133   6.537  19.785  0.00  0.00    +0.000 A 
ATOM     26  C   UNL     1       1.713   7.849  19.542  0.00  0.00    +0.000 A 
ATOM     27  C   UNL     1       1.665   5.584  20.871  0.00  0.00    +0.000 C 
ATOM     28  C   UNL     1       2.511   4.352  20.600  0.00  0.00    +0.000 A 
ATOM     29  C   UNL     1       2.535   3.153  21.294  0.00  0.00    +0.000 A 
ATOM     30  C   UNL     1       3.411   2.155  20.855  0.00  0.00    +0.000 A 
ATOM     31  C   UNL     1       4.239   2.370  19.739  0.00  0.00    +0.000 A 
ATOM     32  C   UNL     1       4.208   3.585  19.046  0.00  0.00    +0.000 A 
ATOM     33  C   UNL     1       3.345   4.576  19.482  0.00  0.00    +0.000 A 
ENDBRANCH  19  21
ENDBRANCH  18  19
ENDBRANCH   1  18
TORSDOF 8
ENDMDL
MODEL 9
REMARK VINA RESULT:      -7.3      1.504      2.567
REMARK  Name = 
REMARK  9 active torsions:
REMARK  status: ('A' for Active; 'I' for Inactive)
REMARK    1  A    between atoms: C_2  and  C_3
REMARK    2  A    between atoms: C_3  and  N_4
REMARK    3  A    between atoms: C_5  and  S_6
REMARK    4  A    between atoms: S_6  and  C_7
REMARK    5  A    between atoms: C_7  and  C_8
REMARK    6  A    between atoms: C_8  and  C_10
REMARK    7  A    between atoms: C_25  and  C_26
REMARK    8  A    between atoms: C_29  and  O_30
REMARK    9  A    between atoms: O_30  and  C_31
REMARK                            x       y       z     vdW  Elec       q    Type
REMARK                         _______ _______ _______ _____ _____    ______ ____
ROOT
ATOM      1  S   UNL     1       0.356   8.323  21.130  0.00  0.00    +0.000 S 
ENDROOT
BRANCH   1   3
ATOM      2  N   UNL     1       2.309   7.130  19.560  0.00  0.00    +0.000 N 
ATOM      3  C   UNL     1       1.412   8.159  19.757  0.00  0.00    +0.000 A 
ATOM      4  N   UNL     1       1.506   9.012  18.766  0.00  0.00    +0.000 NA
ATOM      5  N   UNL     1       2.451   8.533  17.887  0.00  0.00    +0.000 NA
ATOM      6  C   UNL     1       2.904   7.367  18.324  0.00  0.00    +0.000 A 
BRANCH   6   7
ATOM      7  C   UNL     1       3.875   6.519  17.592  0.00  0.00    +0.000 A 
ATOM      8  C   UNL     1       3.542   5.200  17.258  0.00  0.00    +0.000 A 
ATOM      9  C   UNL     1       4.460   4.366  16.600  0.00  0.00    +0.000 A 
ATOM     10  C   UNL     1       5.724   4.829  16.240  0.00  0.00    +0.000 A 
ATOM     11  C   UNL     1       6.086   6.119  16.589  0.00  0.00    +0.000 A 
ATOM     12  C   UNL     1       5.173   6.938  17.266  0.00  0.00    +0.000 A 
BRANCH  10  13
ATOM     13  O   UNL     1       6.542   3.931  15.613  0.00  0.00    +0.000 OA
ATOM     14  C   UNL     1       6.324   3.772  14.213  0.00  0.00    +0.000 C 
ENDBRANCH  10  13
ENDBRANCH   6   7
BRANCH   2  15
ATOM     15  C   UNL     1       2.659   6.062  20.484  0.00  0.00    +0.000 C 
BRANCH  15  17
ATOM     16  C   UNL     1       0.882   4.285  20.388  0.00  0.00    +0.000 C 
ATOM     17  C   UNL     1       2.103   4.727  20.065  0.00  0.00    +0.000 C 
ENDBRANCH  15  17
ENDBRANCH   2  15
ENDBRANCH   1   3
BRANCH   1  18
ATOM     18  C   UNL     1       1.003   9.820  21.981  0.00  0.00    +0.000 C 
BRANCH  18  19
ATOM     19  C   UNL     1       0.633  11.125  21.252  0.00  0.00    +0.000 C 
ATOM     20  O   UNL     1       1.439  11.787  20.589  0.00  0.00    +0.000 OA
BRANCH  19  21
ATOM     21  C   UNL     1      -0.787  11.640  21.358  0.00  0.00    +0.000 A 
ATOM     22  C   UNL     1      -1.517  12.059  20.222  0.00  0.00    +0.000 A 
ATOM     23  C   UNL     1      -2.829  12.544  20.339  0.00  0.00    +0.000 A 
ATOM     24  C   UNL     1      -3.419  12.616  21.591  0.00  0.00    +0.000 A 
ATOM     25  C   UNL     1      -2.703  12.198  22.729  0.00  0.00    +0.000 A 
ATOM     26  C   UNL     1      -1.395  11.714  22.630  0.00  0.00    +0.000 A 
ATOM     27  C   UNL     1      -3.558  12.361  23.974  0.00  0.00    +0.000 C 
ATOM     28  C   UNL     1      -4.853  12.908  23.402  0.00  0.00    +0.000 A 
ATOM     29  C   UNL     1      -6.022  13.233  24.072  0.00  0.00    +0.000 A 
ATOM     30  C   UNL     1      -7.097  13.720  23.323  0.00  0.00    +0.000 A 
ATOM     31  C   UNL     1      -6.987  13.874  21.930  0.00  0.00    +0.000 A 
ATOM     32  C   UNL     1      -5.804  13.541  21.262  0.00  0.00    +0.000 A 
ATOM     33  C   UNL     1      -4.739  13.054  22.002  0.00  0.00    +0.000 A 
ENDBRANCH  19  21
ENDBRANCH  18  19
ENDBRANCH   1  18
TORSDOF 8
ENDMDL
