MODEL 1
REMARK VINA RESULT:      -7.0      0.000      0.000
REMARK  Name = 
REMARK  6 active torsions:
REMARK  status: ('A' for Active; 'I' for Inactive)
REMARK    1  A    between atoms: C_1  and  C_2
REMARK    2  A    between atoms: C_2  and  N_3
REMARK    3  A    between atoms: N_6  and  C_7
REMARK    4  A    between atoms: C_11  and  C_12
REMARK    5  A    between atoms: C_12  and  C_14
REMARK    6  A    between atoms: C_24  and  C_25
REMARK                            x       y       z     vdW  Elec       q    Type
REMARK                         _______ _______ _______ _____ _____    ______ ____
ROOT
ATOM      1  C   UNL     1       2.998   7.411  17.821  0.00  0.00    +0.000 A 
ATOM      2  S   UNL     1       2.489   9.011  17.582  0.00  0.00    +0.000 S 
ATOM      3  C   UNL     1       1.585   8.984  19.019  0.00  0.00    +0.000 A 
ATOM      4  C   UNL     1       1.758   7.808  19.732  0.00  0.00    +0.000 A 
ATOM      5  C   UNL     1       2.658   6.886  19.060  0.00  0.00    +0.000 A 
ATOM      6  C   UNL     1       1.088   7.641  21.075  0.00  0.00    +0.000 C 
ATOM      7  C   UNL     1      -0.096   8.618  21.204  0.00  0.00    +0.000 C 
ATOM      8  N   UNL     1       0.306   9.986  20.818  0.00  0.00    +0.000 N 
ATOM      9  C   UNL     1       0.284  10.977  21.777  0.00  0.00    +0.000 C 
ATOM     10  C   UNL     1       0.642  12.397  21.408  0.00  0.00    +0.000 C 
ATOM     11  O   UNL     1      -0.015  10.743  22.952  0.00  0.00    +0.000 OA
ATOM     12  C   UNL     1       0.709  10.141  19.414  0.00  0.00    +0.000 C 
ENDROOT
BRANCH   1  16
ATOM     13  N   UNL     1       5.626   6.276  15.696  0.00  0.00    +0.000 N 
ATOM     14  C   UNL     1       5.073   6.742  16.874  0.00  0.00    +0.000 C 
ATOM     15  O   UNL     1       5.720   6.949  17.886  0.00  0.00    +0.000 OA
ATOM     16  N   UNL     1       3.706   6.904  16.747  0.00  0.00    +0.000 N 
ATOM     17  H   UNL     1       5.268   6.748  14.876  0.00  0.00    +0.000 HD
ATOM     18  H   UNL     1       3.258   6.149  16.245  0.00  0.00    +0.000 HD
BRANCH  13  20
ATOM     19  C   UNL     1       7.300   4.516  16.104  0.00  0.00    +0.000 C 
ATOM     20  C   UNL     1       7.039   5.952  15.703  0.00  0.00    +0.000 C 
ENDBRANCH  13  20
ENDBRANCH   1  16
BRANCH   5  21
ATOM     21  C   UNL     1       3.146   5.612  19.627  0.00  0.00    +0.000 C 
ATOM     22  O   UNL     1       4.254   5.523  20.148  0.00  0.00    +0.000 OA
BRANCH  21  23
ATOM     23  C   UNL     1       2.359   4.358  19.412  0.00  0.00    +0.000 A 
ATOM     24  C   UNL     1       1.213   4.128  20.198  0.00  0.00    +0.000 A 
ATOM     25  C   UNL     1       0.459   2.962  20.051  0.00  0.00    +0.000 A 
ATOM     26  C   UNL     1       0.804   2.035  19.075  0.00  0.00    +0.000 A 
ATOM     27  C   UNL     1       1.915   2.266  18.262  0.00  0.00    +0.000 A 
ATOM     28  C   UNL     1       2.702   3.416  18.431  0.00  0.00    +0.000 A 
ATOM     29 CL   UNL     1       4.097   3.552  17.422  0.00  0.00    +0.000 Cl
ENDBRANCH  21  23
ENDBRANCH   5  21
TORSDOF 4
ENDMDL
MODEL 2
REMARK VINA RESULT:      -6.9      6.846      9.372
REMARK  Name = 
REMARK  6 active torsions:
REMARK  status: ('A' for Active; 'I' for Inactive)
REMARK    1  A    between atoms: C_1  and  C_2
REMARK    2  A    between atoms: C_2  and  N_3
REMARK    3  A    between atoms: N_6  and  C_7
REMARK    4  A    between atoms: C_11  and  C_12
REMARK    5  A    between atoms: C_12  and  C_14
REMARK    6  A    between atoms: C_24  and  C_25
REMARK                            x       y       z     vdW  Elec       q    Type
REMARK                         _______ _______ _______ _____ _____    ______ ____
ROOT
ATOM      1  C   UNL     1      -3.680  10.355  16.886  0.00  0.00    +0.000 A 
ATOM      2  S   UNL     1      -2.126   9.729  17.151  0.00  0.00    +0.000 S 
ATOM      3  C   UNL     1      -1.841  10.845  18.399  0.00  0.00    +0.000 A 
ATOM      4  C   UNL     1      -2.959  11.613  18.688  0.00  0.00    +0.000 A 
ATOM      5  C   UNL     1      -4.088  11.280  17.837  0.00  0.00    +0.000 A 
ATOM      6  C   UNL     1      -2.910  12.606  19.824  0.00  0.00    +0.000 C 
ATOM      7  C   UNL     1      -1.449  12.963  20.158  0.00  0.00    +0.000 C 
ATOM      8  N   UNL     1      -0.628  11.744  20.295  0.00  0.00    +0.000 N 
ATOM      9  C   UNL     1      -0.073  11.455  21.525  0.00  0.00    +0.000 C 
ATOM     10  C   UNL     1       0.812  10.243  21.692  0.00  0.00    +0.000 C 
ATOM     11  O   UNL     1      -0.282  12.160  22.518  0.00  0.00    +0.000 OA
ATOM     12  C   UNL     1      -0.499  10.941  19.072  0.00  0.00    +0.000 C 
ENDROOT
BRANCH   1  16
ATOM     13  N   UNL     1      -4.626   9.591  13.536  0.00  0.00    +0.000 N 
ATOM     14  C   UNL     1      -3.867  10.190  14.523  0.00  0.00    +0.000 C 
ATOM     15  O   UNL     1      -2.928  10.933  14.293  0.00  0.00    +0.000 OA
ATOM     16  N   UNL     1      -4.301   9.808  15.779  0.00  0.00    +0.000 N 
ATOM     17  H   UNL     1      -5.618   9.609  13.732  0.00  0.00    +0.000 HD
ATOM     18  H   UNL     1      -4.523   8.824  15.843  0.00  0.00    +0.000 HD
BRANCH  13  20
ATOM     19  C   UNL     1      -5.387   9.699  11.195  0.00  0.00    +0.000 C 
ATOM     20  C   UNL     1      -4.225   9.807  12.160  0.00  0.00    +0.000 C 
ENDBRANCH  13  20
ENDBRANCH   1  16
BRANCH   5  21
ATOM     21  C   UNL     1      -5.453  11.826  17.988  0.00  0.00    +0.000 C 
ATOM     22  O   UNL     1      -5.855  12.754  17.293  0.00  0.00    +0.000 OA
BRANCH  21  23
ATOM     23  C   UNL     1      -6.311  11.366  19.125  0.00  0.00    +0.000 A 
ATOM     24  C   UNL     1      -6.737  10.023  19.159  0.00  0.00    +0.000 A 
ATOM     25  C   UNL     1      -7.558   9.552  20.186  0.00  0.00    +0.000 A 
ATOM     26  C   UNL     1      -7.916  10.400  21.227  0.00  0.00    +0.000 A 
ATOM     27  C   UNL     1      -7.470  11.722  21.228  0.00  0.00    +0.000 A 
ATOM     28  C   UNL     1      -6.680  12.215  20.178  0.00  0.00    +0.000 A 
ATOM     29 CL   UNL     1      -6.258  13.889  20.249  0.00  0.00    +0.000 Cl
ENDBRANCH  21  23
ENDBRANCH   5  21
TORSDOF 4
ENDMDL
MODEL 3
REMARK VINA RESULT:      -6.9      6.818      9.546
REMARK  Name = 
REMARK  6 active torsions:
REMARK  status: ('A' for Active; 'I' for Inactive)
REMARK    1  A    between atoms: C_1  and  C_2
REMARK    2  A    between atoms: C_2  and  N_3
REMARK    3  A    between atoms: N_6  and  C_7
REMARK    4  A    between atoms: C_11  and  C_12
REMARK    5  A    between atoms: C_12  and  C_14
REMARK    6  A    between atoms: C_24  and  C_25
REMARK                            x       y       z     vdW  Elec       q    Type
REMARK                         _______ _______ _______ _____ _____    ______ ____
ROOT
ATOM      1  C   UNL     1      -3.873  10.632  17.123  0.00  0.00    +0.000 A 
ATOM      2  S   UNL     1      -2.422   9.824  17.467  0.00  0.00    +0.000 S 
ATOM      3  C   UNL     1      -2.076  10.893  18.739  0.00  0.00    +0.000 A 
ATOM      4  C   UNL     1      -3.108  11.789  18.974  0.00  0.00    +0.000 A 
ATOM      5  C   UNL     1      -4.220  11.596  18.059  0.00  0.00    +0.000 A 
ATOM      6  C   UNL     1      -3.005  12.765  20.121  0.00  0.00    +0.000 C 
ATOM      7  C   UNL     1      -1.532  12.944  20.537  0.00  0.00    +0.000 C 
ATOM      8  N   UNL     1      -0.872  11.634  20.707  0.00  0.00    +0.000 N 
ATOM      9  C   UNL     1      -0.424  11.278  21.963  0.00  0.00    +0.000 C 
ATOM     10  C   UNL     1       0.300   9.968  22.166  0.00  0.00    +0.000 C 
ATOM     11  O   UNL     1      -0.602  12.000  22.950  0.00  0.00    +0.000 OA
ATOM     12  C   UNL     1      -0.772  10.826  19.485  0.00  0.00    +0.000 C 
ENDROOT
BRANCH   1  16
ATOM     13  N   UNL     1      -4.625   9.857  13.726  0.00  0.00    +0.000 N 
ATOM     14  C   UNL     1      -3.847  10.330  14.766  0.00  0.00    +0.000 C 
ATOM     15  O   UNL     1      -2.733  10.800  14.614  0.00  0.00    +0.000 OA
ATOM     16  N   UNL     1      -4.492  10.166  15.979  0.00  0.00    +0.000 N 
ATOM     17  H   UNL     1      -5.596  10.132  13.800  0.00  0.00    +0.000 HD
ATOM     18  H   UNL     1      -4.960   9.274  16.066  0.00  0.00    +0.000 HD
BRANCH  13  20
ATOM     19  C   UNL     1      -5.054   9.535  11.322  0.00  0.00    +0.000 C 
ATOM     20  C   UNL     1      -4.041   9.859  12.400  0.00  0.00    +0.000 C 
ENDBRANCH  13  20
ENDBRANCH   1  16
BRANCH   5  21
ATOM     21  C   UNL     1      -5.517  12.300  18.141  0.00  0.00    +0.000 C 
ATOM     22  O   UNL     1      -5.922  13.009  17.225  0.00  0.00    +0.000 OA
BRANCH  21  23
ATOM     23  C   UNL     1      -6.279  12.299  19.429  0.00  0.00    +0.000 A 
ATOM     24  C   UNL     1      -6.386  13.500  20.159  0.00  0.00    +0.000 A 
ATOM     25  C   UNL     1      -7.066  13.546  21.378  0.00  0.00    +0.000 A 
ATOM     26  C   UNL     1      -7.700  12.405  21.857  0.00  0.00    +0.000 A 
ATOM     27  C   UNL     1      -7.636  11.218  21.127  0.00  0.00    +0.000 A 
ATOM     28  C   UNL     1      -6.919  11.153  19.922  0.00  0.00    +0.000 A 
ATOM     29 CL   UNL     1      -6.843   9.610  19.151  0.00  0.00    +0.000 Cl
ENDBRANCH  21  23
ENDBRANCH   5  21
TORSDOF 4
ENDMDL
MODEL 4
REMARK VINA RESULT:      -6.8      1.113      1.179
REMARK  Name = 
REMARK  6 active torsions:
REMARK  status: ('A' for Active; 'I' for Inactive)
REMARK    1  A    between atoms: C_1  and  C_2
REMARK    2  A    between atoms: C_2  and  N_3
REMARK    3  A    between atoms: N_6  and  C_7
REMARK    4  A    between atoms: C_11  and  C_12
REMARK    5  A    between atoms: C_12  and  C_14
REMARK    6  A    between atoms: C_24  and  C_25
REMARK                            x       y       z     vdW  Elec       q    Type
REMARK                         _______ _______ _______ _____ _____    ______ ____
ROOT
ATOM      1  C   UNL     1       2.822   6.705  18.193  0.00  0.00    +0.000 A 
ATOM      2  S   UNL     1       2.803   8.284  17.574  0.00  0.00    +0.000 S 
ATOM      3  C   UNL     1       1.813   8.818  18.846  0.00  0.00    +0.000 A 
ATOM      4  C   UNL     1       1.590   7.831  19.794  0.00  0.00    +0.000 A 
ATOM      5  C   UNL     1       2.248   6.582  19.451  0.00  0.00    +0.000 A 
ATOM      6  C   UNL     1       0.793   8.153  21.035  0.00  0.00    +0.000 C 
ATOM      7  C   UNL     1      -0.077   9.403  20.801  0.00  0.00    +0.000 C 
ATOM      8  N   UNL     1       0.723  10.496  20.213  0.00  0.00    +0.000 N 
ATOM      9  C   UNL     1       0.901  11.652  20.946  0.00  0.00    +0.000 C 
ATOM     10  C   UNL     1       1.672  12.810  20.358  0.00  0.00    +0.000 C 
ATOM     11  O   UNL     1       0.453  11.777  22.090  0.00  0.00    +0.000 OA
ATOM     12  C   UNL     1       1.267  10.219  18.877  0.00  0.00    +0.000 C 
ENDROOT
BRANCH   1  16
ATOM     13  N   UNL     1       5.263   4.949  16.279  0.00  0.00    +0.000 N 
ATOM     14  C   UNL     1       4.815   5.887  17.189  0.00  0.00    +0.000 C 
ATOM     15  O   UNL     1       5.552   6.658  17.779  0.00  0.00    +0.000 OA
ATOM     16  N   UNL     1       3.444   5.803  17.351  0.00  0.00    +0.000 N 
ATOM     17  H   UNL     1       4.681   4.888  15.454  0.00  0.00    +0.000 HD
ATOM     18  H   UNL     1       3.105   4.852  17.401  0.00  0.00    +0.000 HD
BRANCH  13  20
ATOM     19  C   UNL     1       7.079   4.852  14.617  0.00  0.00    +0.000 C 
ATOM     20  C   UNL     1       6.695   4.839  16.081  0.00  0.00    +0.000 C 
ENDBRANCH  13  20
ENDBRANCH   1  16
BRANCH   5  21
ATOM     21  C   UNL     1       2.311   5.390  20.321  0.00  0.00    +0.000 C 
ATOM     22  O   UNL     1       2.650   5.471  21.498  0.00  0.00    +0.000 OA
BRANCH  21  23
ATOM     23  C   UNL     1       2.134   4.029  19.725  0.00  0.00    +0.000 A 
ATOM     24  C   UNL     1       0.831   3.563  19.460  0.00  0.00    +0.000 A 
ATOM     25  C   UNL     1       0.612   2.292  18.927  0.00  0.00    +0.000 A 
ATOM     26  C   UNL     1       1.696   1.489  18.592  0.00  0.00    +0.000 A 
ATOM     27  C   UNL     1       2.994   1.950  18.811  0.00  0.00    +0.000 A 
ATOM     28  C   UNL     1       3.222   3.210  19.387  0.00  0.00    +0.000 A 
ATOM     29 CL   UNL     1       4.868   3.637  19.685  0.00  0.00    +0.000 Cl
ENDBRANCH  21  23
ENDBRANCH   5  21
TORSDOF 4
ENDMDL
MODEL 5
REMARK VINA RESULT:      -6.7      4.340      7.376
REMARK  Name = 
REMARK  6 active torsions:
REMARK  status: ('A' for Active; 'I' for Inactive)
REMARK    1  A    between atoms: C_1  and  C_2
REMARK    2  A    between atoms: C_2  and  N_3
REMARK    3  A    between atoms: N_6  and  C_7
REMARK    4  A    between atoms: C_11  and  C_12
REMARK    5  A    between atoms: C_12  and  C_14
REMARK    6  A    between atoms: C_24  and  C_25
REMARK                            x       y       z     vdW  Elec       q    Type
REMARK                         _______ _______ _______ _____ _____    ______ ____
ROOT
ATOM      1  C   UNL     1      -0.488  11.065  21.637  0.00  0.00    +0.000 A 
ATOM      2  S   UNL     1      -1.255  10.908  23.142  0.00  0.00    +0.000 S 
ATOM      3  C   UNL     1      -2.332  12.168  22.774  0.00  0.00    +0.000 A 
ATOM      4  C   UNL     1      -2.183  12.630  21.475  0.00  0.00    +0.000 A 
ATOM      5  C   UNL     1      -1.130  11.928  20.761  0.00  0.00    +0.000 A 
ATOM      6  C   UNL     1      -3.111  13.699  20.951  0.00  0.00    +0.000 C 
ATOM      7  C   UNL     1      -3.756  14.465  22.121  0.00  0.00    +0.000 C 
ATOM      8  N   UNL     1      -4.306  13.530  23.123  0.00  0.00    +0.000 N 
ATOM      9  C   UNL     1      -5.669  13.516  23.337  0.00  0.00    +0.000 C 
ATOM     10  C   UNL     1      -6.262  12.608  24.387  0.00  0.00    +0.000 C 
ATOM     11  O   UNL     1      -6.440  14.226  22.683  0.00  0.00    +0.000 OA
ATOM     12  C   UNL     1      -3.310  12.683  23.794  0.00  0.00    +0.000 C 
ENDROOT
BRANCH   1  16
ATOM     13  N   UNL     1       1.691   8.275  21.221  0.00  0.00    +0.000 N 
ATOM     14  C   UNL     1       0.472   8.925  21.254  0.00  0.00    +0.000 C 
ATOM     15  O   UNL     1      -0.593   8.370  21.046  0.00  0.00    +0.000 OA
ATOM     16  N   UNL     1       0.638  10.272  21.520  0.00  0.00    +0.000 N 
ATOM     17  H   UNL     1       2.306   8.547  21.976  0.00  0.00    +0.000 HD
ATOM     18  H   UNL     1       1.415  10.685  21.023  0.00  0.00    +0.000 HD
BRANCH  13  20
ATOM     19  C   UNL     1       2.499   6.614  19.591  0.00  0.00    +0.000 C 
ATOM     20  C   UNL     1       1.693   6.875  20.845  0.00  0.00    +0.000 C 
ENDBRANCH  13  20
ENDBRANCH   1  16
BRANCH   5  21
ATOM     21  C   UNL     1      -0.822  12.097  19.326  0.00  0.00    +0.000 C 
ATOM     22  O   UNL     1      -0.053  12.969  18.932  0.00  0.00    +0.000 OA
BRANCH  21  23
ATOM     23  C   UNL     1      -1.589  11.313  18.308  0.00  0.00    +0.000 A 
ATOM     24  C   UNL     1      -2.909  11.700  18.002  0.00  0.00    +0.000 A 
ATOM     25  C   UNL     1      -3.675  10.987  17.077  0.00  0.00    +0.000 A 
ATOM     26  C   UNL     1      -3.113   9.911  16.400  0.00  0.00    +0.000 A 
ATOM     27  C   UNL     1      -1.794   9.539  16.663  0.00  0.00    +0.000 A 
ATOM     28  C   UNL     1      -1.031  10.225  17.621  0.00  0.00    +0.000 A 
ATOM     29 CL   UNL     1       0.559   9.621  17.919  0.00  0.00    +0.000 Cl
ENDBRANCH  21  23
ENDBRANCH   5  21
TORSDOF 4
ENDMDL
MODEL 6
REMARK VINA RESULT:      -6.6      2.696      4.189
REMARK  Name = 
REMARK  6 active torsions:
REMARK  status: ('A' for Active; 'I' for Inactive)
REMARK    1  A    between atoms: C_1  and  C_2
REMARK    2  A    between atoms: C_2  and  N_3
REMARK    3  A    between atoms: N_6  and  C_7
REMARK    4  A    between atoms: C_11  and  C_12
REMARK    5  A    between atoms: C_12  and  C_14
REMARK    6  A    between atoms: C_24  and  C_25
REMARK                            x       y       z     vdW  Elec       q    Type
REMARK                         _______ _______ _______ _____ _____    ______ ____
ROOT
ATOM      1  C   UNL     1       2.089   7.166  20.266  0.00  0.00    +0.000 A 
ATOM      2  S   UNL     1       0.986   7.983  21.262  0.00  0.00    +0.000 S 
ATOM      3  C   UNL     1       0.954   9.315  20.209  0.00  0.00    +0.000 A 
ATOM      4  C   UNL     1       1.688   9.095  19.054  0.00  0.00    +0.000 A 
ATOM      5  C   UNL     1       2.314   7.784  19.044  0.00  0.00    +0.000 A 
ATOM      6  C   UNL     1       1.709  10.145  17.969  0.00  0.00    +0.000 C 
ATOM      7  C   UNL     1       1.312  11.516  18.548  0.00  0.00    +0.000 C 
ATOM      8  N   UNL     1       0.081  11.409  19.357  0.00  0.00    +0.000 N 
ATOM      9  C   UNL     1      -1.050  12.076  18.932  0.00  0.00    +0.000 C 
ATOM     10  C   UNL     1      -2.313  12.030  19.758  0.00  0.00    +0.000 C 
ATOM     11  O   UNL     1      -1.072  12.717  17.876  0.00  0.00    +0.000 OA
ATOM     12  C   UNL     1       0.197  10.568  20.555  0.00  0.00    +0.000 C 
ENDROOT
BRANCH   1  16
ATOM     13  N   UNL     1       2.304   3.842  21.535  0.00  0.00    +0.000 N 
ATOM     14  C   UNL     1       1.696   4.911  20.904  0.00  0.00    +0.000 C 
ATOM     15  O   UNL     1       0.561   4.874  20.460  0.00  0.00    +0.000 OA
ATOM     16  N   UNL     1       2.555   5.992  20.826  0.00  0.00    +0.000 N 
ATOM     17  H   UNL     1       2.820   4.111  22.362  0.00  0.00    +0.000 HD
ATOM     18  H   UNL     1       3.501   5.734  20.579  0.00  0.00    +0.000 HD
BRANCH  13  20
ATOM     19  C   UNL     1       1.630   1.820  20.299  0.00  0.00    +0.000 C 
ATOM     20  C   UNL     1       1.567   2.595  21.598  0.00  0.00    +0.000 C 
ENDBRANCH  13  20
ENDBRANCH   1  16
BRANCH   5  21
ATOM     21  C   UNL     1       3.047   7.203  17.899  0.00  0.00    +0.000 C 
ATOM     22  O   UNL     1       3.414   7.894  16.954  0.00  0.00    +0.000 OA
BRANCH  21  23
ATOM     23  C   UNL     1       3.194   5.717  17.793  0.00  0.00    +0.000 A 
ATOM     24  C   UNL     1       2.065   4.941  17.463  0.00  0.00    +0.000 A 
ATOM     25  C   UNL     1       2.145   3.550  17.375  0.00  0.00    +0.000 A 
ATOM     26  C   UNL     1       3.369   2.917  17.557  0.00  0.00    +0.000 A 
ATOM     27  C   UNL     1       4.505   3.675  17.845  0.00  0.00    +0.000 A 
ATOM     28  C   UNL     1       4.424   5.070  17.977  0.00  0.00    +0.000 A 
ATOM     29 CL   UNL     1       5.879   5.890  18.416  0.00  0.00    +0.000 Cl
ENDBRANCH  21  23
ENDBRANCH   5  21
TORSDOF 4
ENDMDL
MODEL 7
REMARK VINA RESULT:      -6.6      2.430      6.733
REMARK  Name = 
REMARK  6 active torsions:
REMARK  status: ('A' for Active; 'I' for Inactive)
REMARK    1  A    between atoms: C_1  and  C_2
REMARK    2  A    between atoms: C_2  and  N_3
REMARK    3  A    between atoms: N_6  and  C_7
REMARK    4  A    between atoms: C_11  and  C_12
REMARK    5  A    between atoms: C_12  and  C_14
REMARK    6  A    between atoms: C_24  and  C_25
REMARK                            x       y       z     vdW  Elec       q    Type
REMARK                         _______ _______ _______ _____ _____    ______ ____
ROOT
ATOM      1  C   UNL     1       3.551   6.550  17.995  0.00  0.00    +0.000 A 
ATOM      2  S   UNL     1       4.877   7.315  17.265  0.00  0.00    +0.000 S 
ATOM      3  C   UNL     1       5.338   5.874  16.493  0.00  0.00    +0.000 A 
ATOM      4  C   UNL     1       4.429   4.848  16.698  0.00  0.00    +0.000 A 
ATOM      5  C   UNL     1       3.317   5.261  17.538  0.00  0.00    +0.000 A 
ATOM      6  C   UNL     1       4.640   3.515  16.021  0.00  0.00    +0.000 C 
ATOM      7  C   UNL     1       6.115   3.355  15.609  0.00  0.00    +0.000 C 
ATOM      8  N   UNL     1       6.595   4.555  14.896  0.00  0.00    +0.000 N 
ATOM      9  C   UNL     1       6.971   4.432  13.573  0.00  0.00    +0.000 C 
ATOM     10  C   UNL     1       7.512   5.626  12.825  0.00  0.00    +0.000 C 
ATOM     11  O   UNL     1       6.872   3.362  12.963  0.00  0.00    +0.000 OA
ATOM     12  C   UNL     1       6.609   5.788  15.693  0.00  0.00    +0.000 C 
ENDROOT
BRANCH   1  16
ATOM     13  N   UNL     1       1.591   9.138  19.467  0.00  0.00    +0.000 N 
ATOM     14  C   UNL     1       2.130   8.405  18.427  0.00  0.00    +0.000 C 
ATOM     15  O   UNL     1       1.922   8.652  17.251  0.00  0.00    +0.000 OA
ATOM     16  N   UNL     1       2.896   7.358  18.905  0.00  0.00    +0.000 N 
ATOM     17  H   UNL     1       2.255   9.322  20.208  0.00  0.00    +0.000 HD
ATOM     18  H   UNL     1       2.475   6.881  19.691  0.00  0.00    +0.000 HD
BRANCH  13  20
ATOM     19  C   UNL     1      -0.596  10.163  19.951  0.00  0.00    +0.000 C 
ATOM     20  C   UNL     1       0.673  10.207  19.128  0.00  0.00    +0.000 C 
ENDBRANCH  13  20
ENDBRANCH   1  16
BRANCH   5  21
ATOM     21  C   UNL     1       2.123   4.440  17.827  0.00  0.00    +0.000 C 
ATOM     22  O   UNL     1       1.152   4.431  17.076  0.00  0.00    +0.000 OA
BRANCH  21  23
ATOM     23  C   UNL     1       2.009   3.739  19.144  0.00  0.00    +0.000 A 
ATOM     24  C   UNL     1       1.362   4.393  20.212  0.00  0.00    +0.000 A 
ATOM     25  C   UNL     1       1.251   3.791  21.467  0.00  0.00    +0.000 A 
ATOM     26  C   UNL     1       1.732   2.502  21.658  0.00  0.00    +0.000 A 
ATOM     27  C   UNL     1       2.341   1.825  20.600  0.00  0.00    +0.000 A 
ATOM     28  C   UNL     1       2.494   2.439  19.347  0.00  0.00    +0.000 A 
ATOM     29 CL   UNL     1       3.336   1.534  18.141  0.00  0.00    +0.000 Cl
ENDBRANCH  21  23
ENDBRANCH   5  21
TORSDOF 4
ENDMDL
MODEL 8
REMARK VINA RESULT:      -6.5      4.108      6.435
REMARK  Name = 
REMARK  6 active torsions:
REMARK  status: ('A' for Active; 'I' for Inactive)
REMARK    1  A    between atoms: C_1  and  C_2
REMARK    2  A    between atoms: C_2  and  N_3
REMARK    3  A    between atoms: N_6  and  C_7
REMARK    4  A    between atoms: C_11  and  C_12
REMARK    5  A    between atoms: C_12  and  C_14
REMARK    6  A    between atoms: C_24  and  C_25
REMARK                            x       y       z     vdW  Elec       q    Type
REMARK                         _______ _______ _______ _____ _____    ______ ____
ROOT
ATOM      1  C   UNL     1       5.599   6.632  17.018  0.00  0.00    +0.000 A 
ATOM      2  S   UNL     1       4.303   6.990  18.053  0.00  0.00    +0.000 S 
ATOM      3  C   UNL     1       3.638   5.444  17.826  0.00  0.00    +0.000 A 
ATOM      4  C   UNL     1       4.452   4.624  17.060  0.00  0.00    +0.000 A 
ATOM      5  C   UNL     1       5.663   5.301  16.629  0.00  0.00    +0.000 A 
ATOM      6  C   UNL     1       4.053   3.187  16.820  0.00  0.00    +0.000 C 
ATOM      7  C   UNL     1       2.541   3.009  17.052  0.00  0.00    +0.000 C 
ATOM      8  N   UNL     1       2.130   3.616  18.334  0.00  0.00    +0.000 N 
ATOM      9  C   UNL     1       1.640   2.793  19.328  0.00  0.00    +0.000 C 
ATOM     10  C   UNL     1       1.165   3.384  20.634  0.00  0.00    +0.000 C 
ATOM     11  O   UNL     1       1.581   1.567  19.191  0.00  0.00    +0.000 OA
ATOM     12  C   UNL     1       2.305   5.072  18.415  0.00  0.00    +0.000 C 
ENDROOT
BRANCH   1  16
ATOM     13  N   UNL     1       8.086   9.172  17.275  0.00  0.00    +0.000 N 
ATOM     14  C   UNL     1       7.417   8.024  17.653  0.00  0.00    +0.000 C 
ATOM     15  O   UNL     1       7.716   7.362  18.633  0.00  0.00    +0.000 OA
ATOM     16  N   UNL     1       6.403   7.726  16.762  0.00  0.00    +0.000 N 
ATOM     17  H   UNL     1       7.465   9.915  16.983  0.00  0.00    +0.000 HD
ATOM     18  H   UNL     1       6.669   7.858  15.795  0.00  0.00    +0.000 HD
BRANCH  13  20
ATOM     19  C   UNL     1       9.263  11.034  18.378  0.00  0.00    +0.000 C 
ATOM     20  C   UNL     1       9.249   9.556  18.050  0.00  0.00    +0.000 C 
ENDBRANCH  13  20
ENDBRANCH   1  16
BRANCH   5  21
ATOM     21  C   UNL     1       6.787   4.658  15.917  0.00  0.00    +0.000 C 
ATOM     22  O   UNL     1       7.869   4.468  16.464  0.00  0.00    +0.000 OA
BRANCH  21  23
ATOM     23  C   UNL     1       6.675   4.389  14.449  0.00  0.00    +0.000 A 
ATOM     24  C   UNL     1       5.646   3.544  13.987  0.00  0.00    +0.000 A 
ATOM     25  C   UNL     1       5.513   3.243  12.630  0.00  0.00    +0.000 A 
ATOM     26  C   UNL     1       6.371   3.830  11.707  0.00  0.00    +0.000 A 
ATOM     27  C   UNL     1       7.371   4.700  12.144  0.00  0.00    +0.000 A 
ATOM     28  C   UNL     1       7.537   4.974  13.511  0.00  0.00    +0.000 A 
ATOM     29 CL   UNL     1       8.859   6.000  13.938  0.00  0.00    +0.000 Cl
ENDBRANCH  21  23
ENDBRANCH   5  21
TORSDOF 4
ENDMDL
MODEL 9
REMARK VINA RESULT:      -6.5      4.439      6.872
REMARK  Name = 
REMARK  6 active torsions:
REMARK  status: ('A' for Active; 'I' for Inactive)
REMARK    1  A    between atoms: C_1  and  C_2
REMARK    2  A    between atoms: C_2  and  N_3
REMARK    3  A    between atoms: N_6  and  C_7
REMARK    4  A    between atoms: C_11  and  C_12
REMARK    5  A    between atoms: C_12  and  C_14
REMARK    6  A    between atoms: C_24  and  C_25
REMARK                            x       y       z     vdW  Elec       q    Type
REMARK                         _______ _______ _______ _____ _____    ______ ____
ROOT
ATOM      1  C   UNL     1       1.344  11.042  18.174  0.00  0.00    +0.000 A 
ATOM      2  S   UNL     1       2.659  12.114  18.204  0.00  0.00    +0.000 S 
ATOM      3  C   UNL     1       1.651  13.407  18.644  0.00  0.00    +0.000 A 
ATOM      4  C   UNL     1       0.344  13.006  18.875  0.00  0.00    +0.000 A 
ATOM      5  C   UNL     1       0.163  11.580  18.666  0.00  0.00    +0.000 A 
ATOM      6  C   UNL     1      -0.675  14.014  19.350  0.00  0.00    +0.000 C 
ATOM      7  C   UNL     1      -0.208  15.443  19.015  0.00  0.00    +0.000 C 
ATOM      8  N   UNL     1       1.192  15.651  19.438  0.00  0.00    +0.000 N 
ATOM      9  C   UNL     1       1.453  16.580  20.424  0.00  0.00    +0.000 C 
ATOM     10  C   UNL     1       2.876  16.855  20.848  0.00  0.00    +0.000 C 
ATOM     11  O   UNL     1       0.550  17.202  20.992  0.00  0.00    +0.000 OA
ATOM     12  C   UNL     1       2.180  14.812  18.748  0.00  0.00    +0.000 C 
ENDROOT
BRANCH   1  16
ATOM     13  N   UNL     1       2.295   7.613  17.958  0.00  0.00    +0.000 N 
ATOM     14  C   UNL     1       1.924   8.778  18.603  0.00  0.00    +0.000 C 
ATOM     15  O   UNL     1       1.810   8.870  19.813  0.00  0.00    +0.000 OA
ATOM     16  N   UNL     1       1.680   9.790  17.693  0.00  0.00    +0.000 N 
ATOM     17  H   UNL     1       2.962   7.768  17.213  0.00  0.00    +0.000 HD
ATOM     18  H   UNL     1       1.166   9.481  16.880  0.00  0.00    +0.000 HD
BRANCH  13  20
ATOM     19  C   UNL     1       2.149   5.155  18.021  0.00  0.00    +0.000 C 
ATOM     20  C   UNL     1       2.480   6.428  18.771  0.00  0.00    +0.000 C 
ENDBRANCH  13  20
ENDBRANCH   1  16
BRANCH   5  21
ATOM     21  C   UNL     1      -1.075  10.830  18.961  0.00  0.00    +0.000 C 
ATOM     22  O   UNL     1      -1.171  10.111  19.952  0.00  0.00    +0.000 OA
BRANCH  21  23
ATOM     23  C   UNL     1      -2.178  10.797  17.949  0.00  0.00    +0.000 A 
ATOM     24  C   UNL     1      -1.976  10.097  16.743  0.00  0.00    +0.000 A 
ATOM     25  C   UNL     1      -2.965  10.057  15.758  0.00  0.00    +0.000 A 
ATOM     26  C   UNL     1      -4.193  10.665  15.988  0.00  0.00    +0.000 A 
ATOM     27  C   UNL     1      -4.423  11.328  17.194  0.00  0.00    +0.000 A 
ATOM     28  C   UNL     1      -3.420  11.409  18.173  0.00  0.00    +0.000 A 
ATOM     29 CL   UNL     1      -3.793  12.325  19.588  0.00  0.00    +0.000 Cl
ENDBRANCH  21  23
ENDBRANCH   5  21
TORSDOF 4
ENDMDL
