MODEL 1
REMARK VINA RESULT:      -7.8      0.000      0.000
REMARK  Name = 
REMARK  3 active torsions:
REMARK  status: ('A' for Active; 'I' for Inactive)
REMARK    1  A    between atoms: C_8  and  O_9
REMARK    2  A    between atoms: O_9  and  C_10
REMARK    3  A    between atoms: C_10  and  C_11
REMARK                            x       y       z     vdW  Elec       q    Type
REMARK                         _______ _______ _______ _____ _____    ______ ____
ROOT
ATOM      1  O   UNL     1       1.510   2.341  21.784  0.00  0.00    +0.000 OA
ATOM      2  C   UNL     1       1.867   3.185  20.965  0.00  0.00    +0.000 C 
ATOM      3  C   UNL     1       1.014   4.383  20.613  0.00  0.00    +0.000 C 
ATOM      4  C   UNL     1       1.868   5.600  20.303  0.00  0.00    +0.000 C 
ATOM      5  C   UNL     1       2.939   5.253  19.309  0.00  0.00    +0.000 A 
ATOM      6  C   UNL     1       3.444   6.212  18.433  0.00  0.00    +0.000 A 
ATOM      7  C   UNL     1       4.463   5.876  17.541  0.00  0.00    +0.000 A 
ATOM      8  C   UNL     1       4.981   4.577  17.518  0.00  0.00    +0.000 A 
ATOM      9  C   UNL     1       4.532   3.636  18.447  0.00  0.00    +0.000 A 
ATOM     10  C   UNL     1       3.499   3.970  19.322  0.00  0.00    +0.000 A 
ATOM     11  N   UNL     1       3.012   3.020  20.227  0.00  0.00    +0.000 N 
ATOM     12  H   UNL     1       3.502   2.145  20.361  0.00  0.00    +0.000 HD
ENDROOT
BRANCH   8  13
ATOM     13  O   UNL     1       5.921   4.133  16.624  0.00  0.00    +0.000 OA
BRANCH  13  14
ATOM     14  C   UNL     1       6.680   5.168  15.991  0.00  0.00    +0.000 C 
BRANCH  14  15
ATOM     15  C   UNL     1       6.869   4.850  14.529  0.00  0.00    +0.000 A 
ATOM     16  C   UNL     1       7.792   5.563  13.756  0.00  0.00    +0.000 A 
ATOM     17  C   UNL     1       7.937   5.288  12.393  0.00  0.00    +0.000 A 
ATOM     18  C   UNL     1       7.161   4.295  11.794  0.00  0.00    +0.000 A 
ATOM     19  C   UNL     1       6.245   3.580  12.561  0.00  0.00    +0.000 A 
ATOM     20 CL   UNL     1       5.280   2.358  11.824  0.00  0.00    +0.000 Cl
ATOM     21  C   UNL     1       6.097   3.849  13.919  0.00  0.00    +0.000 A 
ENDBRANCH  14  15
ENDBRANCH  13  14
ENDBRANCH   8  13
TORSDOF 3
ENDMDL
MODEL 2
REMARK VINA RESULT:      -7.4      4.991      6.665
REMARK  Name = 
REMARK  3 active torsions:
REMARK  status: ('A' for Active; 'I' for Inactive)
REMARK    1  A    between atoms: C_8  and  O_9
REMARK    2  A    between atoms: O_9  and  C_10
REMARK    3  A    between atoms: C_10  and  C_11
REMARK                            x       y       z     vdW  Elec       q    Type
REMARK                         _______ _______ _______ _____ _____    ______ ____
ROOT
ATOM      1  O   UNL     1       0.498   9.489  24.120  0.00  0.00    +0.000 OA
ATOM      2  C   UNL     1       0.496   9.606  22.897  0.00  0.00    +0.000 C 
ATOM      3  C   UNL     1      -0.441  10.549  22.176  0.00  0.00    +0.000 C 
ATOM      4  C   UNL     1       0.209  11.135  20.934  0.00  0.00    +0.000 C 
ATOM      5  C   UNL     1       0.810  10.047  20.090  0.00  0.00    +0.000 A 
ATOM      6  C   UNL     1       0.921  10.188  18.709  0.00  0.00    +0.000 A 
ATOM      7  C   UNL     1       1.514   9.179  17.948  0.00  0.00    +0.000 A 
ATOM      8  C   UNL     1       1.997   8.022  18.567  0.00  0.00    +0.000 A 
ATOM      9  C   UNL     1       1.959   7.912  19.958  0.00  0.00    +0.000 A 
ATOM     10  C   UNL     1       1.346   8.912  20.711  0.00  0.00    +0.000 A 
ATOM     11  N   UNL     1       1.264   8.791  22.103  0.00  0.00    +0.000 N 
ATOM     12  H   UNL     1       1.777   8.063  22.583  0.00  0.00    +0.000 HD
ENDROOT
BRANCH   8  13
ATOM     13  O   UNL     1       2.518   6.944  17.896  0.00  0.00    +0.000 OA
BRANCH  13  14
ATOM     14  C   UNL     1       3.424   6.146  18.662  0.00  0.00    +0.000 C 
BRANCH  14  15
ATOM     15  C   UNL     1       2.877   4.749  18.819  0.00  0.00    +0.000 A 
ATOM     16  C   UNL     1       2.724   3.911  17.708  0.00  0.00    +0.000 A 
ATOM     17  C   UNL     1       2.182   2.632  17.856  0.00  0.00    +0.000 A 
ATOM     18  C   UNL     1       1.791   2.178  19.117  0.00  0.00    +0.000 A 
ATOM     19  C   UNL     1       1.946   3.007  20.225  0.00  0.00    +0.000 A 
ATOM     20 CL   UNL     1       1.459   2.455  21.782  0.00  0.00    +0.000 Cl
ATOM     21  C   UNL     1       2.486   4.283  20.084  0.00  0.00    +0.000 A 
ENDBRANCH  14  15
ENDBRANCH  13  14
ENDBRANCH   8  13
TORSDOF 3
ENDMDL
MODEL 3
REMARK VINA RESULT:      -7.4      1.317      1.421
REMARK  Name = 
REMARK  3 active torsions:
REMARK  status: ('A' for Active; 'I' for Inactive)
REMARK    1  A    between atoms: C_8  and  O_9
REMARK    2  A    between atoms: O_9  and  C_10
REMARK    3  A    between atoms: C_10  and  C_11
REMARK                            x       y       z     vdW  Elec       q    Type
REMARK                         _______ _______ _______ _____ _____    ______ ____
ROOT
ATOM      1  O   UNL     1       0.047   1.846  18.924  0.00  0.00    +0.000 OA
ATOM      2  C   UNL     1       0.935   2.683  19.070  0.00  0.00    +0.000 C 
ATOM      3  C   UNL     1       1.048   3.535  20.314  0.00  0.00    +0.000 C 
ATOM      4  C   UNL     1       2.498   3.833  20.652  0.00  0.00    +0.000 C 
ATOM      5  C   UNL     1       3.226   4.351  19.445  0.00  0.00    +0.000 A 
ATOM      6  C   UNL     1       4.306   5.221  19.575  0.00  0.00    +0.000 A 
ATOM      7  C   UNL     1       4.990   5.662  18.441  0.00  0.00    +0.000 A 
ATOM      8  C   UNL     1       4.594   5.236  17.169  0.00  0.00    +0.000 A 
ATOM      9  C   UNL     1       3.563   4.302  17.041  0.00  0.00    +0.000 A 
ATOM     10  C   UNL     1       2.869   3.882  18.174  0.00  0.00    +0.000 A 
ATOM     11  N   UNL     1       1.806   2.980  18.051  0.00  0.00    +0.000 N 
ATOM     12  H   UNL     1       1.633   2.513  17.171  0.00  0.00    +0.000 HD
ENDROOT
BRANCH   8  13
ATOM     13  O   UNL     1       5.150   5.678  15.996  0.00  0.00    +0.000 OA
BRANCH  13  14
ATOM     14  C   UNL     1       6.540   5.378  15.843  0.00  0.00    +0.000 C 
BRANCH  14  15
ATOM     15  C   UNL     1       6.826   4.959  14.423  0.00  0.00    +0.000 A 
ATOM     16  C   UNL     1       7.830   5.589  13.679  0.00  0.00    +0.000 A 
ATOM     17  C   UNL     1       8.065   5.220  12.351  0.00  0.00    +0.000 A 
ATOM     18  C   UNL     1       7.298   4.215  11.758  0.00  0.00    +0.000 A 
ATOM     19  C   UNL     1       6.302   3.583  12.497  0.00  0.00    +0.000 A 
ATOM     20 CL   UNL     1       5.349   2.347  11.768  0.00  0.00    +0.000 Cl
ATOM     21  C   UNL     1       6.064   3.946  13.820  0.00  0.00    +0.000 A 
ENDBRANCH  14  15
ENDBRANCH  13  14
ENDBRANCH   8  13
TORSDOF 3
ENDMDL
MODEL 4
REMARK VINA RESULT:      -7.4      3.310      4.758
REMARK  Name = 
REMARK  3 active torsions:
REMARK  status: ('A' for Active; 'I' for Inactive)
REMARK    1  A    between atoms: C_8  and  O_9
REMARK    2  A    between atoms: O_9  and  C_10
REMARK    3  A    between atoms: C_10  and  C_11
REMARK                            x       y       z     vdW  Elec       q    Type
REMARK                         _______ _______ _______ _____ _____    ______ ____
ROOT
ATOM      1  O   UNL     1       0.622   9.975  22.780  0.00  0.00    +0.000 OA
ATOM      2  C   UNL     1       0.849   9.518  21.662  0.00  0.00    +0.000 C 
ATOM      3  C   UNL     1       0.357  10.188  20.399  0.00  0.00    +0.000 C 
ATOM      4  C   UNL     1       1.340  10.004  19.255  0.00  0.00    +0.000 C 
ATOM      5  C   UNL     1       1.722   8.558  19.115  0.00  0.00    +0.000 A 
ATOM      6  C   UNL     1       2.089   8.028  17.880  0.00  0.00    +0.000 A 
ATOM      7  C   UNL     1       2.474   6.691  17.779  0.00  0.00    +0.000 A 
ATOM      8  C   UNL     1       2.492   5.875  18.915  0.00  0.00    +0.000 A 
ATOM      9  C   UNL     1       2.202   6.423  20.167  0.00  0.00    +0.000 A 
ATOM     10  C   UNL     1       1.797   7.754  20.259  0.00  0.00    +0.000 A 
ATOM     11  N   UNL     1       1.461   8.300  21.503  0.00  0.00    +0.000 N 
ATOM     12  H   UNL     1       1.655   7.788  22.354  0.00  0.00    +0.000 HD
ENDROOT
BRANCH   8  13
ATOM     13  O   UNL     1       2.775   4.533  18.901  0.00  0.00    +0.000 OA
BRANCH  13  14
ATOM     14  C   UNL     1       3.987   4.171  19.569  0.00  0.00    +0.000 C 
BRANCH  14  15
ATOM     15  C   UNL     1       5.176   4.523  18.711  0.00  0.00    +0.000 A 
ATOM     16  C   UNL     1       6.223   5.299  19.221  0.00  0.00    +0.000 A 
ATOM     17  C   UNL     1       7.304   5.652  18.409  0.00  0.00    +0.000 A 
ATOM     18  C   UNL     1       7.348   5.229  17.079  0.00  0.00    +0.000 A 
ATOM     19  C   UNL     1       6.311   4.452  16.569  0.00  0.00    +0.000 A 
ATOM     20 CL   UNL     1       6.357   3.933  14.927  0.00  0.00    +0.000 Cl
ATOM     21  C   UNL     1       5.231   4.097  17.374  0.00  0.00    +0.000 A 
ENDBRANCH  14  15
ENDBRANCH  13  14
ENDBRANCH   8  13
TORSDOF 3
ENDMDL
MODEL 5
REMARK VINA RESULT:      -7.4      0.945      1.081
REMARK  Name = 
REMARK  3 active torsions:
REMARK  status: ('A' for Active; 'I' for Inactive)
REMARK    1  A    between atoms: C_8  and  O_9
REMARK    2  A    between atoms: O_9  and  C_10
REMARK    3  A    between atoms: C_10  and  C_11
REMARK                            x       y       z     vdW  Elec       q    Type
REMARK                         _______ _______ _______ _____ _____    ______ ____
ROOT
ATOM      1  O   UNL     1       3.747   1.711  21.663  0.00  0.00    +0.000 OA
ATOM      2  C   UNL     1       3.412   2.681  20.989  0.00  0.00    +0.000 C 
ATOM      3  C   UNL     1       2.077   3.369  21.167  0.00  0.00    +0.000 C 
ATOM      4  C   UNL     1       2.184   4.863  20.912  0.00  0.00    +0.000 C 
ATOM      5  C   UNL     1       2.880   5.127  19.608  0.00  0.00    +0.000 A 
ATOM      6  C   UNL     1       2.602   6.272  18.865  0.00  0.00    +0.000 A 
ATOM      7  C   UNL     1       3.285   6.515  17.673  0.00  0.00    +0.000 A 
ATOM      8  C   UNL     1       4.249   5.611  17.216  0.00  0.00    +0.000 A 
ATOM      9  C   UNL     1       4.586   4.503  17.997  0.00  0.00    +0.000 A 
ATOM     10  C   UNL     1       3.885   4.254  19.176  0.00  0.00    +0.000 A 
ATOM     11  N   UNL     1       4.185   3.123  19.944  0.00  0.00    +0.000 N 
ATOM     12  H   UNL     1       5.005   2.567  19.736  0.00  0.00    +0.000 HD
ENDROOT
BRANCH   8  13
ATOM     13  O   UNL     1       4.911   5.721  16.019  0.00  0.00    +0.000 OA
BRANCH  13  14
ATOM     14  C   UNL     1       6.176   5.056  15.973  0.00  0.00    +0.000 C 
BRANCH  14  15
ATOM     15  C   UNL     1       6.543   4.742  14.544  0.00  0.00    +0.000 A 
ATOM     16  C   UNL     1       7.609   5.398  13.918  0.00  0.00    +0.000 A 
ATOM     17  C   UNL     1       7.921   5.128  12.583  0.00  0.00    +0.000 A 
ATOM     18  C   UNL     1       7.169   4.198  11.863  0.00  0.00    +0.000 A 
ATOM     19  C   UNL     1       6.111   3.540  12.483  0.00  0.00    +0.000 A 
ATOM     20 CL   UNL     1       5.176   2.397  11.597  0.00  0.00    +0.000 Cl
ATOM     21  C   UNL     1       5.796   3.804  13.814  0.00  0.00    +0.000 A 
ENDBRANCH  14  15
ENDBRANCH  13  14
ENDBRANCH   8  13
TORSDOF 3
ENDMDL
MODEL 6
REMARK VINA RESULT:      -7.3      3.228      4.408
REMARK  Name = 
REMARK  3 active torsions:
REMARK  status: ('A' for Active; 'I' for Inactive)
REMARK    1  A    between atoms: C_8  and  O_9
REMARK    2  A    between atoms: O_9  and  C_10
REMARK    3  A    between atoms: C_10  and  C_11
REMARK                            x       y       z     vdW  Elec       q    Type
REMARK                         _______ _______ _______ _____ _____    ______ ____
ROOT
ATOM      1  O   UNL     1       1.573   7.994  20.642  0.00  0.00    +0.000 OA
ATOM      2  C   UNL     1       1.987   6.960  20.124  0.00  0.00    +0.000 C 
ATOM      3  C   UNL     1       1.946   5.626  20.836  0.00  0.00    +0.000 C 
ATOM      4  C   UNL     1       1.709   4.485  19.862  0.00  0.00    +0.000 C 
ATOM      5  C   UNL     1       2.662   4.573  18.704  0.00  0.00    +0.000 A 
ATOM      6  C   UNL     1       3.074   3.428  18.024  0.00  0.00    +0.000 A 
ATOM      7  C   UNL     1       3.933   3.536  16.930  0.00  0.00    +0.000 A 
ATOM      8  C   UNL     1       4.387   4.791  16.511  0.00  0.00    +0.000 A 
ATOM      9  C   UNL     1       3.914   5.945  17.141  0.00  0.00    +0.000 A 
ATOM     10  C   UNL     1       3.074   5.830  18.247  0.00  0.00    +0.000 A 
ATOM     11  N   UNL     1       2.629   6.979  18.911  0.00  0.00    +0.000 N 
ATOM     12  H   UNL     1       2.785   7.894  18.508  0.00  0.00    +0.000 HD
ENDROOT
BRANCH   8  13
ATOM     13  O   UNL     1       5.295   4.989  15.502  0.00  0.00    +0.000 OA
BRANCH  13  14
ATOM     14  C   UNL     1       6.622   4.542  15.797  0.00  0.00    +0.000 C 
BRANCH  14  15
ATOM     15  C   UNL     1       7.191   5.335  16.946  0.00  0.00    +0.000 A 
ATOM     16  C   UNL     1       7.550   4.704  18.143  0.00  0.00    +0.000 A 
ATOM     17  C   UNL     1       8.043   5.450  19.217  0.00  0.00    +0.000 A 
ATOM     18  C   UNL     1       8.184   6.834  19.102  0.00  0.00    +0.000 A 
ATOM     19  C   UNL     1       7.834   7.465  17.911  0.00  0.00    +0.000 A 
ATOM     20 CL   UNL     1       8.000   9.173  17.766  0.00  0.00    +0.000 Cl
ATOM     21  C   UNL     1       7.342   6.727  16.837  0.00  0.00    +0.000 A 
ENDBRANCH  14  15
ENDBRANCH  13  14
ENDBRANCH   8  13
TORSDOF 3
ENDMDL
MODEL 7
REMARK VINA RESULT:      -7.3      4.334      8.307
REMARK  Name = 
REMARK  3 active torsions:
REMARK  status: ('A' for Active; 'I' for Inactive)
REMARK    1  A    between atoms: C_8  and  O_9
REMARK    2  A    between atoms: O_9  and  C_10
REMARK    3  A    between atoms: C_10  and  C_11
REMARK                            x       y       z     vdW  Elec       q    Type
REMARK                         _______ _______ _______ _____ _____    ______ ____
ROOT
ATOM      1  O   UNL     1       7.766   5.580  14.120  0.00  0.00    +0.000 OA
ATOM      2  C   UNL     1       6.769   5.261  14.762  0.00  0.00    +0.000 C 
ATOM      3  C   UNL     1       6.030   3.964  14.518  0.00  0.00    +0.000 C 
ATOM      4  C   UNL     1       5.447   3.407  15.806  0.00  0.00    +0.000 C 
ATOM      5  C   UNL     1       4.672   4.467  16.535  0.00  0.00    +0.000 A 
ATOM      6  C   UNL     1       3.597   4.134  17.357  0.00  0.00    +0.000 A 
ATOM      7  C   UNL     1       2.912   5.132  18.052  0.00  0.00    +0.000 A 
ATOM      8  C   UNL     1       3.298   6.470  17.926  0.00  0.00    +0.000 A 
ATOM      9  C   UNL     1       4.423   6.799  17.166  0.00  0.00    +0.000 A 
ATOM     10  C   UNL     1       5.090   5.801  16.456  0.00  0.00    +0.000 A 
ATOM     11  N   UNL     1       6.192   6.127  15.657  0.00  0.00    +0.000 N 
ATOM     12  H   UNL     1       6.604   7.049  15.707  0.00  0.00    +0.000 HD
ENDROOT
BRANCH   8  13
ATOM     13  O   UNL     1       2.637   7.525  18.502  0.00  0.00    +0.000 OA
BRANCH  13  14
ATOM     14  C   UNL     1       2.223   7.303  19.854  0.00  0.00    +0.000 C 
BRANCH  14  15
ATOM     15  C   UNL     1       1.324   8.425  20.309  0.00  0.00    +0.000 A 
ATOM     16  C   UNL     1       0.721   8.392  21.572  0.00  0.00    +0.000 A 
ATOM     17  C   UNL     1      -0.139   9.417  21.973  0.00  0.00    +0.000 A 
ATOM     18  C   UNL     1      -0.402  10.486  21.115  0.00  0.00    +0.000 A 
ATOM     19  C   UNL     1       0.200  10.526  19.860  0.00  0.00    +0.000 A 
ATOM     20 CL   UNL     1      -0.127  11.839  18.795  0.00  0.00    +0.000 Cl
ATOM     21  C   UNL     1       1.058   9.507  19.455  0.00  0.00    +0.000 A 
ENDBRANCH  14  15
ENDBRANCH  13  14
ENDBRANCH   8  13
TORSDOF 3
ENDMDL
MODEL 8
REMARK VINA RESULT:      -7.3      4.189      5.417
REMARK  Name = 
REMARK  3 active torsions:
REMARK  status: ('A' for Active; 'I' for Inactive)
REMARK    1  A    between atoms: C_8  and  O_9
REMARK    2  A    between atoms: O_9  and  C_10
REMARK    3  A    between atoms: C_10  and  C_11
REMARK                            x       y       z     vdW  Elec       q    Type
REMARK                         _______ _______ _______ _____ _____    ______ ____
ROOT
ATOM      1  O   UNL     1       0.345   9.700  23.532  0.00  0.00    +0.000 OA
ATOM      2  C   UNL     1       0.542   9.485  22.339  0.00  0.00    +0.000 C 
ATOM      3  C   UNL     1      -0.187  10.239  21.249  0.00  0.00    +0.000 C 
ATOM      4  C   UNL     1       0.696  10.442  20.029  0.00  0.00    +0.000 C 
ATOM      5  C   UNL     1       1.322   9.143  19.610  0.00  0.00    +0.000 A 
ATOM      6  C   UNL     1       1.657   8.903  18.279  0.00  0.00    +0.000 A 
ATOM      7  C   UNL     1       2.269   7.703  17.917  0.00  0.00    +0.000 A 
ATOM      8  C   UNL     1       2.548   6.734  18.886  0.00  0.00    +0.000 A 
ATOM      9  C   UNL     1       2.286   7.003  20.231  0.00  0.00    +0.000 A 
ATOM     10  C   UNL     1       1.655   8.194  20.585  0.00  0.00    +0.000 A 
ATOM     11  N   UNL     1       1.349   8.454  21.925  0.00  0.00    +0.000 N 
ATOM     12  H   UNL     1       1.716   7.860  22.657  0.00  0.00    +0.000 HD
ENDROOT
BRANCH   8  13
ATOM     13  O   UNL     1       3.071   5.494  18.614  0.00  0.00    +0.000 OA
BRANCH  13  14
ATOM     14  C   UNL     1       3.891   5.435  17.444  0.00  0.00    +0.000 C 
BRANCH  14  15
ATOM     15  C   UNL     1       5.270   5.962  17.752  0.00  0.00    +0.000 A 
ATOM     16  C   UNL     1       5.839   6.976  16.973  0.00  0.00    +0.000 A 
ATOM     17  C   UNL     1       7.132   7.434  17.243  0.00  0.00    +0.000 A 
ATOM     18  C   UNL     1       7.865   6.883  18.295  0.00  0.00    +0.000 A 
ATOM     19  C   UNL     1       7.300   5.878  19.075  0.00  0.00    +0.000 A 
ATOM     20 CL   UNL     1       8.203   5.190  20.371  0.00  0.00    +0.000 Cl
ATOM     21  C   UNL     1       6.012   5.418  18.812  0.00  0.00    +0.000 A 
ENDBRANCH  14  15
ENDBRANCH  13  14
ENDBRANCH   8  13
TORSDOF 3
ENDMDL
MODEL 9
REMARK VINA RESULT:      -7.3      3.406      4.507
REMARK  Name = 
REMARK  3 active torsions:
REMARK  status: ('A' for Active; 'I' for Inactive)
REMARK    1  A    between atoms: C_8  and  O_9
REMARK    2  A    between atoms: O_9  and  C_10
REMARK    3  A    between atoms: C_10  and  C_11
REMARK                            x       y       z     vdW  Elec       q    Type
REMARK                         _______ _______ _______ _____ _____    ______ ____
ROOT
ATOM      1  O   UNL     1      -0.456   9.775  22.847  0.00  0.00    +0.000 OA
ATOM      2  C   UNL     1       0.021   9.503  21.748  0.00  0.00    +0.000 C 
ATOM      3  C   UNL     1      -0.426  10.193  20.478  0.00  0.00    +0.000 C 
ATOM      4  C   UNL     1       0.723  10.345  19.496  0.00  0.00    +0.000 C 
ATOM      5  C   UNL     1       1.430   9.034  19.306  0.00  0.00    +0.000 A 
ATOM      6  C   UNL     1       2.074   8.732  18.107  0.00  0.00    +0.000 A 
ATOM      7  C   UNL     1       2.754   7.522  17.964  0.00  0.00    +0.000 A 
ATOM      8  C   UNL     1       2.793   6.606  19.020  0.00  0.00    +0.000 A 
ATOM      9  C   UNL     1       2.217   6.939  20.249  0.00  0.00    +0.000 A 
ATOM     10  C   UNL     1       1.520   8.139  20.379  0.00  0.00    +0.000 A 
ATOM     11  N   UNL     1       0.902   8.462  21.593  0.00  0.00    +0.000 N 
ATOM     12  H   UNL     1       1.084   7.910  22.421  0.00  0.00    +0.000 HD
ENDROOT
BRANCH   8  13
ATOM     13  O   UNL     1       3.364   5.361  18.946  0.00  0.00    +0.000 OA
BRANCH  13  14
ATOM     14  C   UNL     1       3.300   4.751  17.653  0.00  0.00    +0.000 C 
BRANCH  14  15
ATOM     15  C   UNL     1       4.687   4.616  17.077  0.00  0.00    +0.000 A 
ATOM     16  C   UNL     1       5.818   4.801  17.881  0.00  0.00    +0.000 A 
ATOM     17  C   UNL     1       7.100   4.709  17.332  0.00  0.00    +0.000 A 
ATOM     18  C   UNL     1       7.261   4.429  15.974  0.00  0.00    +0.000 A 
ATOM     19  C   UNL     1       6.139   4.239  15.172  0.00  0.00    +0.000 A 
ATOM     20 CL   UNL     1       6.333   3.900  13.494  0.00  0.00    +0.000 Cl
ATOM     21  C   UNL     1       4.859   4.329  15.713  0.00  0.00    +0.000 A 
ENDBRANCH  14  15
ENDBRANCH  13  14
ENDBRANCH   8  13
TORSDOF 3
ENDMDL
