MODEL 1
REMARK VINA RESULT:      -8.3      0.000      0.000
REMARK  Name = 
REMARK  5 active torsions:
REMARK  status: ('A' for Active; 'I' for Inactive)
REMARK    1  A    between atoms: N_10  and  C_11
REMARK    2  A    between atoms: N_10  and  C_17
REMARK    3  A    between atoms: C_11  and  C_12
REMARK    4  A    between atoms: C_20  and  O_21
REMARK    5  A    between atoms: O_21  and  C_22
REMARK                            x       y       z     vdW  Elec       q    Type
REMARK                         _______ _______ _______ _____ _____    ______ ____
ROOT
ATOM      1  O   UNL     1      -0.261  13.373  19.516  0.00  0.00    +0.000 OA
ATOM      2  C   UNL     1       0.440  12.477  19.052  0.00  0.00    +0.000 C 
ATOM      3  N   UNL     1       1.804  12.550  18.837  0.00  0.00    +0.000 N 
ATOM      4  C   UNL     1       2.571  13.623  19.178  0.00  0.00    +0.000 A 
ATOM      5  N   UNL     1       2.321  14.625  19.983  0.00  0.00    +0.000 NA
ATOM      6  C   UNL     1       3.387  15.508  19.942  0.00  0.00    +0.000 A 
ATOM      7  C   UNL     1       4.403  15.142  19.095  0.00  0.00    +0.000 A 
ATOM      8 CL   UNL     1       5.826  16.011  18.710  0.00  0.00    +0.000 Cl
ATOM      9  S   UNL     1       4.098  13.628  18.398  0.00  0.00    +0.000 S 
ATOM     10  N   UNL     1      -0.097  11.244  18.596  0.00  0.00    +0.000 N 
ATOM     11  H   UNL     1       2.225  11.868  18.231  0.00  0.00    +0.000 HD
ENDROOT
BRANCH  10  12
ATOM     12  C   UNL     1       0.678  10.073  18.859  0.00  0.00    +0.000 A 
ATOM     13  C   UNL     1       1.352   9.408  17.825  0.00  0.00    +0.000 A 
ATOM     14  C   UNL     1       2.080   8.249  18.099  0.00  0.00    +0.000 A 
ATOM     15  C   UNL     1       2.123   7.750  19.401  0.00  0.00    +0.000 A 
ATOM     16  C   UNL     1       1.374   8.365  20.410  0.00  0.00    +0.000 A 
ATOM     17  C   UNL     1       0.683   9.550  20.151  0.00  0.00    +0.000 A 
BRANCH  15  18
ATOM     18  O   UNL     1       2.887   6.621  19.601  0.00  0.00    +0.000 OA
BRANCH  18  19
ATOM     19  C   UNL     1       2.272   5.389  19.633  0.00  0.00    +0.000 A 
ATOM     20  C   UNL     1       2.052   4.778  18.397  0.00  0.00    +0.000 A 
ATOM     21  C   UNL     1       1.409   3.541  18.330  0.00  0.00    +0.000 A 
ATOM     22  C   UNL     1       0.984   2.910  19.499  0.00  0.00    +0.000 A 
ATOM     23  C   UNL     1       1.235   3.498  20.737  0.00  0.00    +0.000 A 
ATOM     24  C   UNL     1       1.906   4.720  20.806  0.00  0.00    +0.000 A 
ENDBRANCH  18  19
ENDBRANCH  15  18
ENDBRANCH  10  12
BRANCH  10  25
ATOM     25  C   UNL     1      -1.553  11.015  18.713  0.00  0.00    +0.000 C 
BRANCH  25  26
ATOM     26  C   UNL     1      -2.424  11.375  17.494  0.00  0.00    +0.000 C 
ATOM     27  C   UNL     1      -2.508  10.299  16.413  0.00  0.00    +0.000 C 
ATOM     28  C   UNL     1      -3.767  10.656  15.626  0.00  0.00    +0.000 C 
ATOM     29  C   UNL     1      -4.709  11.329  16.622  0.00  0.00    +0.000 C 
ATOM     30  C   UNL     1      -3.898  11.547  17.895  0.00  0.00    +0.000 C 
ENDBRANCH  25  26
ENDBRANCH  10  25
TORSDOF 5
ENDMDL
MODEL 2
REMARK VINA RESULT:      -8.3      0.764      1.240
REMARK  Name = 
REMARK  5 active torsions:
REMARK  status: ('A' for Active; 'I' for Inactive)
REMARK    1  A    between atoms: N_10  and  C_11
REMARK    2  A    between atoms: N_10  and  C_17
REMARK    3  A    between atoms: C_11  and  C_12
REMARK    4  A    between atoms: C_20  and  O_21
REMARK    5  A    between atoms: O_21  and  C_22
REMARK                            x       y       z     vdW  Elec       q    Type
REMARK                         _______ _______ _______ _____ _____    ______ ____
ROOT
ATOM      1  O   UNL     1      -0.726  13.662  19.824  0.00  0.00    +0.000 OA
ATOM      2  C   UNL     1      -0.018  12.805  19.300  0.00  0.00    +0.000 C 
ATOM      3  N   UNL     1       1.325  12.944  18.999  0.00  0.00    +0.000 N 
ATOM      4  C   UNL     1       2.064  14.047  19.306  0.00  0.00    +0.000 A 
ATOM      5  N   UNL     1       1.822  15.025  20.142  0.00  0.00    +0.000 NA
ATOM      6  C   UNL     1       2.842  15.956  20.046  0.00  0.00    +0.000 A 
ATOM      7  C   UNL     1       3.816  15.649  19.129  0.00  0.00    +0.000 A 
ATOM      8 CL   UNL     1       5.170  16.587  18.666  0.00  0.00    +0.000 Cl
ATOM      9  S   UNL     1       3.534  14.132  18.429  0.00  0.00    +0.000 S 
ATOM     10  N   UNL     1      -0.528  11.555  18.861  0.00  0.00    +0.000 N 
ATOM     11  H   UNL     1       1.735  12.290  18.355  0.00  0.00    +0.000 HD
ENDROOT
BRANCH  10  12
ATOM     12  C   UNL     1       0.315  10.418  19.054  0.00  0.00    +0.000 A 
ATOM     13  C   UNL     1       0.965   9.811  17.969  0.00  0.00    +0.000 A 
ATOM     14  C   UNL     1       1.760   8.683  18.176  0.00  0.00    +0.000 A 
ATOM     15  C   UNL     1       1.895   8.156  19.462  0.00  0.00    +0.000 A 
ATOM     16  C   UNL     1       1.171   8.710  20.523  0.00  0.00    +0.000 A 
ATOM     17  C   UNL     1       0.412   9.866  20.330  0.00  0.00    +0.000 A 
BRANCH  15  18
ATOM     18  O   UNL     1       2.721   7.062  19.594  0.00  0.00    +0.000 OA
BRANCH  18  19
ATOM     19  C   UNL     1       2.200   5.799  19.411  0.00  0.00    +0.000 A 
ATOM     20  C   UNL     1       1.655   5.188  20.542  0.00  0.00    +0.000 A 
ATOM     21  C   UNL     1       1.130   3.898  20.458  0.00  0.00    +0.000 A 
ATOM     22  C   UNL     1       1.149   3.214  19.242  0.00  0.00    +0.000 A 
ATOM     23  C   UNL     1       1.657   3.833  18.103  0.00  0.00    +0.000 A 
ATOM     24  C   UNL     1       2.153   5.136  18.180  0.00  0.00    +0.000 A 
ENDBRANCH  18  19
ENDBRANCH  15  18
ENDBRANCH  10  12
BRANCH  10  25
ATOM     25  C   UNL     1      -1.961  11.258  19.068  0.00  0.00    +0.000 C 
BRANCH  25  26
ATOM     26  C   UNL     1      -2.832  11.071  17.811  0.00  0.00    +0.000 C 
ATOM     27  C   UNL     1      -2.233  11.619  16.517  0.00  0.00    +0.000 C 
ATOM     28  C   UNL     1      -2.990  10.883  15.413  0.00  0.00    +0.000 C 
ATOM     29  C   UNL     1      -3.362   9.521  15.994  0.00  0.00    +0.000 C 
ATOM     30  C   UNL     1      -3.015   9.582  17.478  0.00  0.00    +0.000 C 
ENDBRANCH  25  26
ENDBRANCH  10  25
TORSDOF 5
ENDMDL
MODEL 3
REMARK VINA RESULT:      -8.3      1.281      1.857
REMARK  Name = 
REMARK  5 active torsions:
REMARK  status: ('A' for Active; 'I' for Inactive)
REMARK    1  A    between atoms: N_10  and  C_11
REMARK    2  A    between atoms: N_10  and  C_17
REMARK    3  A    between atoms: C_11  and  C_12
REMARK    4  A    between atoms: C_20  and  O_21
REMARK    5  A    between atoms: O_21  and  C_22
REMARK                            x       y       z     vdW  Elec       q    Type
REMARK                         _______ _______ _______ _____ _____    ______ ____
ROOT
ATOM      1  O   UNL     1      -1.196  13.198  20.305  0.00  0.00    +0.000 OA
ATOM      2  C   UNL     1      -0.294  12.490  19.862  0.00  0.00    +0.000 C 
ATOM      3  N   UNL     1       1.059  12.687  20.065  0.00  0.00    +0.000 N 
ATOM      4  C   UNL     1       1.575  13.675  20.849  0.00  0.00    +0.000 A 
ATOM      5  N   UNL     1       1.004  14.420  21.761  0.00  0.00    +0.000 NA
ATOM      6  C   UNL     1       1.928  15.339  22.230  0.00  0.00    +0.000 A 
ATOM      7  C   UNL     1       3.166  15.258  21.645  0.00  0.00    +0.000 A 
ATOM      8 CL   UNL     1       4.524  16.270  21.891  0.00  0.00    +0.000 Cl
ATOM      9  S   UNL     1       3.239  13.961  20.557  0.00  0.00    +0.000 S 
ATOM     10  N   UNL     1      -0.540  11.390  18.999  0.00  0.00    +0.000 N 
ATOM     11  H   UNL     1       1.703  12.208  19.461  0.00  0.00    +0.000 HD
ENDROOT
BRANCH  10  12
ATOM     12  C   UNL     1       0.276  10.234  19.189  0.00  0.00    +0.000 A 
ATOM     13  C   UNL     1       0.359   9.609  20.442  0.00  0.00    +0.000 A 
ATOM     14  C   UNL     1       1.185   8.497  20.613  0.00  0.00    +0.000 A 
ATOM     15  C   UNL     1       1.936   8.019  19.538  0.00  0.00    +0.000 A 
ATOM     16  C   UNL     1       1.919   8.702  18.317  0.00  0.00    +0.000 A 
ATOM     17  C   UNL     1       1.060   9.785  18.127  0.00  0.00    +0.000 A 
BRANCH  15  18
ATOM     18  O   UNL     1       2.702   6.899  19.774  0.00  0.00    +0.000 OA
BRANCH  18  19
ATOM     19  C   UNL     1       2.181   5.655  19.493  0.00  0.00    +0.000 A 
ATOM     20  C   UNL     1       1.636   4.957  20.572  0.00  0.00    +0.000 A 
ATOM     21  C   UNL     1       1.111   3.678  20.387  0.00  0.00    +0.000 A 
ATOM     22  C   UNL     1       1.129   3.091  19.122  0.00  0.00    +0.000 A 
ATOM     23  C   UNL     1       1.638   3.798  18.034  0.00  0.00    +0.000 A 
ATOM     24  C   UNL     1       2.135   5.090  18.213  0.00  0.00    +0.000 A 
ENDBRANCH  18  19
ENDBRANCH  15  18
ENDBRANCH  10  12
BRANCH  10  25
ATOM     25  C   UNL     1      -1.937  11.063  18.642  0.00  0.00    +0.000 C 
BRANCH  25  26
ATOM     26  C   UNL     1      -2.314  11.109  17.149  0.00  0.00    +0.000 C 
ATOM     27  C   UNL     1      -2.138   9.795  16.391  0.00  0.00    +0.000 C 
ATOM     28  C   UNL     1      -3.022   9.952  15.156  0.00  0.00    +0.000 C 
ATOM     29  C   UNL     1      -4.172  10.866  15.576  0.00  0.00    +0.000 C 
ATOM     30  C   UNL     1      -3.813  11.393  16.962  0.00  0.00    +0.000 C 
ENDBRANCH  25  26
ENDBRANCH  10  25
TORSDOF 5
ENDMDL
MODEL 4
REMARK VINA RESULT:      -8.3      0.705      1.202
REMARK  Name = 
REMARK  5 active torsions:
REMARK  status: ('A' for Active; 'I' for Inactive)
REMARK    1  A    between atoms: N_10  and  C_11
REMARK    2  A    between atoms: N_10  and  C_17
REMARK    3  A    between atoms: C_11  and  C_12
REMARK    4  A    between atoms: C_20  and  O_21
REMARK    5  A    between atoms: O_21  and  C_22
REMARK                            x       y       z     vdW  Elec       q    Type
REMARK                         _______ _______ _______ _____ _____    ______ ____
ROOT
ATOM      1  O   UNL     1      -0.687  13.496  19.873  0.00  0.00    +0.000 OA
ATOM      2  C   UNL     1       0.011  12.637  19.338  0.00  0.00    +0.000 C 
ATOM      3  N   UNL     1       1.355  12.761  19.040  0.00  0.00    +0.000 N 
ATOM      4  C   UNL     1       2.109  13.848  19.365  0.00  0.00    +0.000 A 
ATOM      5  N   UNL     1       1.880  14.817  20.215  0.00  0.00    +0.000 NA
ATOM      6  C   UNL     1       2.914  15.735  20.134  0.00  0.00    +0.000 A 
ATOM      7  C   UNL     1       3.885  15.428  19.214  0.00  0.00    +0.000 A 
ATOM      8 CL   UNL     1       5.253  16.353  18.767  0.00  0.00    +0.000 Cl
ATOM      9  S   UNL     1       3.582  13.925  18.492  0.00  0.00    +0.000 S 
ATOM     10  N   UNL     1      -0.516  11.401  18.879  0.00  0.00    +0.000 N 
ATOM     11  H   UNL     1       1.757  12.110  18.388  0.00  0.00    +0.000 HD
ENDROOT
BRANCH  10  12
ATOM     12  C   UNL     1       0.309  10.249  19.057  0.00  0.00    +0.000 A 
ATOM     13  C   UNL     1       0.493   9.683  20.328  0.00  0.00    +0.000 A 
ATOM     14  C   UNL     1       1.327   8.575  20.484  0.00  0.00    +0.000 A 
ATOM     15  C   UNL     1       1.986   8.042  19.375  0.00  0.00    +0.000 A 
ATOM     16  C   UNL     1       1.872   8.667  18.128  0.00  0.00    +0.000 A 
ATOM     17  C   UNL     1       1.002   9.746  17.957  0.00  0.00    +0.000 A 
BRANCH  15  18
ATOM     18  O   UNL     1       2.766   6.930  19.600  0.00  0.00    +0.000 OA
BRANCH  18  19
ATOM     19  C   UNL     1       2.200   5.678  19.494  0.00  0.00    +0.000 A 
ATOM     20  C   UNL     1       2.233   5.092  18.227  0.00  0.00    +0.000 A 
ATOM     21  C   UNL     1       1.659   3.838  18.019  0.00  0.00    +0.000 A 
ATOM     22  C   UNL     1       1.050   3.164  19.078  0.00  0.00    +0.000 A 
ATOM     23  C   UNL     1       1.048   3.727  20.352  0.00  0.00    +0.000 A 
ATOM     24  C   UNL     1       1.650   4.967  20.567  0.00  0.00    +0.000 A 
ENDBRANCH  18  19
ENDBRANCH  15  18
ENDBRANCH  10  12
BRANCH  10  25
ATOM     25  C   UNL     1      -1.954  11.121  19.081  0.00  0.00    +0.000 C 
BRANCH  25  26
ATOM     26  C   UNL     1      -2.836  11.020  17.821  0.00  0.00    +0.000 C 
ATOM     27  C   UNL     1      -2.212  11.576  16.543  0.00  0.00    +0.000 C 
ATOM     28  C   UNL     1      -3.008  10.917  15.419  0.00  0.00    +0.000 C 
ATOM     29  C   UNL     1      -3.450   9.558  15.958  0.00  0.00    +0.000 C 
ATOM     30  C   UNL     1      -3.097   9.553  17.442  0.00  0.00    +0.000 C 
ENDBRANCH  25  26
ENDBRANCH  10  25
TORSDOF 5
ENDMDL
MODEL 5
REMARK VINA RESULT:      -8.2      0.175      1.280
REMARK  Name = 
REMARK  5 active torsions:
REMARK  status: ('A' for Active; 'I' for Inactive)
REMARK    1  A    between atoms: N_10  and  C_11
REMARK    2  A    between atoms: N_10  and  C_17
REMARK    3  A    between atoms: C_11  and  C_12
REMARK    4  A    between atoms: C_20  and  O_21
REMARK    5  A    between atoms: O_21  and  C_22
REMARK                            x       y       z     vdW  Elec       q    Type
REMARK                         _______ _______ _______ _____ _____    ______ ____
ROOT
ATOM      1  O   UNL     1      -0.413  13.268  19.629  0.00  0.00    +0.000 OA
ATOM      2  C   UNL     1       0.298  12.393  19.139  0.00  0.00    +0.000 C 
ATOM      3  N   UNL     1       1.661  12.488  18.927  0.00  0.00    +0.000 N 
ATOM      4  C   UNL     1       2.416  13.560  19.299  0.00  0.00    +0.000 A 
ATOM      5  N   UNL     1       2.154  14.535  20.132  0.00  0.00    +0.000 NA
ATOM      6  C   UNL     1       3.210  15.431  20.116  0.00  0.00    +0.000 A 
ATOM      7  C   UNL     1       4.231  15.102  19.260  0.00  0.00    +0.000 A 
ATOM      8 CL   UNL     1       5.643  15.997  18.900  0.00  0.00    +0.000 Cl
ATOM      9  S   UNL     1       3.942  13.604  18.520  0.00  0.00    +0.000 S 
ATOM     10  N   UNL     1      -0.225  11.168  18.649  0.00  0.00    +0.000 N 
ATOM     11  H   UNL     1       2.090  11.828  18.302  0.00  0.00    +0.000 HD
ENDROOT
BRANCH  10  12
ATOM     12  C   UNL     1       0.564   9.999  18.879  0.00  0.00    +0.000 A 
ATOM     13  C   UNL     1       0.670   9.442  20.162  0.00  0.00    +0.000 A 
ATOM     14  C   UNL     1       1.469   8.317  20.370  0.00  0.00    +0.000 A 
ATOM     15  C   UNL     1       2.170   7.757  19.301  0.00  0.00    +0.000 A 
ATOM     16  C   UNL     1       2.133   8.372  18.044  0.00  0.00    +0.000 A 
ATOM     17  C   UNL     1       1.299   9.468  17.820  0.00  0.00    +0.000 A 
BRANCH  15  18
ATOM     18  O   UNL     1       2.911   6.630  19.576  0.00  0.00    +0.000 OA
BRANCH  18  19
ATOM     19  C   UNL     1       2.300   5.396  19.537  0.00  0.00    +0.000 A 
ATOM     20  C   UNL     1       1.978   4.828  20.772  0.00  0.00    +0.000 A 
ATOM     21  C   UNL     1       1.382   3.568  20.831  0.00  0.00    +0.000 A 
ATOM     22  C   UNL     1       1.105   2.870  19.655  0.00  0.00    +0.000 A 
ATOM     23  C   UNL     1       1.389   3.448  18.419  0.00  0.00    +0.000 A 
ATOM     24  C   UNL     1       1.956   4.722  18.359  0.00  0.00    +0.000 A 
ENDBRANCH  18  19
ENDBRANCH  15  18
ENDBRANCH  10  12
BRANCH  10  25
ATOM     25  C   UNL     1      -1.678  10.918  18.759  0.00  0.00    +0.000 C 
BRANCH  25  26
ATOM     26  C   UNL     1      -2.556  11.327  17.560  0.00  0.00    +0.000 C 
ATOM     27  C   UNL     1      -2.698  10.270  16.466  0.00  0.00    +0.000 C 
ATOM     28  C   UNL     1      -3.957  10.683  15.707  0.00  0.00    +0.000 C 
ATOM     29  C   UNL     1      -4.856  11.376  16.728  0.00  0.00    +0.000 C 
ATOM     30  C   UNL     1      -4.015  11.547  17.990  0.00  0.00    +0.000 C 
ENDBRANCH  25  26
ENDBRANCH  10  25
TORSDOF 5
ENDMDL
MODEL 6
REMARK VINA RESULT:      -8.0      1.062      1.888
REMARK  Name = 
REMARK  5 active torsions:
REMARK  status: ('A' for Active; 'I' for Inactive)
REMARK    1  A    between atoms: N_10  and  C_11
REMARK    2  A    between atoms: N_10  and  C_17
REMARK    3  A    between atoms: C_11  and  C_12
REMARK    4  A    between atoms: C_20  and  O_21
REMARK    5  A    between atoms: O_21  and  C_22
REMARK                            x       y       z     vdW  Elec       q    Type
REMARK                         _______ _______ _______ _____ _____    ______ ____
ROOT
ATOM      1  O   UNL     1      -1.047  12.901  19.679  0.00  0.00    +0.000 OA
ATOM      2  C   UNL     1      -0.262  12.120  19.146  0.00  0.00    +0.000 C 
ATOM      3  N   UNL     1       1.052  12.397  18.817  0.00  0.00    +0.000 N 
ATOM      4  C   UNL     1       1.677  13.573  19.105  0.00  0.00    +0.000 A 
ATOM      5  N   UNL     1       1.350  14.525  19.941  0.00  0.00    +0.000 NA
ATOM      6  C   UNL     1       2.265  15.558  19.821  0.00  0.00    +0.000 A 
ATOM      7  C   UNL     1       3.248  15.349  18.887  0.00  0.00    +0.000 A 
ATOM      8 CL   UNL     1       4.487  16.421  18.394  0.00  0.00    +0.000 Cl
ATOM      9  S   UNL     1       3.113  13.806  18.200  0.00  0.00    +0.000 S 
ATOM     10  N   UNL     1      -0.646  10.821  18.721  0.00  0.00    +0.000 N 
ATOM     11  H   UNL     1       1.517  11.785  18.169  0.00  0.00    +0.000 HD
ENDROOT
BRANCH  10  12
ATOM     12  C   UNL     1       0.314   9.779  18.903  0.00  0.00    +0.000 A 
ATOM     13  C   UNL     1       0.585   9.263  20.179  0.00  0.00    +0.000 A 
ATOM     14  C   UNL     1       1.548   8.266  20.338  0.00  0.00    +0.000 A 
ATOM     15  C   UNL     1       2.248   7.795  19.227  0.00  0.00    +0.000 A 
ATOM     16  C   UNL     1       2.039   8.378  17.971  0.00  0.00    +0.000 A 
ATOM     17  C   UNL     1       1.045   9.342  17.799  0.00  0.00    +0.000 A 
BRANCH  15  18
ATOM     18  O   UNL     1       3.160   6.788  19.456  0.00  0.00    +0.000 OA
BRANCH  18  19
ATOM     19  C   UNL     1       3.147   5.671  18.649  0.00  0.00    +0.000 A 
ATOM     20  C   UNL     1       2.008   4.867  18.728  0.00  0.00    +0.000 A 
ATOM     21  C   UNL     1       1.920   3.700  17.968  0.00  0.00    +0.000 A 
ATOM     22  C   UNL     1       2.969   3.334  17.125  0.00  0.00    +0.000 A 
ATOM     23  C   UNL     1       4.091   4.152  17.014  0.00  0.00    +0.000 A 
ATOM     24  C   UNL     1       4.166   5.336  17.750  0.00  0.00    +0.000 A 
ENDBRANCH  18  19
ENDBRANCH  15  18
ENDBRANCH  10  12
BRANCH  10  25
ATOM     25  C   UNL     1      -2.037  10.376  18.958  0.00  0.00    +0.000 C 
BRANCH  25  26
ATOM     26  C   UNL     1      -2.945  10.213  17.724  0.00  0.00    +0.000 C 
ATOM     27  C   UNL     1      -3.781  11.439  17.364  0.00  0.00    +0.000 C 
ATOM     28  C   UNL     1      -4.158  11.219  15.901  0.00  0.00    +0.000 C 
ATOM     29  C   UNL     1      -3.013  10.417  15.287  0.00  0.00    +0.000 C 
ATOM     30  C   UNL     1      -2.115  10.001  16.448  0.00  0.00    +0.000 C 
ENDBRANCH  25  26
ENDBRANCH  10  25
TORSDOF 5
ENDMDL
MODEL 7
REMARK VINA RESULT:      -7.9      0.755      1.248
REMARK  Name = 
REMARK  5 active torsions:
REMARK  status: ('A' for Active; 'I' for Inactive)
REMARK    1  A    between atoms: N_10  and  C_11
REMARK    2  A    between atoms: N_10  and  C_17
REMARK    3  A    between atoms: C_11  and  C_12
REMARK    4  A    between atoms: C_20  and  O_21
REMARK    5  A    between atoms: O_21  and  C_22
REMARK                            x       y       z     vdW  Elec       q    Type
REMARK                         _______ _______ _______ _____ _____    ______ ____
ROOT
ATOM      1  O   UNL     1      -0.510  13.105  19.585  0.00  0.00    +0.000 OA
ATOM      2  C   UNL     1       0.277  12.303  19.088  0.00  0.00    +0.000 C 
ATOM      3  N   UNL     1       1.631  12.513  18.899  0.00  0.00    +0.000 N 
ATOM      4  C   UNL     1       2.290  13.635  19.305  0.00  0.00    +0.000 A 
ATOM      5  N   UNL     1       1.938  14.566  20.154  0.00  0.00    +0.000 NA
ATOM      6  C   UNL     1       2.917  15.546  20.174  0.00  0.00    +0.000 A 
ATOM      7  C   UNL     1       3.972  15.320  19.326  0.00  0.00    +0.000 A 
ATOM      8 CL   UNL     1       5.312  16.336  19.008  0.00  0.00    +0.000 Cl
ATOM      9  S   UNL     1       3.818  13.821  18.551  0.00  0.00    +0.000 S 
ATOM     10  N   UNL     1      -0.137  11.050  18.563  0.00  0.00    +0.000 N 
ATOM     11  H   UNL     1       2.120  11.905  18.267  0.00  0.00    +0.000 HD
ENDROOT
BRANCH  10  12
ATOM     12  C   UNL     1       0.741   9.945  18.780  0.00  0.00    +0.000 A 
ATOM     13  C   UNL     1       1.487   9.399  17.725  0.00  0.00    +0.000 A 
ATOM     14  C   UNL     1       2.317   8.300  17.953  0.00  0.00    +0.000 A 
ATOM     15  C   UNL     1       2.392   7.741  19.230  0.00  0.00    +0.000 A 
ATOM     16  C   UNL     1       1.576   8.232  20.256  0.00  0.00    +0.000 A 
ATOM     17  C   UNL     1       0.780   9.359  20.045  0.00  0.00    +0.000 A 
BRANCH  15  18
ATOM     18  O   UNL     1       3.256   6.680  19.386  0.00  0.00    +0.000 OA
BRANCH  18  19
ATOM     19  C   UNL     1       3.050   5.531  18.653  0.00  0.00    +0.000 A 
ATOM     20  C   UNL     1       1.825   4.889  18.844  0.00  0.00    +0.000 A 
ATOM     21  C   UNL     1       1.541   3.704  18.166  0.00  0.00    +0.000 A 
ATOM     22  C   UNL     1       2.482   3.156  17.293  0.00  0.00    +0.000 A 
ATOM     23  C   UNL     1       3.690   3.812  17.070  0.00  0.00    +0.000 A 
ATOM     24  C   UNL     1       3.961   5.015  17.725  0.00  0.00    +0.000 A 
ENDBRANCH  18  19
ENDBRANCH  15  18
ENDBRANCH  10  12
BRANCH  10  25
ATOM     25  C   UNL     1      -1.567  10.681  18.645  0.00  0.00    +0.000 C 
BRANCH  25  26
ATOM     26  C   UNL     1      -2.476  11.117  17.480  0.00  0.00    +0.000 C 
ATOM     27  C   UNL     1      -2.720  10.055  16.411  0.00  0.00    +0.000 C 
ATOM     28  C   UNL     1      -3.989  10.522  15.701  0.00  0.00    +0.000 C 
ATOM     29  C   UNL     1      -4.805  11.274  16.750  0.00  0.00    +0.000 C 
ATOM     30  C   UNL     1      -3.901  11.418  17.970  0.00  0.00    +0.000 C 
ENDBRANCH  25  26
ENDBRANCH  10  25
TORSDOF 5
ENDMDL
MODEL 8
REMARK VINA RESULT:      -7.9      1.640      1.962
REMARK  Name = 
REMARK  5 active torsions:
REMARK  status: ('A' for Active; 'I' for Inactive)
REMARK    1  A    between atoms: N_10  and  C_11
REMARK    2  A    between atoms: N_10  and  C_17
REMARK    3  A    between atoms: C_11  and  C_12
REMARK    4  A    between atoms: C_20  and  O_21
REMARK    5  A    between atoms: O_21  and  C_22
REMARK                            x       y       z     vdW  Elec       q    Type
REMARK                         _______ _______ _______ _____ _____    ______ ____
ROOT
ATOM      1  O   UNL     1      -1.683  13.251  20.337  0.00  0.00    +0.000 OA
ATOM      2  C   UNL     1      -0.710  12.606  19.952  0.00  0.00    +0.000 C 
ATOM      3  N   UNL     1       0.610  12.880  20.259  0.00  0.00    +0.000 N 
ATOM      4  C   UNL     1       1.006  13.881  21.095  0.00  0.00    +0.000 A 
ATOM      5  N   UNL     1       0.324  14.573  21.972  0.00  0.00    +0.000 NA
ATOM      6  C   UNL     1       1.155  15.535  22.524  0.00  0.00    +0.000 A 
ATOM      7  C   UNL     1       2.435  15.539  22.031  0.00  0.00    +0.000 A 
ATOM      8 CL   UNL     1       3.707  16.624  22.394  0.00  0.00    +0.000 Cl
ATOM      9  S   UNL     1       2.667  14.270  20.932  0.00  0.00    +0.000 S 
ATOM     10  N   UNL     1      -0.824  11.512  19.056  0.00  0.00    +0.000 N 
ATOM     11  H   UNL     1       1.325  12.451  19.697  0.00  0.00    +0.000 HD
ENDROOT
BRANCH  10  12
ATOM     12  C   UNL     1       0.044  10.402  19.289  0.00  0.00    +0.000 A 
ATOM     13  C   UNL     1       0.970   9.994  18.317  0.00  0.00    +0.000 A 
ATOM     14  C   UNL     1       1.788   8.889  18.554  0.00  0.00    +0.000 A 
ATOM     15  C   UNL     1       1.673   8.185  19.754  0.00  0.00    +0.000 A 
ATOM     16  C   UNL     1       0.685   8.540  20.679  0.00  0.00    +0.000 A 
ATOM     17  C   UNL     1      -0.104   9.672  20.468  0.00  0.00    +0.000 A 
BRANCH  15  18
ATOM     18  O   UNL     1       2.536   7.126  19.930  0.00  0.00    +0.000 OA
BRANCH  18  19
ATOM     19  C   UNL     1       2.140   5.864  19.544  0.00  0.00    +0.000 A 
ATOM     20  C   UNL     1       1.599   5.055  20.544  0.00  0.00    +0.000 A 
ATOM     21  C   UNL     1       1.197   3.751  20.251  0.00  0.00    +0.000 A 
ATOM     22  C   UNL     1       1.335   3.252  18.955  0.00  0.00    +0.000 A 
ATOM     23  C   UNL     1       1.839   4.069  17.945  0.00  0.00    +0.000 A 
ATOM     24  C   UNL     1       2.211   5.383  18.231  0.00  0.00    +0.000 A 
ENDBRANCH  18  19
ENDBRANCH  15  18
ENDBRANCH  10  12
BRANCH  10  25
ATOM     25  C   UNL     1      -2.169  11.109  18.591  0.00  0.00    +0.000 C 
BRANCH  25  26
ATOM     26  C   UNL     1      -2.415  11.097  17.069  0.00  0.00    +0.000 C 
ATOM     27  C   UNL     1      -2.018   9.806  16.355  0.00  0.00    +0.000 C 
ATOM     28  C   UNL     1      -2.802   9.846  15.046  0.00  0.00    +0.000 C 
ATOM     29  C   UNL     1      -4.084  10.619  15.346  0.00  0.00    +0.000 C 
ATOM     30  C   UNL     1      -3.914  11.197  16.748  0.00  0.00    +0.000 C 
ENDBRANCH  25  26
ENDBRANCH  10  25
TORSDOF 5
ENDMDL
MODEL 9
REMARK VINA RESULT:      -7.8      0.914      1.235
REMARK  Name = 
REMARK  5 active torsions:
REMARK  status: ('A' for Active; 'I' for Inactive)
REMARK    1  A    between atoms: N_10  and  C_11
REMARK    2  A    between atoms: N_10  and  C_17
REMARK    3  A    between atoms: C_11  and  C_12
REMARK    4  A    between atoms: C_20  and  O_21
REMARK    5  A    between atoms: O_21  and  C_22
REMARK                            x       y       z     vdW  Elec       q    Type
REMARK                         _______ _______ _______ _____ _____    ______ ____
ROOT
ATOM      1  O   UNL     1      -0.665  13.236  19.861  0.00  0.00    +0.000 OA
ATOM      2  C   UNL     1       0.068  12.414  19.315  0.00  0.00    +0.000 C 
ATOM      3  N   UNL     1       1.395  12.615  18.982  0.00  0.00    +0.000 N 
ATOM      4  C   UNL     1       2.091  13.748  19.280  0.00  0.00    +0.000 A 
ATOM      5  N   UNL     1       1.826  14.709  20.128  0.00  0.00    +0.000 NA
ATOM      6  C   UNL     1       2.801  15.686  20.014  0.00  0.00    +0.000 A 
ATOM      7  C   UNL     1       3.766  15.429  19.073  0.00  0.00    +0.000 A 
ATOM      8 CL   UNL     1       5.064  16.430  18.585  0.00  0.00    +0.000 Cl
ATOM      9  S   UNL     1       3.535  13.905  18.369  0.00  0.00    +0.000 S 
ATOM     10  N   UNL     1      -0.396  11.146  18.879  0.00  0.00    +0.000 N 
ATOM     11  H   UNL     1       1.819  11.984  18.325  0.00  0.00    +0.000 HD
ENDROOT
BRANCH  10  12
ATOM     12  C   UNL     1       0.501  10.046  19.044  0.00  0.00    +0.000 A 
ATOM     13  C   UNL     1       1.212   9.526  17.952  0.00  0.00    +0.000 A 
ATOM     14  C   UNL     1       2.061   8.433  18.130  0.00  0.00    +0.000 A 
ATOM     15  C   UNL     1       2.190   7.853  19.393  0.00  0.00    +0.000 A 
ATOM     16  C   UNL     1       1.408   8.318  20.457  0.00  0.00    +0.000 A 
ATOM     17  C   UNL     1       0.594   9.440  20.295  0.00  0.00    +0.000 A 
BRANCH  15  18
ATOM     18  O   UNL     1       3.070   6.799  19.498  0.00  0.00    +0.000 OA
BRANCH  18  19
ATOM     19  C   UNL     1       2.799   5.626  18.827  0.00  0.00    +0.000 A 
ATOM     20  C   UNL     1       3.740   5.229  17.876  0.00  0.00    +0.000 A 
ATOM     21  C   UNL     1       3.534   4.069  17.128  0.00  0.00    +0.000 A 
ATOM     22  C   UNL     1       2.387   3.302  17.329  0.00  0.00    +0.000 A 
ATOM     23  C   UNL     1       1.463   3.673  18.303  0.00  0.00    +0.000 A 
ATOM     24  C   UNL     1       1.684   4.816  19.074  0.00  0.00    +0.000 A 
ENDBRANCH  18  19
ENDBRANCH  15  18
ENDBRANCH  10  12
BRANCH  10  25
ATOM     25  C   UNL     1      -1.809  10.783  19.118  0.00  0.00    +0.000 C 
BRANCH  25  26
ATOM     26  C   UNL     1      -2.762  10.822  17.907  0.00  0.00    +0.000 C 
ATOM     27  C   UNL     1      -2.236  11.577  16.688  0.00  0.00    +0.000 C 
ATOM     28  C   UNL     1      -3.076  11.048  15.529  0.00  0.00    +0.000 C 
ATOM     29  C   UNL     1      -3.440   9.611  15.893  0.00  0.00    +0.000 C 
ATOM     30  C   UNL     1      -2.997   9.413  17.340  0.00  0.00    +0.000 C 
ENDBRANCH  25  26
ENDBRANCH  10  25
TORSDOF 5
ENDMDL
