MODEL 1
REMARK VINA RESULT:      -7.3      0.000      0.000
REMARK  Name = 
REMARK  16 active torsions:
REMARK  status: ('A' for Active; 'I' for Inactive)
REMARK    1  A    between atoms: C_1  and  C_2
REMARK    2  A    between atoms: C_2  and  O_4
REMARK    3  A    between atoms: O_4  and  C_5
REMARK    4  A    between atoms: C_5  and  C_6
REMARK    5  A    between atoms: C_8  and  N_9
REMARK    6  A    between atoms: C_12  and  N_13
REMARK    7  A    between atoms: N_14  and  N_15
REMARK    8  A    between atoms: N_15  and  C_16
REMARK    9  A    between atoms: N_15  and  C_17
REMARK   10  A    between atoms: C_18  and  C_19
REMARK   11  A    between atoms: C_22  and  O_23
REMARK   12  A    between atoms: O_23  and  C_24
REMARK   13  A    between atoms: C_24  and  C_25
REMARK   14  A    between atoms: C_27  and  O_28
REMARK   15  A    between atoms: O_28  and  C_29
REMARK   16  A    between atoms: C_29  and  C_30
REMARK                            x       y       z     vdW  Elec       q    Type
REMARK                         _______ _______ _______ _____ _____    ______ ____
ROOT
ATOM      1  C   UNL     1       6.244   4.280  17.818  0.00  0.00    +0.000 C 
ATOM      2  O   UNL     1       5.419   4.731  18.900  0.00  0.00    +0.000 OA
ATOM      3  C   UNL     1       4.038   4.492  18.535  0.00  0.00    +0.000 C 
ATOM      4  C   UNL     1       4.010   4.048  17.058  0.00  0.00    +0.000 C 
ATOM      5  C   UNL     1       5.401   4.436  16.556  0.00  0.00    +0.000 C 
ENDROOT
BRANCH   3   6
ATOM      6  N   UNL     1       3.285   5.702  18.841  0.00  0.00    +0.000 N 
ATOM      7  C   UNL     1       3.478   6.914  18.236  0.00  0.00    +0.000 A 
ATOM      8  N   UNL     1       2.732   7.849  18.765  0.00  0.00    +0.000 NA
ATOM      9  C   UNL     1       2.030   7.229  19.769  0.00  0.00    +0.000 A 
ATOM     10  C   UNL     1       2.335   5.874  19.841  0.00  0.00    +0.000 A 
BRANCH  10  11
ATOM     11  C   UNL     1       1.846   4.829  20.702  0.00  0.00    +0.000 C 
ATOM     12  N   UNL     1       0.732   4.160  20.297  0.00  0.00    +0.000 N 
ATOM     13  O   UNL     1       2.373   4.516  21.766  0.00  0.00    +0.000 OA
ATOM     14  H   UNL     1       0.254   4.363  19.428  0.00  0.00    +0.000 HD
ATOM     15  H   UNL     1       0.378   3.419  20.888  0.00  0.00    +0.000 HD
ENDBRANCH  10  11
BRANCH   9  16
ATOM     16  N   UNL     1       1.073   7.859  20.584  0.00  0.00    +0.000 NA
ATOM     17  N   UNL     1       0.992   9.090  20.387  0.00  0.00    +0.000 NA
BRANCH  17  18
ATOM     18  N   UNL     1      -0.057   9.651  21.081  0.00  0.00    +0.000 N 
ATOM     19  C   UNL     1      -0.253   9.116  22.420  0.00  0.00    +0.000 C 
ATOM     20  C   UNL     1      -0.278  11.084  20.938  0.00  0.00    +0.000 C 
ENDBRANCH  17  18
ENDBRANCH   9  16
ENDBRANCH   3   6
BRANCH   1  21
ATOM     21  C   UNL     1       7.539   5.092  17.797  0.00  0.00    +0.000 C 
BRANCH  21  22
ATOM     22  O   UNL     1       7.402   6.365  18.443  0.00  0.00    +0.000 OA
BRANCH  22  24
ATOM     23  C   UNL     1       8.256   8.521  18.084  0.00  0.00    +0.000 C 
ATOM     24  C   UNL     1       7.352   7.434  17.600  0.00  0.00    +0.000 C 
ATOM     25  O   UNL     1       6.651   7.508  16.597  0.00  0.00    +0.000 OA
ENDBRANCH  22  24
ENDBRANCH  21  22
ENDBRANCH   1  21
BRANCH   4  26
ATOM     26  O   UNL     1       3.884   2.602  17.011  0.00  0.00    +0.000 OA
BRANCH  26  27
ATOM     27  C   UNL     1       2.983   2.043  17.861  0.00  0.00    +0.000 C 
ATOM     28  C   UNL     1       3.664   1.091  18.804  0.00  0.00    +0.000 C 
ATOM     29  O   UNL     1       1.780   2.248  17.859  0.00  0.00    +0.000 OA
ENDBRANCH  26  27
ENDBRANCH   4  26
BRANCH   5  30
ATOM     30  O   UNL     1       5.913   3.575  15.525  0.00  0.00    +0.000 OA
BRANCH  30  31
ATOM     31  C   UNL     1       5.971   4.100  14.273  0.00  0.00    +0.000 C 
ATOM     32  C   UNL     1       7.180   4.977  14.140  0.00  0.00    +0.000 C 
ATOM     33  O   UNL     1       5.164   3.874  13.384  0.00  0.00    +0.000 OA
ENDBRANCH  30  31
ENDBRANCH   5  30
TORSDOF 11
ENDMDL
MODEL 2
REMARK VINA RESULT:      -7.0      1.009      1.314
REMARK  Name = 
REMARK  16 active torsions:
REMARK  status: ('A' for Active; 'I' for Inactive)
REMARK    1  A    between atoms: C_1  and  C_2
REMARK    2  A    between atoms: C_2  and  O_4
REMARK    3  A    between atoms: O_4  and  C_5
REMARK    4  A    between atoms: C_5  and  C_6
REMARK    5  A    between atoms: C_8  and  N_9
REMARK    6  A    between atoms: C_12  and  N_13
REMARK    7  A    between atoms: N_14  and  N_15
REMARK    8  A    between atoms: N_15  and  C_16
REMARK    9  A    between atoms: N_15  and  C_17
REMARK   10  A    between atoms: C_18  and  C_19
REMARK   11  A    between atoms: C_22  and  O_23
REMARK   12  A    between atoms: O_23  and  C_24
REMARK   13  A    between atoms: C_24  and  C_25
REMARK   14  A    between atoms: C_27  and  O_28
REMARK   15  A    between atoms: O_28  and  C_29
REMARK   16  A    between atoms: C_29  and  C_30
REMARK                            x       y       z     vdW  Elec       q    Type
REMARK                         _______ _______ _______ _____ _____    ______ ____
ROOT
ATOM      1  C   UNL     1       6.311   4.496  17.848  0.00  0.00    +0.000 C 
ATOM      2  O   UNL     1       5.423   4.992  18.857  0.00  0.00    +0.000 OA
ATOM      3  C   UNL     1       4.066   4.780  18.397  0.00  0.00    +0.000 C 
ATOM      4  C   UNL     1       4.132   4.304  16.932  0.00  0.00    +0.000 C 
ATOM      5  C   UNL     1       5.566   4.645  16.525  0.00  0.00    +0.000 C 
ENDROOT
BRANCH   3   6
ATOM      6  N   UNL     1       3.326   6.015  18.623  0.00  0.00    +0.000 N 
ATOM      7  C   UNL     1       3.550   7.191  17.959  0.00  0.00    +0.000 A 
ATOM      8  N   UNL     1       2.808   8.163  18.422  0.00  0.00    +0.000 NA
ATOM      9  C   UNL     1       2.076   7.608  19.442  0.00  0.00    +0.000 A 
ATOM     10  C   UNL     1       2.358   6.254  19.592  0.00  0.00    +0.000 A 
BRANCH  10  11
ATOM     11  C   UNL     1       1.835   5.264  20.496  0.00  0.00    +0.000 C 
ATOM     12  N   UNL     1       2.584   4.965  21.592  0.00  0.00    +0.000 N 
ATOM     13  O   UNL     1       0.764   4.684  20.331  0.00  0.00    +0.000 OA
ATOM     14  H   UNL     1       3.470   5.411  21.792  0.00  0.00    +0.000 HD
ATOM     15  H   UNL     1       2.227   4.274  22.241  0.00  0.00    +0.000 HD
ENDBRANCH  10  11
BRANCH   9  16
ATOM     16  N   UNL     1       1.112   8.294  20.203  0.00  0.00    +0.000 NA
ATOM     17  N   UNL     1       1.610   9.013  21.095  0.00  0.00    +0.000 NA
BRANCH  17  18
ATOM     18  N   UNL     1       0.657   9.790  21.716  0.00  0.00    +0.000 N 
ATOM     19  C   UNL     1      -0.267  10.456  20.810  0.00  0.00    +0.000 C 
ATOM     20  C   UNL     1       0.073   9.290  22.954  0.00  0.00    +0.000 C 
ENDBRANCH  17  18
ENDBRANCH   9  16
ENDBRANCH   3   6
BRANCH   1  21
ATOM     21  C   UNL     1       7.626   5.274  17.904  0.00  0.00    +0.000 C 
BRANCH  21  22
ATOM     22  O   UNL     1       7.595   6.340  18.863  0.00  0.00    +0.000 OA
BRANCH  22  24
ATOM     23  C   UNL     1       7.336   7.831  17.070  0.00  0.00    +0.000 C 
ATOM     24  C   UNL     1       7.989   7.554  18.385  0.00  0.00    +0.000 C 
ATOM     25  O   UNL     1       8.781   8.307  18.940  0.00  0.00    +0.000 OA
ENDBRANCH  22  24
ENDBRANCH  21  22
ENDBRANCH   1  21
BRANCH   4  26
ATOM     26  O   UNL     1       3.971   2.862  16.905  0.00  0.00    +0.000 OA
BRANCH  26  27
ATOM     27  C   UNL     1       2.989   2.345  17.690  0.00  0.00    +0.000 C 
ATOM     28  C   UNL     1       3.548   1.317  18.632  0.00  0.00    +0.000 C 
ATOM     29  O   UNL     1       1.806   2.641  17.635  0.00  0.00    +0.000 OA
ENDBRANCH  26  27
ENDBRANCH   4  26
BRANCH   5  30
ATOM     30  O   UNL     1       6.128   3.749  15.551  0.00  0.00    +0.000 OA
BRANCH  30  31
ATOM     31  C   UNL     1       6.664   4.321  14.441  0.00  0.00    +0.000 C 
ATOM     32  C   UNL     1       6.079   3.695  13.210  0.00  0.00    +0.000 C 
ATOM     33  O   UNL     1       7.487   5.223  14.449  0.00  0.00    +0.000 OA
ENDBRANCH  30  31
ENDBRANCH   5  30
TORSDOF 11
ENDMDL
MODEL 3
REMARK VINA RESULT:      -7.0      0.924      1.041
REMARK  Name = 
REMARK  16 active torsions:
REMARK  status: ('A' for Active; 'I' for Inactive)
REMARK    1  A    between atoms: C_1  and  C_2
REMARK    2  A    between atoms: C_2  and  O_4
REMARK    3  A    between atoms: O_4  and  C_5
REMARK    4  A    between atoms: C_5  and  C_6
REMARK    5  A    between atoms: C_8  and  N_9
REMARK    6  A    between atoms: C_12  and  N_13
REMARK    7  A    between atoms: N_14  and  N_15
REMARK    8  A    between atoms: N_15  and  C_16
REMARK    9  A    between atoms: N_15  and  C_17
REMARK   10  A    between atoms: C_18  and  C_19
REMARK   11  A    between atoms: C_22  and  O_23
REMARK   12  A    between atoms: O_23  and  C_24
REMARK   13  A    between atoms: C_24  and  C_25
REMARK   14  A    between atoms: C_27  and  O_28
REMARK   15  A    between atoms: O_28  and  C_29
REMARK   16  A    between atoms: C_29  and  C_30
REMARK                            x       y       z     vdW  Elec       q    Type
REMARK                         _______ _______ _______ _____ _____    ______ ____
ROOT
ATOM      1  C   UNL     1       6.455   4.548  18.309  0.00  0.00    +0.000 C 
ATOM      2  O   UNL     1       5.467   4.922  19.277  0.00  0.00    +0.000 OA
ATOM      3  C   UNL     1       4.164   4.614  18.724  0.00  0.00    +0.000 C 
ATOM      4  C   UNL     1       4.361   4.209  17.249  0.00  0.00    +0.000 C 
ATOM      5  C   UNL     1       5.781   4.690  16.948  0.00  0.00    +0.000 C 
ENDROOT
BRANCH   3   6
ATOM      6  N   UNL     1       3.305   5.770  18.949  0.00  0.00    +0.000 N 
ATOM      7  C   UNL     1       3.436   6.974  18.312  0.00  0.00    +0.000 A 
ATOM      8  N   UNL     1       2.593   7.863  18.768  0.00  0.00    +0.000 NA
ATOM      9  C   UNL     1       1.889   7.222  19.757  0.00  0.00    +0.000 A 
ATOM     10  C   UNL     1       2.293   5.899  19.893  0.00  0.00    +0.000 A 
BRANCH  10  11
ATOM     11  C   UNL     1       1.841   4.846  20.765  0.00  0.00    +0.000 C 
ATOM     12  N   UNL     1       0.629   4.290  20.492  0.00  0.00    +0.000 N 
ATOM     13  O   UNL     1       2.482   4.430  21.726  0.00  0.00    +0.000 OA
ATOM     14  H   UNL     1       0.053   4.581  19.711  0.00  0.00    +0.000 HD
ATOM     15  H   UNL     1       0.298   3.545  21.092  0.00  0.00    +0.000 HD
ENDBRANCH  10  11
BRANCH   9  16
ATOM     16  N   UNL     1       0.844   7.800  20.500  0.00  0.00    +0.000 NA
ATOM     17  N   UNL     1       1.215   8.760  21.208  0.00  0.00    +0.000 NA
BRANCH  17  18
ATOM     18  N   UNL     1       0.150   9.403  21.798  0.00  0.00    +0.000 N 
ATOM     19  C   UNL     1       0.180   9.415  23.253  0.00  0.00    +0.000 C 
ATOM     20  C   UNL     1      -0.342  10.622  21.169  0.00  0.00    +0.000 C 
ENDBRANCH  17  18
ENDBRANCH   9  16
ENDBRANCH   3   6
BRANCH   1  21
ATOM     21  C   UNL     1       7.690   5.434  18.478  0.00  0.00    +0.000 C 
BRANCH  21  22
ATOM     22  O   UNL     1       7.905   6.300  17.355  0.00  0.00    +0.000 OA
BRANCH  22  24
ATOM     23  C   UNL     1       8.450   8.280  18.491  0.00  0.00    +0.000 C 
ATOM     24  C   UNL     1       7.519   7.593  17.545  0.00  0.00    +0.000 C 
ATOM     25  O   UNL     1       6.538   8.118  17.032  0.00  0.00    +0.000 OA
ENDBRANCH  22  24
ENDBRANCH  21  22
ENDBRANCH   1  21
BRANCH   4  26
ATOM     26  O   UNL     1       4.330   2.760  17.158  0.00  0.00    +0.000 OA
BRANCH  26  27
ATOM     27  C   UNL     1       3.578   2.109  18.084  0.00  0.00    +0.000 C 
ATOM     28  C   UNL     1       2.114   2.286  17.799  0.00  0.00    +0.000 C 
ATOM     29  O   UNL     1       4.011   1.484  19.039  0.00  0.00    +0.000 OA
ENDBRANCH  26  27
ENDBRANCH   4  26
BRANCH   5  30
ATOM     30  O   UNL     1       6.478   3.888  15.979  0.00  0.00    +0.000 OA
BRANCH  30  31
ATOM     31  C   UNL     1       6.735   4.475  14.781  0.00  0.00    +0.000 C 
ATOM     32  C   UNL     1       5.841   3.897  13.724  0.00  0.00    +0.000 C 
ATOM     33  O   UNL     1       7.561   5.356  14.599  0.00  0.00    +0.000 OA
ENDBRANCH  30  31
ENDBRANCH   5  30
TORSDOF 11
ENDMDL
MODEL 4
REMARK VINA RESULT:      -6.9      1.126      1.341
REMARK  Name = 
REMARK  16 active torsions:
REMARK  status: ('A' for Active; 'I' for Inactive)
REMARK    1  A    between atoms: C_1  and  C_2
REMARK    2  A    between atoms: C_2  and  O_4
REMARK    3  A    between atoms: O_4  and  C_5
REMARK    4  A    between atoms: C_5  and  C_6
REMARK    5  A    between atoms: C_8  and  N_9
REMARK    6  A    between atoms: C_12  and  N_13
REMARK    7  A    between atoms: N_14  and  N_15
REMARK    8  A    between atoms: N_15  and  C_16
REMARK    9  A    between atoms: N_15  and  C_17
REMARK   10  A    between atoms: C_18  and  C_19
REMARK   11  A    between atoms: C_22  and  O_23
REMARK   12  A    between atoms: O_23  and  C_24
REMARK   13  A    between atoms: C_24  and  C_25
REMARK   14  A    between atoms: C_27  and  O_28
REMARK   15  A    between atoms: O_28  and  C_29
REMARK   16  A    between atoms: C_29  and  C_30
REMARK                            x       y       z     vdW  Elec       q    Type
REMARK                         _______ _______ _______ _____ _____    ______ ____
ROOT
ATOM      1  C   UNL     1       6.364   4.497  17.148  0.00  0.00    +0.000 C 
ATOM      2  O   UNL     1       5.612   5.070  18.225  0.00  0.00    +0.000 OA
ATOM      3  C   UNL     1       4.210   4.797  17.982  0.00  0.00    +0.000 C 
ATOM      4  C   UNL     1       4.085   4.190  16.570  0.00  0.00    +0.000 C 
ATOM      5  C   UNL     1       5.438   4.514  15.936  0.00  0.00    +0.000 C 
ENDROOT
BRANCH   3   6
ATOM      6  N   UNL     1       3.476   6.037  18.200  0.00  0.00    +0.000 N 
ATOM      7  C   UNL     1       3.706   7.207  17.530  0.00  0.00    +0.000 A 
ATOM      8  N   UNL     1       2.968   8.186  17.986  0.00  0.00    +0.000 NA
ATOM      9  C   UNL     1       2.232   7.640  19.008  0.00  0.00    +0.000 A 
ATOM     10  C   UNL     1       2.508   6.286  19.166  0.00  0.00    +0.000 A 
BRANCH  10  11
ATOM     11  C   UNL     1       1.979   5.303  20.075  0.00  0.00    +0.000 C 
ATOM     12  N   UNL     1       2.362   5.390  21.378  0.00  0.00    +0.000 N 
ATOM     13  O   UNL     1       1.212   4.404  19.741  0.00  0.00    +0.000 OA
ATOM     14  H   UNL     1       2.985   6.111  21.721  0.00  0.00    +0.000 HD
ATOM     15  H   UNL     1       1.995   4.710  22.031  0.00  0.00    +0.000 HD
ENDBRANCH  10  11
BRANCH   9  16
ATOM     16  N   UNL     1       1.270   8.334  19.764  0.00  0.00    +0.000 NA
ATOM     17  N   UNL     1       0.990   9.457  19.292  0.00  0.00    +0.000 NA
BRANCH  17  18
ATOM     18  N   UNL     1      -0.063  10.044  19.958  0.00  0.00    +0.000 N 
ATOM     19  C   UNL     1       0.307  10.748  21.176  0.00  0.00    +0.000 C 
ATOM     20  C   UNL     1      -1.106  10.674  19.159  0.00  0.00    +0.000 C 
ENDBRANCH  17  18
ENDBRANCH   9  16
ENDBRANCH   3   6
BRANCH   1  21
ATOM     21  C   UNL     1       7.653   5.296  16.949  0.00  0.00    +0.000 C 
BRANCH  21  22
ATOM     22  O   UNL     1       7.413   6.704  16.817  0.00  0.00    +0.000 OA
BRANCH  22  24
ATOM     23  C   UNL     1       7.822   8.910  17.505  0.00  0.00    +0.000 C 
ATOM     24  C   UNL     1       7.840   7.460  17.867  0.00  0.00    +0.000 C 
ATOM     25  O   UNL     1       8.208   7.018  18.949  0.00  0.00    +0.000 OA
ENDBRANCH  22  24
ENDBRANCH  21  22
ENDBRANCH   1  21
BRANCH   4  26
ATOM     26  O   UNL     1       3.961   2.749  16.694  0.00  0.00    +0.000 OA
BRANCH  26  27
ATOM     27  C   UNL     1       3.007   2.292  17.548  0.00  0.00    +0.000 C 
ATOM     28  C   UNL     1       3.624   1.463  18.639  0.00  0.00    +0.000 C 
ATOM     29  O   UNL     1       1.808   2.493  17.446  0.00  0.00    +0.000 OA
ENDBRANCH  26  27
ENDBRANCH   4  26
BRANCH   5  30
ATOM     30  O   UNL     1       5.883   3.540  14.976  0.00  0.00    +0.000 OA
BRANCH  30  31
ATOM     31  C   UNL     1       6.327   4.024  13.786  0.00  0.00    +0.000 C 
ATOM     32  C   UNL     1       5.703   3.256  12.657  0.00  0.00    +0.000 C 
ATOM     33  O   UNL     1       7.104   4.956  13.658  0.00  0.00    +0.000 OA
ENDBRANCH  30  31
ENDBRANCH   5  30
TORSDOF 11
ENDMDL
MODEL 5
REMARK VINA RESULT:      -6.8      1.382      1.649
REMARK  Name = 
REMARK  16 active torsions:
REMARK  status: ('A' for Active; 'I' for Inactive)
REMARK    1  A    between atoms: C_1  and  C_2
REMARK    2  A    between atoms: C_2  and  O_4
REMARK    3  A    between atoms: O_4  and  C_5
REMARK    4  A    between atoms: C_5  and  C_6
REMARK    5  A    between atoms: C_8  and  N_9
REMARK    6  A    between atoms: C_12  and  N_13
REMARK    7  A    between atoms: N_14  and  N_15
REMARK    8  A    between atoms: N_15  and  C_16
REMARK    9  A    between atoms: N_15  and  C_17
REMARK   10  A    between atoms: C_18  and  C_19
REMARK   11  A    between atoms: C_22  and  O_23
REMARK   12  A    between atoms: O_23  and  C_24
REMARK   13  A    between atoms: C_24  and  C_25
REMARK   14  A    between atoms: C_27  and  O_28
REMARK   15  A    between atoms: O_28  and  C_29
REMARK   16  A    between atoms: C_29  and  C_30
REMARK                            x       y       z     vdW  Elec       q    Type
REMARK                         _______ _______ _______ _____ _____    ______ ____
ROOT
ATOM      1  C   UNL     1       6.292   5.537  17.611  0.00  0.00    +0.000 C 
ATOM      2  O   UNL     1       5.407   6.207  18.517  0.00  0.00    +0.000 OA
ATOM      3  C   UNL     1       4.060   5.751  18.244  0.00  0.00    +0.000 C 
ATOM      4  C   UNL     1       4.103   4.897  16.960  0.00  0.00    +0.000 C 
ATOM      5  C   UNL     1       5.466   5.244  16.361  0.00  0.00    +0.000 C 
ENDROOT
BRANCH   3   6
ATOM      6  N   UNL     1       3.199   6.926  18.187  0.00  0.00    +0.000 N 
ATOM      7  C   UNL     1       3.256   7.887  17.216  0.00  0.00    +0.000 A 
ATOM      8  N   UNL     1       2.434   8.876  17.458  0.00  0.00    +0.000 NA
ATOM      9  C   UNL     1       1.823   8.558  18.645  0.00  0.00    +0.000 A 
ATOM     10  C   UNL     1       2.263   7.332  19.131  0.00  0.00    +0.000 A 
BRANCH  10  11
ATOM     11  C   UNL     1       1.901   6.585  20.308  0.00  0.00    +0.000 C 
ATOM     12  N   UNL     1       1.675   7.292  21.448  0.00  0.00    +0.000 N 
ATOM     13  O   UNL     1       1.789   5.362  20.334  0.00  0.00    +0.000 OA
ATOM     14  H   UNL     1       1.743   8.301  21.493  0.00  0.00    +0.000 HD
ATOM     15  H   UNL     1       1.414   6.782  22.283  0.00  0.00    +0.000 HD
ENDBRANCH  10  11
BRANCH   9  16
ATOM     16  N   UNL     1       0.829   9.334  19.268  0.00  0.00    +0.000 NA
ATOM     17  N   UNL     1       1.274  10.063  20.181  0.00  0.00    +0.000 NA
BRANCH  17  18
ATOM     18  N   UNL     1       0.312  10.923  20.663  0.00  0.00    +0.000 N 
ATOM     19  C   UNL     1      -0.158  10.615  22.005  0.00  0.00    +0.000 C 
ATOM     20  C   UNL     1       0.451  12.340  20.355  0.00  0.00    +0.000 C 
ENDBRANCH  17  18
ENDBRANCH   9  16
ENDBRANCH   3   6
BRANCH   1  21
ATOM     21  C   UNL     1       7.512   6.420  17.348  0.00  0.00    +0.000 C 
BRANCH  21  22
ATOM     22  O   UNL     1       7.158   7.782  17.074  0.00  0.00    +0.000 OA
BRANCH  22  24
ATOM     23  C   UNL     1       8.632   8.056  18.880  0.00  0.00    +0.000 C 
ATOM     24  C   UNL     1       7.866   8.711  17.776  0.00  0.00    +0.000 C 
ATOM     25  O   UNL     1       7.863   9.916  17.553  0.00  0.00    +0.000 OA
ENDBRANCH  22  24
ENDBRANCH  21  22
ENDBRANCH   1  21
BRANCH   4  26
ATOM     26  O   UNL     1       4.103   3.494  17.337  0.00  0.00    +0.000 OA
BRANCH  26  27
ATOM     27  C   UNL     1       2.896   2.944  17.630  0.00  0.00    +0.000 C 
ATOM     28  C   UNL     1       3.065   1.707  18.466  0.00  0.00    +0.000 C 
ATOM     29  O   UNL     1       1.813   3.363  17.253  0.00  0.00    +0.000 OA
ENDBRANCH  26  27
ENDBRANCH   4  26
BRANCH   5  30
ATOM     30  O   UNL     1       6.073   4.170  15.623  0.00  0.00    +0.000 OA
BRANCH  30  31
ATOM     31  C   UNL     1       6.638   4.499  14.432  0.00  0.00    +0.000 C 
ATOM     32  C   UNL     1       5.968   3.745  13.322  0.00  0.00    +0.000 C 
ATOM     33  O   UNL     1       7.546   5.304  14.289  0.00  0.00    +0.000 OA
ENDBRANCH  30  31
ENDBRANCH   5  30
TORSDOF 11
ENDMDL
MODEL 6
REMARK VINA RESULT:      -6.7      2.083      3.701
REMARK  Name = 
REMARK  16 active torsions:
REMARK  status: ('A' for Active; 'I' for Inactive)
REMARK    1  A    between atoms: C_1  and  C_2
REMARK    2  A    between atoms: C_2  and  O_4
REMARK    3  A    between atoms: O_4  and  C_5
REMARK    4  A    between atoms: C_5  and  C_6
REMARK    5  A    between atoms: C_8  and  N_9
REMARK    6  A    between atoms: C_12  and  N_13
REMARK    7  A    between atoms: N_14  and  N_15
REMARK    8  A    between atoms: N_15  and  C_16
REMARK    9  A    between atoms: N_15  and  C_17
REMARK   10  A    between atoms: C_18  and  C_19
REMARK   11  A    between atoms: C_22  and  O_23
REMARK   12  A    between atoms: O_23  and  C_24
REMARK   13  A    between atoms: C_24  and  C_25
REMARK   14  A    between atoms: C_27  and  O_28
REMARK   15  A    between atoms: O_28  and  C_29
REMARK   16  A    between atoms: C_29  and  C_30
REMARK                            x       y       z     vdW  Elec       q    Type
REMARK                         _______ _______ _______ _____ _____    ______ ____
ROOT
ATOM      1  C   UNL     1       5.013   5.259  19.144  0.00  0.00    +0.000 C 
ATOM      2  O   UNL     1       4.568   6.596  19.409  0.00  0.00    +0.000 OA
ATOM      3  C   UNL     1       3.196   6.525  19.868  0.00  0.00    +0.000 C 
ATOM      4  C   UNL     1       2.712   5.072  19.685  0.00  0.00    +0.000 C 
ATOM      5  C   UNL     1       3.766   4.474  18.752  0.00  0.00    +0.000 C 
ENDROOT
BRANCH   3   6
ATOM      6  N   UNL     1       2.436   7.536  19.145  0.00  0.00    +0.000 N 
ATOM      7  C   UNL     1       2.582   7.816  17.813  0.00  0.00    +0.000 A 
ATOM      8  N   UNL     1       1.843   8.829  17.442  0.00  0.00    +0.000 NA
ATOM      9  C   UNL     1       1.195   9.242  18.580  0.00  0.00    +0.000 A 
ATOM     10  C   UNL     1       1.527   8.446  19.671  0.00  0.00    +0.000 A 
BRANCH  10  11
ATOM     11  C   UNL     1       1.093   8.476  21.044  0.00  0.00    +0.000 C 
ATOM     12  N   UNL     1      -0.237   8.313  21.279  0.00  0.00    +0.000 N 
ATOM     13  O   UNL     1       1.850   8.639  21.998  0.00  0.00    +0.000 OA
ATOM     14  H   UNL     1      -0.913   8.167  20.540  0.00  0.00    +0.000 HD
ATOM     15  H   UNL     1      -0.558   8.327  22.239  0.00  0.00    +0.000 HD
ENDBRANCH  10  11
BRANCH   9  16
ATOM     16  N   UNL     1       0.262  10.294  18.636  0.00  0.00    +0.000 NA
ATOM     17  N   UNL     1      -0.709  10.130  17.868  0.00  0.00    +0.000 NA
BRANCH  17  18
ATOM     18  N   UNL     1      -1.679  11.090  18.058  0.00  0.00    +0.000 N 
ATOM     19  C   UNL     1      -1.180  12.364  18.552  0.00  0.00    +0.000 C 
ATOM     20  C   UNL     1      -2.756  11.172  17.080  0.00  0.00    +0.000 C 
ENDBRANCH  17  18
ENDBRANCH   9  16
ENDBRANCH   3   6
BRANCH   1  21
ATOM     21  C   UNL     1       6.088   5.290  18.057  0.00  0.00    +0.000 C 
BRANCH  21  22
ATOM     22  O   UNL     1       5.577   4.924  16.767  0.00  0.00    +0.000 OA
BRANCH  22  24
ATOM     23  C   UNL     1       6.159   4.007  14.687  0.00  0.00    +0.000 C 
ATOM     24  C   UNL     1       6.477   5.011  15.748  0.00  0.00    +0.000 C 
ATOM     25  O   UNL     1       7.426   5.785  15.710  0.00  0.00    +0.000 OA
ENDBRANCH  22  24
ENDBRANCH  21  22
ENDBRANCH   1  21
BRANCH   4  26
ATOM     26  O   UNL     1       2.785   4.394  20.966  0.00  0.00    +0.000 OA
BRANCH  26  27
ATOM     27  C   UNL     1       1.817   3.474  21.223  0.00  0.00    +0.000 C 
ATOM     28  C   UNL     1       0.700   3.587  20.225  0.00  0.00    +0.000 C 
ATOM     29  O   UNL     1       1.823   2.676  22.147  0.00  0.00    +0.000 OA
ENDBRANCH  26  27
ENDBRANCH   4  26
BRANCH   5  30
ATOM     30  O   UNL     1       3.998   3.069  18.954  0.00  0.00    +0.000 OA
BRANCH  30  31
ATOM     31  C   UNL     1       3.433   2.227  18.050  0.00  0.00    +0.000 C 
ATOM     32  C   UNL     1       2.628   3.009  17.055  0.00  0.00    +0.000 C 
ATOM     33  O   UNL     1       3.576   1.014  18.042  0.00  0.00    +0.000 OA
ENDBRANCH  30  31
ENDBRANCH   5  30
TORSDOF 11
ENDMDL
MODEL 7
REMARK VINA RESULT:      -6.7      1.594      1.983
REMARK  Name = 
REMARK  16 active torsions:
REMARK  status: ('A' for Active; 'I' for Inactive)
REMARK    1  A    between atoms: C_1  and  C_2
REMARK    2  A    between atoms: C_2  and  O_4
REMARK    3  A    between atoms: O_4  and  C_5
REMARK    4  A    between atoms: C_5  and  C_6
REMARK    5  A    between atoms: C_8  and  N_9
REMARK    6  A    between atoms: C_12  and  N_13
REMARK    7  A    between atoms: N_14  and  N_15
REMARK    8  A    between atoms: N_15  and  C_16
REMARK    9  A    between atoms: N_15  and  C_17
REMARK   10  A    between atoms: C_18  and  C_19
REMARK   11  A    between atoms: C_22  and  O_23
REMARK   12  A    between atoms: O_23  and  C_24
REMARK   13  A    between atoms: C_24  and  C_25
REMARK   14  A    between atoms: C_27  and  O_28
REMARK   15  A    between atoms: O_28  and  C_29
REMARK   16  A    between atoms: C_29  and  C_30
REMARK                            x       y       z     vdW  Elec       q    Type
REMARK                         _______ _______ _______ _____ _____    ______ ____
ROOT
ATOM      1  C   UNL     1       5.989   5.120  18.700  0.00  0.00    +0.000 C 
ATOM      2  O   UNL     1       4.918   5.805  19.363  0.00  0.00    +0.000 OA
ATOM      3  C   UNL     1       3.703   5.562  18.613  0.00  0.00    +0.000 C 
ATOM      4  C   UNL     1       4.092   4.847  17.303  0.00  0.00    +0.000 C 
ATOM      5  C   UNL     1       5.603   5.071  17.225  0.00  0.00    +0.000 C 
ENDROOT
BRANCH   3   6
ATOM      6  N   UNL     1       3.022   6.840  18.452  0.00  0.00    +0.000 N 
ATOM      7  C   UNL     1       3.175   7.675  17.380  0.00  0.00    +0.000 A 
ATOM      8  N   UNL     1       2.518   8.796  17.534  0.00  0.00    +0.000 NA
ATOM      9  C   UNL     1       1.920   8.699  18.766  0.00  0.00    +0.000 A 
ATOM     10  C   UNL     1       2.197   7.478  19.371  0.00  0.00    +0.000 A 
BRANCH  10  11
ATOM     11  C   UNL     1       1.783   6.921  20.633  0.00  0.00    +0.000 C 
ATOM     12  N   UNL     1       1.654   7.780  21.680  0.00  0.00    +0.000 N 
ATOM     13  O   UNL     1       1.543   5.729  20.809  0.00  0.00    +0.000 OA
ATOM     14  H   UNL     1       1.828   8.774  21.601  0.00  0.00    +0.000 HD
ATOM     15  H   UNL     1       1.358   7.405  22.572  0.00  0.00    +0.000 HD
ENDBRANCH  10  11
BRANCH   9  16
ATOM     16  N   UNL     1       1.078   9.676  19.328  0.00  0.00    +0.000 NA
ATOM     17  N   UNL     1       0.443  10.329  18.473  0.00  0.00    +0.000 NA
BRANCH  17  18
ATOM     18  N   UNL     1      -0.485  11.164  19.054  0.00  0.00    +0.000 N 
ATOM     19  C   UNL     1      -1.672  11.405  18.247  0.00  0.00    +0.000 C 
ATOM     20  C   UNL     1      -0.714  11.035  20.487  0.00  0.00    +0.000 C 
ENDBRANCH  17  18
ENDBRANCH   9  16
ENDBRANCH   3   6
BRANCH   1  21
ATOM     21  C   UNL     1       7.303   5.856  18.967  0.00  0.00    +0.000 C 
BRANCH  21  22
ATOM     22  O   UNL     1       7.861   6.437  17.781  0.00  0.00    +0.000 OA
BRANCH  22  24
ATOM     23  C   UNL     1       8.555   8.571  18.466  0.00  0.00    +0.000 C 
ATOM     24  C   UNL     1       7.616   7.768  17.624  0.00  0.00    +0.000 C 
ATOM     25  O   UNL     1       6.740   8.245  16.913  0.00  0.00    +0.000 OA
ENDBRANCH  22  24
ENDBRANCH  21  22
ENDBRANCH   1  21
BRANCH   4  26
ATOM     26  O   UNL     1       3.839   3.426  17.457  0.00  0.00    +0.000 OA
BRANCH  26  27
ATOM     27  C   UNL     1       2.684   3.079  18.083  0.00  0.00    +0.000 C 
ATOM     28  C   UNL     1       1.518   3.825  17.497  0.00  0.00    +0.000 C 
ATOM     29  O   UNL     1       2.587   2.294  19.012  0.00  0.00    +0.000 OA
ENDBRANCH  26  27
ENDBRANCH   4  26
BRANCH   5  30
ATOM     30  O   UNL     1       6.320   4.008  16.574  0.00  0.00    +0.000 OA
BRANCH  30  31
ATOM     31  C   UNL     1       6.787   4.270  15.325  0.00  0.00    +0.000 C 
ATOM     32  C   UNL     1       5.835   3.729  14.299  0.00  0.00    +0.000 C 
ATOM     33  O   UNL     1       7.820   4.872  15.078  0.00  0.00    +0.000 OA
ENDBRANCH  30  31
ENDBRANCH   5  30
TORSDOF 11
ENDMDL
MODEL 8
REMARK VINA RESULT:      -6.7      2.085      3.631
REMARK  Name = 
REMARK  16 active torsions:
REMARK  status: ('A' for Active; 'I' for Inactive)
REMARK    1  A    between atoms: C_1  and  C_2
REMARK    2  A    between atoms: C_2  and  O_4
REMARK    3  A    between atoms: O_4  and  C_5
REMARK    4  A    between atoms: C_5  and  C_6
REMARK    5  A    between atoms: C_8  and  N_9
REMARK    6  A    between atoms: C_12  and  N_13
REMARK    7  A    between atoms: N_14  and  N_15
REMARK    8  A    between atoms: N_15  and  C_16
REMARK    9  A    between atoms: N_15  and  C_17
REMARK   10  A    between atoms: C_18  and  C_19
REMARK   11  A    between atoms: C_22  and  O_23
REMARK   12  A    between atoms: O_23  and  C_24
REMARK   13  A    between atoms: C_24  and  C_25
REMARK   14  A    between atoms: C_27  and  O_28
REMARK   15  A    between atoms: O_28  and  C_29
REMARK   16  A    between atoms: C_29  and  C_30
REMARK                            x       y       z     vdW  Elec       q    Type
REMARK                         _______ _______ _______ _____ _____    ______ ____
ROOT
ATOM      1  C   UNL     1       5.037   5.633  18.706  0.00  0.00    +0.000 C 
ATOM      2  O   UNL     1       4.512   6.869  19.207  0.00  0.00    +0.000 OA
ATOM      3  C   UNL     1       3.128   6.649  19.572  0.00  0.00    +0.000 C 
ATOM      4  C   UNL     1       2.727   5.244  19.080  0.00  0.00    +0.000 C 
ATOM      5  C   UNL     1       3.850   4.889  18.103  0.00  0.00    +0.000 C 
ENDROOT
BRANCH   3   6
ATOM      6  N   UNL     1       2.347   7.752  19.024  0.00  0.00    +0.000 N 
ATOM      7  C   UNL     1       2.474   8.241  17.753  0.00  0.00    +0.000 A 
ATOM      8  N   UNL     1       1.719   9.290  17.554  0.00  0.00    +0.000 NA
ATOM      9  C   UNL     1       1.079   9.508  18.749  0.00  0.00    +0.000 A 
ATOM     10  C   UNL     1       1.433   8.554  19.697  0.00  0.00    +0.000 A 
BRANCH  10  11
ATOM     11  C   UNL     1       1.014   8.362  21.061  0.00  0.00    +0.000 C 
ATOM     12  N   UNL     1       1.849   8.811  22.037  0.00  0.00    +0.000 N 
ATOM     13  O   UNL     1      -0.041   7.822  21.383  0.00  0.00    +0.000 OA
ATOM     14  H   UNL     1       2.730   9.271  21.840  0.00  0.00    +0.000 HD
ATOM     15  H   UNL     1       1.567   8.688  23.001  0.00  0.00    +0.000 HD
ENDBRANCH  10  11
BRANCH   9  16
ATOM     16  N   UNL     1       0.134  10.525  18.978  0.00  0.00    +0.000 NA
ATOM     17  N   UNL     1      -0.920  10.374  18.325  0.00  0.00    +0.000 NA
BRANCH  17  18
ATOM     18  N   UNL     1      -1.882  11.290  18.687  0.00  0.00    +0.000 N 
ATOM     19  C   UNL     1      -1.359  12.555  19.179  0.00  0.00    +0.000 C 
ATOM     20  C   UNL     1      -3.078  11.383  17.860  0.00  0.00    +0.000 C 
ENDBRANCH  17  18
ENDBRANCH   9  16
ENDBRANCH   3   6
BRANCH   1  21
ATOM     21  C   UNL     1       6.153   5.926  17.703  0.00  0.00    +0.000 C 
BRANCH  21  22
ATOM     22  O   UNL     1       5.829   5.491  16.375  0.00  0.00    +0.000 OA
BRANCH  22  24
ATOM     23  C   UNL     1       6.124   3.944  14.636  0.00  0.00    +0.000 C 
ATOM     24  C   UNL     1       6.726   4.630  15.819  0.00  0.00    +0.000 C 
ATOM     25  O   UNL     1       7.861   4.427  16.237  0.00  0.00    +0.000 OA
ENDBRANCH  22  24
ENDBRANCH  21  22
ENDBRANCH   1  21
BRANCH   4  26
ATOM     26  O   UNL     1       2.782   4.326  20.204  0.00  0.00    +0.000 OA
BRANCH  26  27
ATOM     27  C   UNL     1       1.589   3.910  20.706  0.00  0.00    +0.000 C 
ATOM     28  C   UNL     1       1.785   2.760  21.653  0.00  0.00    +0.000 C 
ATOM     29  O   UNL     1       0.497   4.373  20.420  0.00  0.00    +0.000 OA
ENDBRANCH  26  27
ENDBRANCH   4  26
BRANCH   5  30
ATOM     30  O   UNL     1       4.145   3.484  18.035  0.00  0.00    +0.000 OA
BRANCH  30  31
ATOM     31  C   UNL     1       3.131   2.671  17.638  0.00  0.00    +0.000 C 
ATOM     32  C   UNL     1       3.194   1.372  18.385  0.00  0.00    +0.000 C 
ATOM     33  O   UNL     1       2.285   2.966  16.808  0.00  0.00    +0.000 OA
ENDBRANCH  30  31
ENDBRANCH   5  30
TORSDOF 11
ENDMDL
MODEL 9
REMARK VINA RESULT:      -6.7      2.069      3.649
REMARK  Name = 
REMARK  16 active torsions:
REMARK  status: ('A' for Active; 'I' for Inactive)
REMARK    1  A    between atoms: C_1  and  C_2
REMARK    2  A    between atoms: C_2  and  O_4
REMARK    3  A    between atoms: O_4  and  C_5
REMARK    4  A    between atoms: C_5  and  C_6
REMARK    5  A    between atoms: C_8  and  N_9
REMARK    6  A    between atoms: C_12  and  N_13
REMARK    7  A    between atoms: N_14  and  N_15
REMARK    8  A    between atoms: N_15  and  C_16
REMARK    9  A    between atoms: N_15  and  C_17
REMARK   10  A    between atoms: C_18  and  C_19
REMARK   11  A    between atoms: C_22  and  O_23
REMARK   12  A    between atoms: O_23  and  C_24
REMARK   13  A    between atoms: C_24  and  C_25
REMARK   14  A    between atoms: C_27  and  O_28
REMARK   15  A    between atoms: O_28  and  C_29
REMARK   16  A    between atoms: C_29  and  C_30
REMARK                            x       y       z     vdW  Elec       q    Type
REMARK                         _______ _______ _______ _____ _____    ______ ____
ROOT
ATOM      1  C   UNL     1       4.921   4.981  19.276  0.00  0.00    +0.000 C 
ATOM      2  O   UNL     1       4.562   6.348  19.511  0.00  0.00    +0.000 OA
ATOM      3  C   UNL     1       3.180   6.377  19.943  0.00  0.00    +0.000 C 
ATOM      4  C   UNL     1       2.602   4.957  19.771  0.00  0.00    +0.000 C 
ATOM      5  C   UNL     1       3.632   4.274  18.870  0.00  0.00    +0.000 C 
ENDROOT
BRANCH   3   6
ATOM      6  N   UNL     1       2.504   7.425  19.189  0.00  0.00    +0.000 N 
ATOM      7  C   UNL     1       2.746   7.718  17.874  0.00  0.00    +0.000 A 
ATOM      8  N   UNL     1       2.068   8.763  17.473  0.00  0.00    +0.000 NA
ATOM      9  C   UNL     1       1.362   9.182  18.574  0.00  0.00    +0.000 A 
ATOM     10  C   UNL     1       1.594   8.358  19.670  0.00  0.00    +0.000 A 
BRANCH  10  11
ATOM     11  C   UNL     1       1.073   8.384  21.012  0.00  0.00    +0.000 C 
ATOM     12  N   UNL     1       1.909   8.815  21.996  0.00  0.00    +0.000 N 
ATOM     13  O   UNL     1      -0.070   8.044  21.310  0.00  0.00    +0.000 OA
ATOM     14  H   UNL     1       2.859   9.117  21.819  0.00  0.00    +0.000 HD
ATOM     15  H   UNL     1       1.556   8.844  22.944  0.00  0.00    +0.000 HD
ENDBRANCH  10  11
BRANCH   9  16
ATOM     16  N   UNL     1       0.464  10.265  18.586  0.00  0.00    +0.000 NA
ATOM     17  N   UNL     1       1.014  11.356  18.846  0.00  0.00    +0.000 NA
BRANCH  17  18
ATOM     18  N   UNL     1       0.145  12.414  18.696  0.00  0.00    +0.000 N 
ATOM     19  C   UNL     1      -1.258  12.077  18.880  0.00  0.00    +0.000 C 
ATOM     20  C   UNL     1       0.555  13.710  19.221  0.00  0.00    +0.000 C 
ENDBRANCH  17  18
ENDBRANCH   9  16
ENDBRANCH   3   6
BRANCH   1  21
ATOM     21  C   UNL     1       6.017   4.922  18.210  0.00  0.00    +0.000 C 
BRANCH  21  22
ATOM     22  O   UNL     1       5.545   5.312  16.913  0.00  0.00    +0.000 OA
BRANCH  22  24
ATOM     23  C   UNL     1       6.031   3.923  15.085  0.00  0.00    +0.000 C 
ATOM     24  C   UNL     1       6.431   5.113  15.897  0.00  0.00    +0.000 C 
ATOM     25  O   UNL     1       7.426   5.796  15.685  0.00  0.00    +0.000 OA
ENDBRANCH  22  24
ENDBRANCH  21  22
ENDBRANCH   1  21
BRANCH   4  26
ATOM     26  O   UNL     1       2.604   4.296  21.064  0.00  0.00    +0.000 OA
BRANCH  26  27
ATOM     27  C   UNL     1       1.631   3.371  21.275  0.00  0.00    +0.000 C 
ATOM     28  C   UNL     1       0.583   3.449  20.201  0.00  0.00    +0.000 C 
ATOM     29  O   UNL     1       1.581   2.594  22.214  0.00  0.00    +0.000 OA
ENDBRANCH  26  27
ENDBRANCH   4  26
BRANCH   5  30
ATOM     30  O   UNL     1       3.765   2.861  19.097  0.00  0.00    +0.000 OA
BRANCH  30  31
ATOM     31  C   UNL     1       3.487   2.050  18.043  0.00  0.00    +0.000 C 
ATOM     32  C   UNL     1       2.667   2.791  17.029  0.00  0.00    +0.000 C 
ATOM     33  O   UNL     1       3.866   0.894  17.933  0.00  0.00    +0.000 OA
ENDBRANCH  30  31
ENDBRANCH   5  30
TORSDOF 11
ENDMDL
