MODEL 1
REMARK VINA RESULT:      -7.8      0.000      0.000
REMARK  Name = 
REMARK  5 active torsions:
REMARK  status: ('A' for Active; 'I' for Inactive)
REMARK    1  A    between atoms: C_1  and  C_2
REMARK    2  A    between atoms: C_2  and  C_3
REMARK    3  A    between atoms: C_2  and  C_5
REMARK    4  A    between atoms: C_10  and  C_11
REMARK    5  A    between atoms: C_25  and  C_26
REMARK                            x       y       z     vdW  Elec       q    Type
REMARK                         _______ _______ _______ _____ _____    ______ ____
ROOT
ATOM      1  C   UNL     1       0.668  13.499  19.908  0.00  0.00    +0.000 C 
ATOM      2  C   UNL     1       1.737  13.788  18.820  0.00  0.00    +0.000 C 
ATOM      3  C   UNL     1       2.382  12.440  18.513  0.00  0.00    +0.000 C 
ATOM      4  C   UNL     1       1.151  11.557  18.468  0.00  0.00    +0.000 C 
ATOM      5  C   UNL     1       1.216  10.085  18.177  0.00  0.00    +0.000 C 
ATOM      6  C   UNL     1       2.369   9.404  18.054  0.00  0.00    +0.000 C 
ATOM      7  C   UNL     1      -0.183   9.550  17.890  0.00  0.00    +0.000 C 
ATOM      8  C   UNL     1      -1.246  10.046  18.887  0.00  0.00    +0.000 C 
ATOM      9  C   UNL     1      -1.154  11.572  19.219  0.00  0.00    +0.000 C 
ATOM     10  C   UNL     1       0.284  11.950  19.708  0.00  0.00    +0.000 C 
ATOM     11  C   UNL     1       0.460  11.200  21.048  0.00  0.00    +0.000 C 
ENDROOT
BRANCH   6  12
ATOM     12  C   UNL     1       2.470   8.009  17.713  0.00  0.00    +0.000 C 
ATOM     13  C   UNL     1       2.462   6.939  18.528  0.00  0.00    +0.000 C 
ATOM     14  C   UNL     1       2.409   6.961  20.046  0.00  0.00    +0.000 C 
ATOM     15  C   UNL     1       1.491   5.879  20.621  0.00  0.00    +0.000 C 
ATOM     16  C   UNL     1       1.778   4.513  19.999  0.00  0.00    +0.000 C 
ATOM     17  C   UNL     1       1.535   4.604  18.491  0.00  0.00    +0.000 C 
ATOM     18  C   UNL     1       2.552   5.567  17.886  0.00  0.00    +0.000 C 
ATOM     19  O   UNL     1       3.154   4.124  20.209  0.00  0.00    +0.000 OA
ATOM     20  C   UNL     1       3.074   2.712  20.384  0.00  0.00    +0.000 C 
ATOM     21  C   UNL     1       1.843   2.619  21.249  0.00  0.00    +0.000 C 
ATOM     22  O   UNL     1       0.932   3.514  20.588  0.00  0.00    +0.000 OA
ENDBRANCH   6  12
BRANCH   1  24
ATOM     23  C   UNL     1       0.325  15.016  22.005  0.00  0.00    +0.000 C 
ATOM     24  C   UNL     1       1.202  13.962  21.316  0.00  0.00    +0.000 C 
BRANCH  24  25
ATOM     25  C   UNL     1       2.613  14.563  21.328  0.00  0.00    +0.000 C 
ATOM     26  O   UNL     1       3.533  14.104  21.988  0.00  0.00    +0.000 OA
ENDBRANCH  24  25
ENDBRANCH   1  24
TORSDOF 3
ENDMDL
MODEL 2
REMARK VINA RESULT:      -7.5      1.948      8.640
REMARK  Name = 
REMARK  5 active torsions:
REMARK  status: ('A' for Active; 'I' for Inactive)
REMARK    1  A    between atoms: C_1  and  C_2
REMARK    2  A    between atoms: C_2  and  C_3
REMARK    3  A    between atoms: C_2  and  C_5
REMARK    4  A    between atoms: C_10  and  C_11
REMARK    5  A    between atoms: C_25  and  C_26
REMARK                            x       y       z     vdW  Elec       q    Type
REMARK                         _______ _______ _______ _____ _____    ______ ____
ROOT
ATOM      1  C   UNL     1       3.808   3.179  18.692  0.00  0.00    +0.000 C 
ATOM      2  C   UNL     1       2.287   3.183  18.385  0.00  0.00    +0.000 C 
ATOM      3  C   UNL     1       1.845   4.636  18.531  0.00  0.00    +0.000 C 
ATOM      4  C   UNL     1       2.988   5.337  17.827  0.00  0.00    +0.000 C 
ATOM      5  C   UNL     1       3.052   6.828  17.664  0.00  0.00    +0.000 C 
ATOM      6  C   UNL     1       2.171   7.673  18.228  0.00  0.00    +0.000 C 
ATOM      7  C   UNL     1       4.135   7.196  16.655  0.00  0.00    +0.000 C 
ATOM      8  C   UNL     1       5.455   6.433  16.868  0.00  0.00    +0.000 C 
ATOM      9  C   UNL     1       5.276   4.904  17.152  0.00  0.00    +0.000 C 
ATOM     10  C   UNL     1       4.301   4.671  18.354  0.00  0.00    +0.000 C 
ATOM     11  C   UNL     1       5.032   5.262  19.581  0.00  0.00    +0.000 C 
ENDROOT
BRANCH   6  12
ATOM     12  C   UNL     1       2.163   9.101  18.042  0.00  0.00    +0.000 C 
ATOM     13  C   UNL     1       1.493  10.038  18.737  0.00  0.00    +0.000 C 
ATOM     14  C   UNL     1       0.512   9.792  19.871  0.00  0.00    +0.000 C 
ATOM     15  C   UNL     1       0.668  10.797  21.015  0.00  0.00    +0.000 C 
ATOM     16  C   UNL     1       0.716  12.233  20.495  0.00  0.00    +0.000 C 
ATOM     17  C   UNL     1       1.920  12.373  19.561  0.00  0.00    +0.000 C 
ATOM     18  C   UNL     1       1.698  11.487  18.338  0.00  0.00    +0.000 C 
ATOM     19  O   UNL     1      -0.475  12.556  19.743  0.00  0.00    +0.000 OA
ATOM     20  C   UNL     1      -0.701  13.928  20.056  0.00  0.00    +0.000 C 
ATOM     21  C   UNL     1      -0.396  13.919  21.533  0.00  0.00    +0.000 C 
ATOM     22  O   UNL     1       0.819  13.153  21.594  0.00  0.00    +0.000 OA
ENDBRANCH   6  12
BRANCH   1  24
ATOM     23  C   UNL     1       4.806   1.279  20.180  0.00  0.00    +0.000 C 
ATOM     24  C   UNL     1       4.058   2.619  20.144  0.00  0.00    +0.000 C 
BRANCH  24  25
ATOM     25  C   UNL     1       2.802   2.385  20.992  0.00  0.00    +0.000 C 
ATOM     26  O   UNL     1       2.569   2.989  22.027  0.00  0.00    +0.000 OA
ENDBRANCH  24  25
ENDBRANCH   1  24
TORSDOF 3
ENDMDL
MODEL 3
REMARK VINA RESULT:      -7.5      2.736      3.575
REMARK  Name = 
REMARK  5 active torsions:
REMARK  status: ('A' for Active; 'I' for Inactive)
REMARK    1  A    between atoms: C_1  and  C_2
REMARK    2  A    between atoms: C_2  and  C_3
REMARK    3  A    between atoms: C_2  and  C_5
REMARK    4  A    between atoms: C_10  and  C_11
REMARK    5  A    between atoms: C_25  and  C_26
REMARK                            x       y       z     vdW  Elec       q    Type
REMARK                         _______ _______ _______ _____ _____    ______ ____
ROOT
ATOM      1  C   UNL     1      -1.984  13.237  21.766  0.00  0.00    +0.000 C 
ATOM      2  C   UNL     1      -1.233  12.524  22.923  0.00  0.00    +0.000 C 
ATOM      3  C   UNL     1      -0.624  11.271  22.303  0.00  0.00    +0.000 C 
ATOM      4  C   UNL     1      -0.101  11.842  21.000  0.00  0.00    +0.000 C 
ATOM      5  C   UNL     1       0.626  11.012  19.982  0.00  0.00    +0.000 C 
ATOM      6  C   UNL     1       0.769   9.679  20.079  0.00  0.00    +0.000 C 
ATOM      7  C   UNL     1       1.293  11.918  18.952  0.00  0.00    +0.000 C 
ATOM      8  C   UNL     1       0.377  13.048  18.448  0.00  0.00    +0.000 C 
ATOM      9  C   UNL     1      -0.432  13.773  19.573  0.00  0.00    +0.000 C 
ATOM     10  C   UNL     1      -1.244  12.742  20.428  0.00  0.00    +0.000 C 
ATOM     11  C   UNL     1      -2.286  12.149  19.453  0.00  0.00    +0.000 C 
ENDROOT
BRANCH   6  12
ATOM     12  C   UNL     1       1.514   8.860  19.157  0.00  0.00    +0.000 C 
ATOM     13  C   UNL     1       2.056   7.645  19.356  0.00  0.00    +0.000 C 
ATOM     14  C   UNL     1       2.065   6.863  20.658  0.00  0.00    +0.000 C 
ATOM     15  C   UNL     1       1.805   5.369  20.451  0.00  0.00    +0.000 C 
ATOM     16  C   UNL     1       2.686   4.796  19.341  0.00  0.00    +0.000 C 
ATOM     17  C   UNL     1       2.365   5.529  18.037  0.00  0.00    +0.000 C 
ATOM     18  C   UNL     1       2.767   6.994  18.185  0.00  0.00    +0.000 C 
ATOM     19  O   UNL     1       4.087   4.995  19.634  0.00  0.00    +0.000 OA
ATOM     20  C   UNL     1       4.703   3.822  19.109  0.00  0.00    +0.000 C 
ATOM     21  C   UNL     1       3.706   2.778  19.545  0.00  0.00    +0.000 C 
ATOM     22  O   UNL     1       2.450   3.386  19.200  0.00  0.00    +0.000 OA
ENDBRANCH   6  12
BRANCH   1  24
ATOM     23  C   UNL     1      -4.403  14.166  21.449  0.00  0.00    +0.000 C 
ATOM     24  C   UNL     1      -3.534  12.986  21.901  0.00  0.00    +0.000 C 
BRANCH  24  25
ATOM     25  C   UNL     1      -4.033  12.653  23.312  0.00  0.00    +0.000 C 
ATOM     26  O   UNL     1      -5.183  12.321  23.557  0.00  0.00    +0.000 OA
ENDBRANCH  24  25
ENDBRANCH   1  24
TORSDOF 3
ENDMDL
MODEL 4
REMARK VINA RESULT:      -7.4      2.532      8.717
REMARK  Name = 
REMARK  5 active torsions:
REMARK  status: ('A' for Active; 'I' for Inactive)
REMARK    1  A    between atoms: C_1  and  C_2
REMARK    2  A    between atoms: C_2  and  C_3
REMARK    3  A    between atoms: C_2  and  C_5
REMARK    4  A    between atoms: C_10  and  C_11
REMARK    5  A    between atoms: C_25  and  C_26
REMARK                            x       y       z     vdW  Elec       q    Type
REMARK                         _______ _______ _______ _____ _____    ______ ____
ROOT
ATOM      1  C   UNL     1       4.488   4.997  17.918  0.00  0.00    +0.000 C 
ATOM      2  C   UNL     1       5.262   6.240  17.402  0.00  0.00    +0.000 C 
ATOM      3  C   UNL     1       4.203   7.315  17.175  0.00  0.00    +0.000 C 
ATOM      4  C   UNL     1       3.362   7.132  18.422  0.00  0.00    +0.000 C 
ATOM      5  C   UNL     1       2.155   7.974  18.720  0.00  0.00    +0.000 C 
ATOM      6  C   UNL     1       1.648   8.873  17.858  0.00  0.00    +0.000 C 
ATOM      7  C   UNL     1       1.722   7.769  20.168  0.00  0.00    +0.000 C 
ATOM      8  C   UNL     1       1.699   6.291  20.596  0.00  0.00    +0.000 C 
ATOM      9  C   UNL     1       2.945   5.466  20.133  0.00  0.00    +0.000 C 
ATOM     10  C   UNL     1       3.151   5.591  18.586  0.00  0.00    +0.000 C 
ATOM     11  C   UNL     1       1.916   4.905  17.962  0.00  0.00    +0.000 C 
ENDROOT
BRANCH   6  12
ATOM     12  C   UNL     1       0.533   9.743  18.134  0.00  0.00    +0.000 C 
ATOM     13  C   UNL     1       0.542  10.997  18.620  0.00  0.00    +0.000 C 
ATOM     14  C   UNL     1       1.763  11.784  19.064  0.00  0.00    +0.000 C 
ATOM     15  C   UNL     1       1.708  13.252  18.635  0.00  0.00    +0.000 C 
ATOM     16  C   UNL     1       0.362  13.886  18.984  0.00  0.00    +0.000 C 
ATOM     17  C   UNL     1      -0.741  13.125  18.247  0.00  0.00    +0.000 C 
ATOM     18  C   UNL     1      -0.794  11.696  18.782  0.00  0.00    +0.000 C 
ATOM     19  O   UNL     1       0.096  13.799  20.402  0.00  0.00    +0.000 OA
ATOM     20  C   UNL     1      -0.593  15.014  20.684  0.00  0.00    +0.000 C 
ATOM     21  C   UNL     1       0.214  15.979  19.853  0.00  0.00    +0.000 C 
ATOM     22  O   UNL     1       0.356  15.273  18.608  0.00  0.00    +0.000 OA
ENDBRANCH   6  12
BRANCH   1  24
ATOM     23  C   UNL     1       4.084   2.508  17.241  0.00  0.00    +0.000 C 
ATOM     24  C   UNL     1       4.340   3.942  16.758  0.00  0.00    +0.000 C 
BRANCH  24  25
ATOM     25  C   UNL     1       5.538   3.823  15.809  0.00  0.00    +0.000 C 
ATOM     26  O   UNL     1       5.502   4.159  14.635  0.00  0.00    +0.000 OA
ENDBRANCH  24  25
ENDBRANCH   1  24
TORSDOF 3
ENDMDL
MODEL 5
REMARK VINA RESULT:      -7.3      2.040      2.839
REMARK  Name = 
REMARK  5 active torsions:
REMARK  status: ('A' for Active; 'I' for Inactive)
REMARK    1  A    between atoms: C_1  and  C_2
REMARK    2  A    between atoms: C_2  and  C_3
REMARK    3  A    between atoms: C_2  and  C_5
REMARK    4  A    between atoms: C_10  and  C_11
REMARK    5  A    between atoms: C_25  and  C_26
REMARK                            x       y       z     vdW  Elec       q    Type
REMARK                         _______ _______ _______ _____ _____    ______ ____
ROOT
ATOM      1  C   UNL     1      -1.228  11.922  20.348  0.00  0.00    +0.000 C 
ATOM      2  C   UNL     1      -1.841  11.305  19.062  0.00  0.00    +0.000 C 
ATOM      3  C   UNL     1      -0.695  10.564  18.379  0.00  0.00    +0.000 C 
ATOM      4  C   UNL     1      -0.054   9.895  19.577  0.00  0.00    +0.000 C 
ATOM      5  C   UNL     1       1.148   9.003  19.464  0.00  0.00    +0.000 C 
ATOM      6  C   UNL     1       1.828   8.817  18.319  0.00  0.00    +0.000 C 
ATOM      7  C   UNL     1       1.356   8.242  20.770  0.00  0.00    +0.000 C 
ATOM      8  C   UNL     1       1.226   9.128  22.022  0.00  0.00    +0.000 C 
ATOM      9  C   UNL     1       0.010  10.112  21.991  0.00  0.00    +0.000 C 
ATOM     10  C   UNL     1       0.034  10.987  20.693  0.00  0.00    +0.000 C 
ATOM     11  C   UNL     1       1.301  11.862  20.825  0.00  0.00    +0.000 C 
ENDROOT
BRANCH   6  12
ATOM     12  C   UNL     1       2.944   7.921  18.158  0.00  0.00    +0.000 C 
ATOM     13  C   UNL     1       2.991   6.590  18.349  0.00  0.00    +0.000 C 
ATOM     14  C   UNL     1       1.861   5.710  18.857  0.00  0.00    +0.000 C 
ATOM     15  C   UNL     1       1.774   4.374  18.116  0.00  0.00    +0.000 C 
ATOM     16  C   UNL     1       3.139   3.694  18.027  0.00  0.00    +0.000 C 
ATOM     17  C   UNL     1       4.092   4.612  17.259  0.00  0.00    +0.000 C 
ATOM     18  C   UNL     1       4.306   5.887  18.070  0.00  0.00    +0.000 C 
ATOM     19  O   UNL     1       3.696   3.469  19.342  0.00  0.00    +0.000 OA
ATOM     20  C   UNL     1       4.385   2.230  19.200  0.00  0.00    +0.000 C 
ATOM     21  C   UNL     1       3.389   1.463  18.367  0.00  0.00    +0.000 C 
ATOM     22  O   UNL     1       3.018   2.425  17.365  0.00  0.00    +0.000 OA
ENDBRANCH   6  12
BRANCH   1  24
ATOM     23  C   UNL     1      -2.174  14.349  20.518  0.00  0.00    +0.000 C 
ATOM     24  C   UNL     1      -0.981  13.463  20.135  0.00  0.00    +0.000 C 
BRANCH  24  25
ATOM     25  C   UNL     1      -0.627  13.888  18.704  0.00  0.00    +0.000 C 
ATOM     26  O   UNL     1       0.488  14.259  18.371  0.00  0.00    +0.000 OA
ENDBRANCH  24  25
ENDBRANCH   1  24
TORSDOF 3
ENDMDL
MODEL 6
REMARK VINA RESULT:      -7.1      1.332      1.554
REMARK  Name = 
REMARK  5 active torsions:
REMARK  status: ('A' for Active; 'I' for Inactive)
REMARK    1  A    between atoms: C_1  and  C_2
REMARK    2  A    between atoms: C_2  and  C_3
REMARK    3  A    between atoms: C_2  and  C_5
REMARK    4  A    between atoms: C_10  and  C_11
REMARK    5  A    between atoms: C_25  and  C_26
REMARK                            x       y       z     vdW  Elec       q    Type
REMARK                         _______ _______ _______ _____ _____    ______ ____
ROOT
ATOM      1  C   UNL     1      -1.128  13.378  20.195  0.00  0.00    +0.000 C 
ATOM      2  C   UNL     1       0.115  13.972  19.478  0.00  0.00    +0.000 C 
ATOM      3  C   UNL     1       1.021  12.781  19.179  0.00  0.00    +0.000 C 
ATOM      4  C   UNL     1      -0.005  11.778  18.691  0.00  0.00    +0.000 C 
ATOM      5  C   UNL     1       0.362  10.395  18.237  0.00  0.00    +0.000 C 
ATOM      6  C   UNL     1       1.603   9.887  18.336  0.00  0.00    +0.000 C 
ATOM      7  C   UNL     1      -0.820   9.752  17.519  0.00  0.00    +0.000 C 
ATOM      8  C   UNL     1      -2.159   9.943  18.254  0.00  0.00    +0.000 C 
ATOM      9  C   UNL     1      -2.396  11.392  18.797  0.00  0.00    +0.000 C 
ATOM     10  C   UNL     1      -1.200  11.850  19.697  0.00  0.00    +0.000 C 
ATOM     11  C   UNL     1      -1.240  10.911  20.923  0.00  0.00    +0.000 C 
ENDROOT
BRANCH   6  12
ATOM     12  C   UNL     1       2.006   8.592  17.853  0.00  0.00    +0.000 C 
ATOM     13  C   UNL     1       2.259   7.472  18.554  0.00  0.00    +0.000 C 
ATOM     14  C   UNL     1       2.242   7.330  20.067  0.00  0.00    +0.000 C 
ATOM     15  C   UNL     1       1.605   6.018  20.530  0.00  0.00    +0.000 C 
ATOM     16  C   UNL     1       2.174   4.821  19.770  0.00  0.00    +0.000 C 
ATOM     17  C   UNL     1       1.878   5.003  18.281  0.00  0.00    +0.000 C 
ATOM     18  C   UNL     1       2.637   6.227  17.774  0.00  0.00    +0.000 C 
ATOM     19  O   UNL     1       3.608   4.733  19.934  0.00  0.00    +0.000 OA
ATOM     20  C   UNL     1       3.850   3.329  19.963  0.00  0.00    +0.000 C 
ATOM     21  C   UNL     1       2.694   2.875  20.819  0.00  0.00    +0.000 C 
ATOM     22  O   UNL     1       1.589   3.602  20.256  0.00  0.00    +0.000 OA
ENDBRANCH   6  12
BRANCH   1  24
ATOM     23  C   UNL     1      -2.387  13.940  22.411  0.00  0.00    +0.000 C 
ATOM     24  C   UNL     1      -1.035  13.657  21.742  0.00  0.00    +0.000 C 
BRANCH  24  25
ATOM     25  C   UNL     1      -0.144  14.835  22.154  0.00  0.00    +0.000 C 
ATOM     26  O   UNL     1       0.144  15.087  23.314  0.00  0.00    +0.000 OA
ENDBRANCH  24  25
ENDBRANCH   1  24
TORSDOF 3
ENDMDL
MODEL 7
REMARK VINA RESULT:      -6.9      6.631      8.007
REMARK  Name = 
REMARK  5 active torsions:
REMARK  status: ('A' for Active; 'I' for Inactive)
REMARK    1  A    between atoms: C_1  and  C_2
REMARK    2  A    between atoms: C_2  and  C_3
REMARK    3  A    between atoms: C_2  and  C_5
REMARK    4  A    between atoms: C_10  and  C_11
REMARK    5  A    between atoms: C_25  and  C_26
REMARK                            x       y       z     vdW  Elec       q    Type
REMARK                         _______ _______ _______ _____ _____    ______ ____
ROOT
ATOM      1  C   UNL     1       9.883  14.318  18.132  0.00  0.00    +0.000 C 
ATOM      2  C   UNL     1       8.459  14.161  17.534  0.00  0.00    +0.000 C 
ATOM      3  C   UNL     1       8.274  12.664  17.307  0.00  0.00    +0.000 C 
ATOM      4  C   UNL     1       8.862  12.122  18.594  0.00  0.00    +0.000 C 
ATOM      5  C   UNL     1       8.921  10.655  18.907  0.00  0.00    +0.000 C 
ATOM      6  C   UNL     1       8.573   9.696  18.031  0.00  0.00    +0.000 C 
ATOM      7  C   UNL     1       9.264  10.450  20.379  0.00  0.00    +0.000 C 
ATOM      8  C   UNL     1      10.419  11.343  20.868  0.00  0.00    +0.000 C 
ATOM      9  C   UNL     1      10.332  12.829  20.387  0.00  0.00    +0.000 C 
ATOM     10  C   UNL     1      10.196  12.903  18.829  0.00  0.00    +0.000 C 
ATOM     11  C   UNL     1      11.530  12.345  18.285  0.00  0.00    +0.000 C 
ENDROOT
BRANCH   6  12
ATOM     12  C   UNL     1       8.555   8.284  18.317  0.00  0.00    +0.000 C 
ATOM     13  C   UNL     1       7.566   7.395  18.114  0.00  0.00    +0.000 C 
ATOM     14  C   UNL     1       6.176   7.697  17.581  0.00  0.00    +0.000 C 
ATOM     15  C   UNL     1       5.679   6.639  16.594  0.00  0.00    +0.000 C 
ATOM     16  C   UNL     1       5.873   5.226  17.143  0.00  0.00    +0.000 C 
ATOM     17  C   UNL     1       7.366   4.999  17.386  0.00  0.00    +0.000 C 
ATOM     18  C   UNL     1       7.836   5.949  18.484  0.00  0.00    +0.000 C 
ATOM     19  O   UNL     1       5.183   5.057  18.402  0.00  0.00    +0.000 OA
ATOM     20  C   UNL     1       4.736   3.705  18.354  0.00  0.00    +0.000 C 
ATOM     21  C   UNL     1       4.278   3.626  16.919  0.00  0.00    +0.000 C 
ATOM     22  O   UNL     1       5.359   4.259  16.214  0.00  0.00    +0.000 OA
ENDBRANCH   6  12
BRANCH   1  24
ATOM     23  C   UNL     1      12.332  14.948  17.483  0.00  0.00    +0.000 C 
ATOM     24  C   UNL     1      10.873  14.840  17.022  0.00  0.00    +0.000 C 
BRANCH  24  25
ATOM     25  C   UNL     1      10.548  16.220  16.437  0.00  0.00    +0.000 C 
ATOM     26  O   UNL     1      10.052  17.126  17.088  0.00  0.00    +0.000 OA
ENDBRANCH  24  25
ENDBRANCH   1  24
TORSDOF 3
ENDMDL
MODEL 8
REMARK VINA RESULT:      -6.9      1.842      2.561
REMARK  Name = 
REMARK  5 active torsions:
REMARK  status: ('A' for Active; 'I' for Inactive)
REMARK    1  A    between atoms: C_1  and  C_2
REMARK    2  A    between atoms: C_2  and  C_3
REMARK    3  A    between atoms: C_2  and  C_5
REMARK    4  A    between atoms: C_10  and  C_11
REMARK    5  A    between atoms: C_25  and  C_26
REMARK                            x       y       z     vdW  Elec       q    Type
REMARK                         _______ _______ _______ _____ _____    ______ ____
ROOT
ATOM      1  C   UNL     1      -0.436  14.093  19.327  0.00  0.00    +0.000 C 
ATOM      2  C   UNL     1       1.112  14.126  19.206  0.00  0.00    +0.000 C 
ATOM      3  C   UNL     1       1.592  12.786  19.755  0.00  0.00    +0.000 C 
ATOM      4  C   UNL     1       0.579  11.855  19.119  0.00  0.00    +0.000 C 
ATOM      5  C   UNL     1       0.601  10.368  19.322  0.00  0.00    +0.000 C 
ATOM      6  C   UNL     1       1.436   9.749  20.175  0.00  0.00    +0.000 C 
ATOM      7  C   UNL     1      -0.327   9.692  18.318  0.00  0.00    +0.000 C 
ATOM      8  C   UNL     1      -1.695  10.387  18.185  0.00  0.00    +0.000 C 
ATOM      9  C   UNL     1      -1.619  11.947  18.101  0.00  0.00    +0.000 C 
ATOM     10  C   UNL     1      -0.817  12.531  19.313  0.00  0.00    +0.000 C 
ATOM     11  C   UNL     1      -1.675  12.200  20.555  0.00  0.00    +0.000 C 
ENDROOT
BRANCH   6  12
ATOM     12  C   UNL     1       1.529   8.322  20.348  0.00  0.00    +0.000 C 
ATOM     13  C   UNL     1       2.065   7.405  19.522  0.00  0.00    +0.000 C 
ATOM     14  C   UNL     1       2.654   7.664  18.146  0.00  0.00    +0.000 C 
ATOM     15  C   UNL     1       3.932   6.861  17.890  0.00  0.00    +0.000 C 
ATOM     16  C   UNL     1       3.748   5.388  18.253  0.00  0.00    +0.000 C 
ATOM     17  C   UNL     1       3.407   5.292  19.741  0.00  0.00    +0.000 C 
ATOM     18  C   UNL     1       2.055   5.959  19.979  0.00  0.00    +0.000 C 
ATOM     19  O   UNL     1       2.662   4.798  17.504  0.00  0.00    +0.000 OA
ATOM     20  C   UNL     1       3.109   3.465  17.271  0.00  0.00    +0.000 C 
ATOM     21  C   UNL     1       4.557   3.723  16.938  0.00  0.00    +0.000 C 
ATOM     22  O   UNL     1       4.948   4.654  17.961  0.00  0.00    +0.000 OA
ENDBRANCH   6  12
BRANCH   1  24
ATOM     23  C   UNL     1      -1.532  16.306  20.174  0.00  0.00    +0.000 C 
ATOM     24  C   UNL     1      -0.893  14.964  20.557  0.00  0.00    +0.000 C 
BRANCH  24  25
ATOM     25  C   UNL     1       0.208  15.331  21.559  0.00  0.00    +0.000 C 
ATOM     26  O   UNL     1       0.362  14.760  22.627  0.00  0.00    +0.000 OA
ENDBRANCH  24  25
ENDBRANCH   1  24
TORSDOF 3
ENDMDL
MODEL 9
REMARK VINA RESULT:      -6.8      2.868      8.471
REMARK  Name = 
REMARK  5 active torsions:
REMARK  status: ('A' for Active; 'I' for Inactive)
REMARK    1  A    between atoms: C_1  and  C_2
REMARK    2  A    between atoms: C_2  and  C_3
REMARK    3  A    between atoms: C_2  and  C_5
REMARK    4  A    between atoms: C_10  and  C_11
REMARK    5  A    between atoms: C_25  and  C_26
REMARK                            x       y       z     vdW  Elec       q    Type
REMARK                         _______ _______ _______ _____ _____    ______ ____
ROOT
ATOM      1  C   UNL     1       4.585   3.861  17.745  0.00  0.00    +0.000 C 
ATOM      2  C   UNL     1       5.557   4.696  18.621  0.00  0.00    +0.000 C 
ATOM      3  C   UNL     1       4.712   5.822  19.208  0.00  0.00    +0.000 C 
ATOM      4  C   UNL     1       3.464   5.052  19.590  0.00  0.00    +0.000 C 
ATOM      5  C   UNL     1       2.278   5.698  20.245  0.00  0.00    +0.000 C 
ATOM      6  C   UNL     1       2.168   7.024  20.437  0.00  0.00    +0.000 C 
ATOM      7  C   UNL     1       1.335   4.628  20.785  0.00  0.00    +0.000 C 
ATOM      8  C   UNL     1       1.080   3.479  19.792  0.00  0.00    +0.000 C 
ATOM      9  C   UNL     1       2.365   2.955  19.070  0.00  0.00    +0.000 C 
ATOM     10  C   UNL     1       3.129   4.130  18.372  0.00  0.00    +0.000 C 
ATOM     11  C   UNL     1       2.174   4.625  17.263  0.00  0.00    +0.000 C 
ENDROOT
BRANCH   6  12
ATOM     12  C   UNL     1       1.076   7.672  21.117  0.00  0.00    +0.000 C 
ATOM     13  C   UNL     1       0.785   8.983  21.186  0.00  0.00    +0.000 C 
ATOM     14  C   UNL     1       1.601  10.122  20.598  0.00  0.00    +0.000 C 
ATOM     15  C   UNL     1       0.729  11.206  19.960  0.00  0.00    +0.000 C 
ATOM     16  C   UNL     1      -0.405  11.631  20.892  0.00  0.00    +0.000 C 
ATOM     17  C   UNL     1      -1.283  10.412  21.179  0.00  0.00    +0.000 C 
ATOM     18  C   UNL     1      -0.460   9.386  21.954  0.00  0.00    +0.000 C 
ATOM     19  O   UNL     1       0.110  12.120  22.151  0.00  0.00    +0.000 OA
ATOM     20  C   UNL     1      -0.800  13.161  22.497  0.00  0.00    +0.000 C 
ATOM     21  C   UNL     1      -0.989  13.810  21.149  0.00  0.00    +0.000 C 
ATOM     22  O   UNL     1      -1.178  12.678  20.284  0.00  0.00    +0.000 OA
ENDBRANCH   6  12
BRANCH   1  24
ATOM     23  C   UNL     1       5.938   3.380  15.564  0.00  0.00    +0.000 C 
ATOM     24  C   UNL     1       4.817   4.196  16.223  0.00  0.00    +0.000 C 
BRANCH  24  25
ATOM     25  C   UNL     1       5.164   5.656  15.908  0.00  0.00    +0.000 C 
ATOM     26  O   UNL     1       6.032   5.985  15.115  0.00  0.00    +0.000 OA
ENDBRANCH  24  25
ENDBRANCH   1  24
TORSDOF 3
ENDMDL
