MODEL 1
REMARK VINA RESULT:      -8.9      0.000      0.000
REMARK  Name = 
REMARK  3 active torsions:
REMARK  status: ('A' for Active; 'I' for Inactive)
REMARK    1  A    between atoms: C_5  and  N_6
REMARK    2  A    between atoms: N_6  and  C_7
REMARK    3  A    between atoms: C_18  and  C_19
REMARK                            x       y       z     vdW  Elec       q    Type
REMARK                         _______ _______ _______ _____ _____    ______ ____
ROOT
ATOM      1  O   UNL     1       5.687   6.657  15.353  0.00  0.00    +0.000 OA
ATOM      2  C   UNL     1       6.000   6.333  16.491  0.00  0.00    +0.000 C 
ATOM      3  C   UNL     1       5.486   5.091  17.174  0.00  0.00    +0.000 C 
ATOM      4 CL   UNL     1       4.304   4.215  16.232  0.00  0.00    +0.000 Cl
ATOM      5  C   UNL     1       5.878   4.644  18.396  0.00  0.00    +0.000 C 
ATOM      6  C   UNL     1       6.966   5.408  19.136  0.00  0.00    +0.000 C 
ATOM      7  O   UNL     1       7.459   4.963  20.168  0.00  0.00    +0.000 OA
ATOM      8  C   UNL     1       7.328   6.664  18.559  0.00  0.00    +0.000 A 
ATOM      9  N   UNL     1       8.117   7.669  19.046  0.00  0.00    +0.000 N 
ATOM     10  C   UNL     1       8.104   8.697  18.126  0.00  0.00    +0.000 A 
ATOM     11  N   UNL     1       7.381   8.355  17.071  0.00  0.00    +0.000 NA
ATOM     12  C   UNL     1       6.884   7.106  17.335  0.00  0.00    +0.000 A 
ATOM     13  H   UNL     1       8.599   7.703  19.937  0.00  0.00    +0.000 HD
ENDROOT
BRANCH  10  14
ATOM     14  C   UNL     1       8.783   9.971  18.338  0.00  0.00    +0.000 A 
ATOM     15  C   UNL     1       9.774  10.096  19.307  0.00  0.00    +0.000 A 
ATOM     16  C   UNL     1      10.408  11.324  19.457  0.00  0.00    +0.000 A 
ATOM     17  C   UNL     1      10.037  12.381  18.636  0.00  0.00    +0.000 A 
ATOM     18  C   UNL     1       9.042  12.165  17.694  0.00  0.00    +0.000 A 
ATOM     19  N   UNL     1       8.400  10.985  17.522  0.00  0.00    +0.000 NA
ENDBRANCH  10  14
BRANCH   5  20
ATOM     20  N   UNL     1       5.413   3.510  19.064  0.00  0.00    +0.000 N 
ATOM     21  H   UNL     1       6.074   3.156  19.763  0.00  0.00    +0.000 HD
BRANCH  20  22
ATOM     22  C   UNL     1       4.078   3.301  19.500  0.00  0.00    +0.000 A 
ATOM     23  C   UNL     1       3.379   4.214  20.302  0.00  0.00    +0.000 A 
ATOM     24  C   UNL     1       2.018   4.038  20.574  0.00  0.00    +0.000 A 
ATOM     25  C   UNL     1       1.334   2.940  20.057  0.00  0.00    +0.000 A 
ATOM     26  C   UNL     1       2.019   1.997  19.296  0.00  0.00    +0.000 A 
ATOM     27  C   UNL     1       3.375   2.181  19.028  0.00  0.00    +0.000 A 
ATOM     28  F   UNL     1       4.013   1.266  18.280  0.00  0.00    +0.000 F 
ENDBRANCH  20  22
ENDBRANCH   5  20
TORSDOF 3
ENDMDL
MODEL 2
REMARK VINA RESULT:      -8.5      0.962      1.339
REMARK  Name = 
REMARK  3 active torsions:
REMARK  status: ('A' for Active; 'I' for Inactive)
REMARK    1  A    between atoms: C_5  and  N_6
REMARK    2  A    between atoms: N_6  and  C_7
REMARK    3  A    between atoms: C_18  and  C_19
REMARK                            x       y       z     vdW  Elec       q    Type
REMARK                         _______ _______ _______ _____ _____    ______ ____
ROOT
ATOM      1  O   UNL     1       6.073   6.718  15.343  0.00  0.00    +0.000 OA
ATOM      2  C   UNL     1       6.336   6.423  16.501  0.00  0.00    +0.000 C 
ATOM      3  C   UNL     1       5.812   5.186  17.185  0.00  0.00    +0.000 C 
ATOM      4 CL   UNL     1       4.693   4.268  16.205  0.00  0.00    +0.000 Cl
ATOM      5  C   UNL     1       6.152   4.771  18.434  0.00  0.00    +0.000 C 
ATOM      6  C   UNL     1       7.189   5.571  19.209  0.00  0.00    +0.000 C 
ATOM      7  O   UNL     1       7.639   5.155  20.272  0.00  0.00    +0.000 OA
ATOM      8  C   UNL     1       7.556   6.821  18.624  0.00  0.00    +0.000 A 
ATOM      9  N   UNL     1       8.302   7.850  19.127  0.00  0.00    +0.000 N 
ATOM     10  C   UNL     1       8.315   8.859  18.186  0.00  0.00    +0.000 A 
ATOM     11  N   UNL     1       7.651   8.482  17.104  0.00  0.00    +0.000 NA
ATOM     12  C   UNL     1       7.164   7.229  17.371  0.00  0.00    +0.000 A 
ATOM     13  H   UNL     1       8.740   7.911  20.039  0.00  0.00    +0.000 HD
ENDROOT
BRANCH  10  14
ATOM     14  C   UNL     1       8.961  10.150  18.403  0.00  0.00    +0.000 A 
ATOM     15  C   UNL     1       9.937  10.300  19.384  0.00  0.00    +0.000 A 
ATOM     16  C   UNL     1      10.539  11.544  19.539  0.00  0.00    +0.000 A 
ATOM     17  C   UNL     1      10.152  12.590  18.712  0.00  0.00    +0.000 A 
ATOM     18  C   UNL     1       9.173  12.349  17.759  0.00  0.00    +0.000 A 
ATOM     19  N   UNL     1       8.562  11.153  17.582  0.00  0.00    +0.000 NA
ENDBRANCH  10  14
BRANCH   5  20
ATOM     20  N   UNL     1       5.676   3.642  19.102  0.00  0.00    +0.000 N 
ATOM     21  H   UNL     1       6.211   3.420  19.948  0.00  0.00    +0.000 HD
BRANCH  20  22
ATOM     22  C   UNL     1       4.307   3.311  19.285  0.00  0.00    +0.000 A 
ATOM     23  C   UNL     1       3.775   2.048  18.986  0.00  0.00    +0.000 A 
ATOM     24  C   UNL     1       2.459   1.722  19.330  0.00  0.00    +0.000 A 
ATOM     25  C   UNL     1       1.647   2.657  19.968  0.00  0.00    +0.000 A 
ATOM     26  C   UNL     1       2.140   3.932  20.233  0.00  0.00    +0.000 A 
ATOM     27  C   UNL     1       3.454   4.248  19.890  0.00  0.00    +0.000 A 
ATOM     28  F   UNL     1       3.913   5.479  20.167  0.00  0.00    +0.000 F 
ENDBRANCH  20  22
ENDBRANCH   5  20
TORSDOF 3
ENDMDL
MODEL 3
REMARK VINA RESULT:      -8.2      1.111      1.197
REMARK  Name = 
REMARK  3 active torsions:
REMARK  status: ('A' for Active; 'I' for Inactive)
REMARK    1  A    between atoms: C_5  and  N_6
REMARK    2  A    between atoms: N_6  and  C_7
REMARK    3  A    between atoms: C_18  and  C_19
REMARK                            x       y       z     vdW  Elec       q    Type
REMARK                         _______ _______ _______ _____ _____    ______ ____
ROOT
ATOM      1  O   UNL     1       7.305   5.852  14.925  0.00  0.00    +0.000 OA
ATOM      2  C   UNL     1       7.045   5.721  16.113  0.00  0.00    +0.000 C 
ATOM      3  C   UNL     1       6.256   4.563  16.670  0.00  0.00    +0.000 C 
ATOM      4 CL   UNL     1       5.644   3.481  15.443  0.00  0.00    +0.000 Cl
ATOM      5  C   UNL     1       6.025   4.329  17.989  0.00  0.00    +0.000 C 
ATOM      6  C   UNL     1       6.650   5.263  19.015  0.00  0.00    +0.000 C 
ATOM      7  O   UNL     1       6.597   5.008  20.214  0.00  0.00    +0.000 OA
ATOM      8  C   UNL     1       7.254   6.440  18.478  0.00  0.00    +0.000 A 
ATOM      9  N   UNL     1       7.734   7.556  19.105  0.00  0.00    +0.000 N 
ATOM     10  C   UNL     1       8.165   8.433  18.132  0.00  0.00    +0.000 A 
ATOM     11  N   UNL     1       8.017   7.892  16.933  0.00  0.00    +0.000 NA
ATOM     12  C   UNL     1       7.440   6.666  17.134  0.00  0.00    +0.000 A 
ATOM     13  H   UNL     1       7.744   7.753  20.100  0.00  0.00    +0.000 HD
ENDROOT
BRANCH  10  14
ATOM     14  C   UNL     1       8.682   9.767  18.426  0.00  0.00    +0.000 A 
ATOM     15  C   UNL     1       9.495   9.986  19.534  0.00  0.00    +0.000 A 
ATOM     16  C   UNL     1       9.980  11.269  19.761  0.00  0.00    +0.000 A 
ATOM     17  C   UNL     1       9.642  12.285  18.876  0.00  0.00    +0.000 A 
ATOM     18  C   UNL     1       8.829  11.975  17.796  0.00  0.00    +0.000 A 
ATOM     19  N   UNL     1       8.335  10.740  17.546  0.00  0.00    +0.000 NA
ENDBRANCH  10  14
BRANCH   5  20
ATOM     20  N   UNL     1       5.289   3.278  18.539  0.00  0.00    +0.000 N 
ATOM     21  H   UNL     1       5.789   2.783  19.284  0.00  0.00    +0.000 HD
BRANCH  20  22
ATOM     22  C   UNL     1       3.896   3.305  18.815  0.00  0.00    +0.000 A 
ATOM     23  C   UNL     1       2.941   3.772  17.902  0.00  0.00    +0.000 A 
ATOM     24  C   UNL     1       1.573   3.633  18.158  0.00  0.00    +0.000 A 
ATOM     25  C   UNL     1       1.136   3.035  19.338  0.00  0.00    +0.000 A 
ATOM     26  C   UNL     1       2.068   2.605  20.279  0.00  0.00    +0.000 A 
ATOM     27  C   UNL     1       3.429   2.745  20.015  0.00  0.00    +0.000 A 
ATOM     28  F   UNL     1       4.311   2.312  20.930  0.00  0.00    +0.000 F 
ENDBRANCH  20  22
ENDBRANCH   5  20
TORSDOF 3
ENDMDL
MODEL 4
REMARK VINA RESULT:      -8.2      4.462      6.847
REMARK  Name = 
REMARK  3 active torsions:
REMARK  status: ('A' for Active; 'I' for Inactive)
REMARK    1  A    between atoms: C_5  and  N_6
REMARK    2  A    between atoms: N_6  and  C_7
REMARK    3  A    between atoms: C_18  and  C_19
REMARK                            x       y       z     vdW  Elec       q    Type
REMARK                         _______ _______ _______ _____ _____    ______ ____
ROOT
ATOM      1  O   UNL     1       5.828   4.529  19.778  0.00  0.00    +0.000 OA
ATOM      2  C   UNL     1       5.656   5.185  18.759  0.00  0.00    +0.000 C 
ATOM      3  C   UNL     1       6.577   5.128  17.567  0.00  0.00    +0.000 C 
ATOM      4 CL   UNL     1       7.985   4.125  17.820  0.00  0.00    +0.000 Cl
ATOM      5  C   UNL     1       6.374   5.765  16.384  0.00  0.00    +0.000 C 
ATOM      6  C   UNL     1       5.092   6.563  16.196  0.00  0.00    +0.000 C 
ATOM      7  O   UNL     1       4.793   7.028  15.100  0.00  0.00    +0.000 OA
ATOM      8  C   UNL     1       4.310   6.744  17.377  0.00  0.00    +0.000 A 
ATOM      9  N   UNL     1       3.222   7.539  17.607  0.00  0.00    +0.000 N 
ATOM     10  C   UNL     1       2.868   7.395  18.932  0.00  0.00    +0.000 A 
ATOM     11  N   UNL     1       3.657   6.511  19.521  0.00  0.00    +0.000 NA
ATOM     12  C   UNL     1       4.562   6.113  18.573  0.00  0.00    +0.000 A 
ATOM     13  H   UNL     1       2.763   8.167  16.956  0.00  0.00    +0.000 HD
ENDROOT
BRANCH  10  14
ATOM     14  C   UNL     1       1.786   8.148  19.560  0.00  0.00    +0.000 A 
ATOM     15  C   UNL     1       1.336   7.817  20.834  0.00  0.00    +0.000 A 
ATOM     16  C   UNL     1       0.317   8.577  21.399  0.00  0.00    +0.000 A 
ATOM     17  C   UNL     1      -0.213   9.639  20.679  0.00  0.00    +0.000 A 
ATOM     18  C   UNL     1       0.299   9.899  19.415  0.00  0.00    +0.000 A 
ATOM     19  N   UNL     1       1.287   9.179  18.832  0.00  0.00    +0.000 NA
ENDBRANCH  10  14
BRANCH   5  20
ATOM     20  N   UNL     1       7.211   5.748  15.266  0.00  0.00    +0.000 N 
ATOM     21  H   UNL     1       8.204   5.829  15.506  0.00  0.00    +0.000 HD
BRANCH  20  22
ATOM     22  C   UNL     1       7.047   4.914  14.129  0.00  0.00    +0.000 A 
ATOM     23  C   UNL     1       6.058   3.924  14.037  0.00  0.00    +0.000 A 
ATOM     24  C   UNL     1       5.836   3.237  12.839  0.00  0.00    +0.000 A 
ATOM     25  C   UNL     1       6.607   3.520  11.713  0.00  0.00    +0.000 A 
ATOM     26  C   UNL     1       7.625   4.467  11.795  0.00  0.00    +0.000 A 
ATOM     27  C   UNL     1       7.838   5.148  12.992  0.00  0.00    +0.000 A 
ATOM     28  F   UNL     1       8.816   6.067  13.045  0.00  0.00    +0.000 F 
ENDBRANCH  20  22
ENDBRANCH   5  20
TORSDOF 3
ENDMDL
MODEL 5
REMARK VINA RESULT:      -7.9      4.412      6.789
REMARK  Name = 
REMARK  3 active torsions:
REMARK  status: ('A' for Active; 'I' for Inactive)
REMARK    1  A    between atoms: C_5  and  N_6
REMARK    2  A    between atoms: N_6  and  C_7
REMARK    3  A    between atoms: C_18  and  C_19
REMARK                            x       y       z     vdW  Elec       q    Type
REMARK                         _______ _______ _______ _____ _____    ______ ____
ROOT
ATOM      1  O   UNL     1       1.123   3.382  20.646  0.00  0.00    +0.000 OA
ATOM      2  C   UNL     1       1.995   4.115  20.200  0.00  0.00    +0.000 C 
ATOM      3  C   UNL     1       3.266   3.607  19.567  0.00  0.00    +0.000 C 
ATOM      4 CL   UNL     1       3.433   1.869  19.633  0.00  0.00    +0.000 Cl
ATOM      5  C   UNL     1       4.216   4.379  18.977  0.00  0.00    +0.000 C 
ATOM      6  C   UNL     1       3.979   5.880  18.882  0.00  0.00    +0.000 C 
ATOM      7  O   UNL     1       4.730   6.596  18.228  0.00  0.00    +0.000 OA
ATOM      8  C   UNL     1       2.860   6.367  19.623  0.00  0.00    +0.000 A 
ATOM      9  N   UNL     1       2.471   7.648  19.903  0.00  0.00    +0.000 N 
ATOM     10  C   UNL     1       1.350   7.582  20.704  0.00  0.00    +0.000 A 
ATOM     11  N   UNL     1       0.999   6.319  20.893  0.00  0.00    +0.000 NA
ATOM     12  C   UNL     1       1.934   5.559  20.242  0.00  0.00    +0.000 A 
ATOM     13  H   UNL     1       2.928   8.509  19.627  0.00  0.00    +0.000 HD
ENDROOT
BRANCH  10  14
ATOM     14  C   UNL     1       0.692   8.759  21.261  0.00  0.00    +0.000 A 
ATOM     15  C   UNL     1       0.077   8.707  22.508  0.00  0.00    +0.000 A 
ATOM     16  C   UNL     1      -0.518   9.861  23.007  0.00  0.00    +0.000 A 
ATOM     17  C   UNL     1      -0.477  11.024  22.248  0.00  0.00    +0.000 A 
ATOM     18  C   UNL     1       0.160  10.985  21.017  0.00  0.00    +0.000 A 
ATOM     19  N   UNL     1       0.747   9.880  20.498  0.00  0.00    +0.000 NA
ENDBRANCH  10  14
BRANCH   5  20
ATOM     20  N   UNL     1       5.408   3.946  18.395  0.00  0.00    +0.000 N 
ATOM     21  H   UNL     1       5.706   3.023  18.727  0.00  0.00    +0.000 HD
BRANCH  20  22
ATOM     22  C   UNL     1       5.769   4.118  17.032  0.00  0.00    +0.000 A 
ATOM     23  C   UNL     1       4.860   3.982  15.973  0.00  0.00    +0.000 A 
ATOM     24  C   UNL     1       5.225   4.314  14.665  0.00  0.00    +0.000 A 
ATOM     25  C   UNL     1       6.509   4.777  14.389  0.00  0.00    +0.000 A 
ATOM     26  C   UNL     1       7.442   4.875  15.418  0.00  0.00    +0.000 A 
ATOM     27  C   UNL     1       7.069   4.545  16.720  0.00  0.00    +0.000 A 
ATOM     28  F   UNL     1       7.981   4.661  17.700  0.00  0.00    +0.000 F 
ENDBRANCH  20  22
ENDBRANCH   5  20
TORSDOF 3
ENDMDL
MODEL 6
REMARK VINA RESULT:      -7.8      1.177      1.194
REMARK  Name = 
REMARK  3 active torsions:
REMARK  status: ('A' for Active; 'I' for Inactive)
REMARK    1  A    between atoms: C_5  and  N_6
REMARK    2  A    between atoms: N_6  and  C_7
REMARK    3  A    between atoms: C_18  and  C_19
REMARK                            x       y       z     vdW  Elec       q    Type
REMARK                         _______ _______ _______ _____ _____    ______ ____
ROOT
ATOM      1  O   UNL     1       7.367   5.676  14.842  0.00  0.00    +0.000 OA
ATOM      2  C   UNL     1       7.041   5.573  16.017  0.00  0.00    +0.000 C 
ATOM      3  C   UNL     1       6.205   4.437  16.552  0.00  0.00    +0.000 C 
ATOM      4 CL   UNL     1       5.644   3.340  15.314  0.00  0.00    +0.000 Cl
ATOM      5  C   UNL     1       5.899   4.233  17.860  0.00  0.00    +0.000 C 
ATOM      6  C   UNL     1       6.480   5.179  18.901  0.00  0.00    +0.000 C 
ATOM      7  O   UNL     1       6.358   4.949  20.100  0.00  0.00    +0.000 OA
ATOM      8  C   UNL     1       7.130   6.337  18.375  0.00  0.00    +0.000 A 
ATOM      9  N   UNL     1       7.593   7.458  19.007  0.00  0.00    +0.000 N 
ATOM     10  C   UNL     1       8.090   8.309  18.042  0.00  0.00    +0.000 A 
ATOM     11  N   UNL     1       8.000   7.747  16.847  0.00  0.00    +0.000 NA
ATOM     12  C   UNL     1       7.393   6.533  17.040  0.00  0.00    +0.000 A 
ATOM     13  H   UNL     1       7.551   7.674  19.996  0.00  0.00    +0.000 HD
ENDROOT
BRANCH  10  14
ATOM     14  C   UNL     1       8.609   9.641  18.339  0.00  0.00    +0.000 A 
ATOM     15  C   UNL     1       9.484   9.842  19.402  0.00  0.00    +0.000 A 
ATOM     16  C   UNL     1       9.969  11.125  19.632  0.00  0.00    +0.000 A 
ATOM     17  C   UNL     1       9.571  12.158  18.794  0.00  0.00    +0.000 A 
ATOM     18  C   UNL     1       8.698  11.865  17.756  0.00  0.00    +0.000 A 
ATOM     19  N   UNL     1       8.202  10.631  17.505  0.00  0.00    +0.000 NA
ENDBRANCH  10  14
BRANCH   5  20
ATOM     20  N   UNL     1       5.118   3.204  18.389  0.00  0.00    +0.000 N 
ATOM     21  H   UNL     1       5.648   2.564  18.989  0.00  0.00    +0.000 HD
BRANCH  20  22
ATOM     22  C   UNL     1       3.789   3.344  18.871  0.00  0.00    +0.000 A 
ATOM     23  C   UNL     1       3.458   3.315  20.233  0.00  0.00    +0.000 A 
ATOM     24  C   UNL     1       2.162   3.613  20.665  0.00  0.00    +0.000 A 
ATOM     25  C   UNL     1       1.170   3.935  19.742  0.00  0.00    +0.000 A 
ATOM     26  C   UNL     1       1.465   3.925  18.381  0.00  0.00    +0.000 A 
ATOM     27  C   UNL     1       2.760   3.629  17.959  0.00  0.00    +0.000 A 
ATOM     28  F   UNL     1       3.026   3.639  16.643  0.00  0.00    +0.000 F 
ENDBRANCH  20  22
ENDBRANCH   5  20
TORSDOF 3
ENDMDL
MODEL 7
REMARK VINA RESULT:      -7.7      6.158      7.985
REMARK  Name = 
REMARK  3 active torsions:
REMARK  status: ('A' for Active; 'I' for Inactive)
REMARK    1  A    between atoms: C_5  and  N_6
REMARK    2  A    between atoms: N_6  and  C_7
REMARK    3  A    between atoms: C_18  and  C_19
REMARK                            x       y       z     vdW  Elec       q    Type
REMARK                         _______ _______ _______ _____ _____    ______ ____
ROOT
ATOM      1  O   UNL     1       1.712   6.473  21.123  0.00  0.00    +0.000 OA
ATOM      2  C   UNL     1       1.734   7.310  20.230  0.00  0.00    +0.000 C 
ATOM      3  C   UNL     1       0.871   8.547  20.227  0.00  0.00    +0.000 C 
ATOM      4 CL   UNL     1      -0.253   8.616  21.563  0.00  0.00    +0.000 Cl
ATOM      5  C   UNL     1       0.929   9.546  19.308  0.00  0.00    +0.000 C 
ATOM      6  C   UNL     1       1.981   9.466  18.211  0.00  0.00    +0.000 C 
ATOM      7  O   UNL     1       2.173  10.410  17.451  0.00  0.00    +0.000 OA
ATOM      8  C   UNL     1       2.679   8.223  18.127  0.00  0.00    +0.000 A 
ATOM      9  N   UNL     1       3.536   7.750  17.172  0.00  0.00    +0.000 N 
ATOM     10  C   UNL     1       3.896   6.467  17.528  0.00  0.00    +0.000 A 
ATOM     11  N   UNL     1       3.338   6.141  18.683  0.00  0.00    +0.000 NA
ATOM     12  C   UNL     1       2.571   7.214  19.054  0.00  0.00    +0.000 A 
ATOM     13  H   UNL     1       3.837   8.215  16.323  0.00  0.00    +0.000 HD
ENDROOT
BRANCH  10  14
ATOM     14  C   UNL     1       4.753   5.617  16.707  0.00  0.00    +0.000 A 
ATOM     15  C   UNL     1       4.669   4.231  16.790  0.00  0.00    +0.000 A 
ATOM     16  C   UNL     1       5.491   3.463  15.972  0.00  0.00    +0.000 A 
ATOM     17  C   UNL     1       6.361   4.102  15.099  0.00  0.00    +0.000 A 
ATOM     18  C   UNL     1       6.376   5.489  15.080  0.00  0.00    +0.000 A 
ATOM     19  N   UNL     1       5.594   6.268  15.864  0.00  0.00    +0.000 NA
ENDBRANCH  10  14
BRANCH   5  20
ATOM     20  N   UNL     1       0.138  10.695  19.266  0.00  0.00    +0.000 N 
ATOM     21  H   UNL     1       0.680  11.551  19.110  0.00  0.00    +0.000 HD
BRANCH  20  22
ATOM     22  C   UNL     1      -1.133  10.796  18.639  0.00  0.00    +0.000 A 
ATOM     23  C   UNL     1      -1.533   9.976  17.575  0.00  0.00    +0.000 A 
ATOM     24  C   UNL     1      -2.847  10.008  17.096  0.00  0.00    +0.000 A 
ATOM     25  C   UNL     1      -3.781  10.871  17.665  0.00  0.00    +0.000 A 
ATOM     26  C   UNL     1      -3.393  11.727  18.692  0.00  0.00    +0.000 A 
ATOM     27  C   UNL     1      -2.082  11.687  19.165  0.00  0.00    +0.000 A 
ATOM     28  F   UNL     1      -1.733  12.512  20.165  0.00  0.00    +0.000 F 
ENDBRANCH  20  22
ENDBRANCH   5  20
TORSDOF 3
ENDMDL
MODEL 8
REMARK VINA RESULT:      -7.7      6.303      9.506
REMARK  Name = 
REMARK  3 active torsions:
REMARK  status: ('A' for Active; 'I' for Inactive)
REMARK    1  A    between atoms: C_5  and  N_6
REMARK    2  A    between atoms: N_6  and  C_7
REMARK    3  A    between atoms: C_18  and  C_19
REMARK                            x       y       z     vdW  Elec       q    Type
REMARK                         _______ _______ _______ _____ _____    ______ ____
ROOT
ATOM      1  O   UNL     1       0.610   8.877  22.397  0.00  0.00    +0.000 OA
ATOM      2  C   UNL     1       0.870   9.019  21.210  0.00  0.00    +0.000 C 
ATOM      3  C   UNL     1       0.538  10.266  20.429  0.00  0.00    +0.000 C 
ATOM      4 CL   UNL     1      -0.361  11.448  21.350  0.00  0.00    +0.000 Cl
ATOM      5  C   UNL     1       0.889  10.504  19.138  0.00  0.00    +0.000 C 
ATOM      6  C   UNL     1       1.738   9.470  18.412  0.00  0.00    +0.000 C 
ATOM      7  O   UNL     1       2.206   9.705  17.302  0.00  0.00    +0.000 OA
ATOM      8  C   UNL     1       1.907   8.230  19.100  0.00  0.00    +0.000 A 
ATOM      9  N   UNL     1       2.441   7.045  18.674  0.00  0.00    +0.000 N 
ATOM     10  C   UNL     1       2.321   6.136  19.704  0.00  0.00    +0.000 A 
ATOM     11  N   UNL     1       1.780   6.716  20.764  0.00  0.00    +0.000 NA
ATOM     12  C   UNL     1       1.506   8.007  20.396  0.00  0.00    +0.000 A 
ATOM     13  H   UNL     1       2.822   6.829  17.760  0.00  0.00    +0.000 HD
ENDROOT
BRANCH  10  14
ATOM     14  C   UNL     1       2.723   4.737  19.590  0.00  0.00    +0.000 A 
ATOM     15  C   UNL     1       1.773   3.720  19.613  0.00  0.00    +0.000 A 
ATOM     16  C   UNL     1       2.203   2.404  19.479  0.00  0.00    +0.000 A 
ATOM     17  C   UNL     1       3.559   2.149  19.324  0.00  0.00    +0.000 A 
ATOM     18  C   UNL     1       4.435   3.225  19.309  0.00  0.00    +0.000 A 
ATOM     19  N   UNL     1       4.053   4.517  19.440  0.00  0.00    +0.000 NA
ENDBRANCH  10  14
BRANCH   5  20
ATOM     20  N   UNL     1       0.587  11.637  18.381  0.00  0.00    +0.000 N 
ATOM     21  H   UNL     1      -0.417  11.751  18.211  0.00  0.00    +0.000 HD
BRANCH  20  22
ATOM     22  C   UNL     1       1.212  12.905  18.514  0.00  0.00    +0.000 A 
ATOM     23  C   UNL     1       2.565  13.131  18.226  0.00  0.00    +0.000 A 
ATOM     24  C   UNL     1       3.094  14.425  18.222  0.00  0.00    +0.000 A 
ATOM     25  C   UNL     1       2.281  15.518  18.517  0.00  0.00    +0.000 A 
ATOM     26  C   UNL     1       0.945  15.313  18.850  0.00  0.00    +0.000 A 
ATOM     27  C   UNL     1       0.425  14.019  18.850  0.00  0.00    +0.000 A 
ATOM     28  F   UNL     1      -0.870  13.846  19.161  0.00  0.00    +0.000 F 
ENDBRANCH  20  22
ENDBRANCH   5  20
TORSDOF 3
ENDMDL
MODEL 9
REMARK VINA RESULT:      -7.6      5.293      7.194
REMARK  Name = 
REMARK  3 active torsions:
REMARK  status: ('A' for Active; 'I' for Inactive)
REMARK    1  A    between atoms: C_5  and  N_6
REMARK    2  A    between atoms: N_6  and  C_7
REMARK    3  A    between atoms: C_18  and  C_19
REMARK                            x       y       z     vdW  Elec       q    Type
REMARK                         _______ _______ _______ _____ _____    ______ ____
ROOT
ATOM      1  O   UNL     1       1.714   5.442  21.129  0.00  0.00    +0.000 OA
ATOM      2  C   UNL     1       2.020   6.259  20.271  0.00  0.00    +0.000 C 
ATOM      3  C   UNL     1       2.944   5.952  19.120  0.00  0.00    +0.000 C 
ATOM      4 CL   UNL     1       3.635   4.349  19.188  0.00  0.00    +0.000 Cl
ATOM      5  C   UNL     1       3.236   6.797  18.096  0.00  0.00    +0.000 C 
ATOM      6  C   UNL     1       2.544   8.152  18.051  0.00  0.00    +0.000 C 
ATOM      7  O   UNL     1       2.658   8.885  17.073  0.00  0.00    +0.000 OA
ATOM      8  C   UNL     1       1.802   8.496  19.221  0.00  0.00    +0.000 A 
ATOM      9  N   UNL     1       1.222   9.678  19.588  0.00  0.00    +0.000 N 
ATOM     10  C   UNL     1       0.672   9.506  20.841  0.00  0.00    +0.000 A 
ATOM     11  N   UNL     1       0.843   8.258  21.246  0.00  0.00    +0.000 NA
ATOM     12  C   UNL     1       1.555   7.629  20.259  0.00  0.00    +0.000 A 
ATOM     13  H   UNL     1       1.219  10.553  19.075  0.00  0.00    +0.000 HD
ENDROOT
BRANCH  10  14
ATOM     14  C   UNL     1       0.023  10.581  21.586  0.00  0.00    +0.000 A 
ATOM     15  C   UNL     1      -0.911  10.295  22.578  0.00  0.00    +0.000 A 
ATOM     16  C   UNL     1      -1.486  11.352  23.276  0.00  0.00    +0.000 A 
ATOM     17  C   UNL     1      -1.108  12.651  22.965  0.00  0.00    +0.000 A 
ATOM     18  C   UNL     1      -0.167  12.843  21.964  0.00  0.00    +0.000 A 
ATOM     19  N   UNL     1       0.410  11.840  21.261  0.00  0.00    +0.000 NA
ENDBRANCH  10  14
BRANCH   5  20
ATOM     20  N   UNL     1       4.096   6.553  17.025  0.00  0.00    +0.000 N 
ATOM     21  H   UNL     1       4.091   7.301  16.325  0.00  0.00    +0.000 HD
BRANCH  20  22
ATOM     22  C   UNL     1       5.394   5.983  17.125  0.00  0.00    +0.000 A 
ATOM     23  C   UNL     1       6.329   6.367  18.096  0.00  0.00    +0.000 A 
ATOM     24  C   UNL     1       7.531   5.669  18.252  0.00  0.00    +0.000 A 
ATOM     25  C   UNL     1       7.825   4.582  17.431  0.00  0.00    +0.000 A 
ATOM     26  C   UNL     1       6.931   4.213  16.430  0.00  0.00    +0.000 A 
ATOM     27  C   UNL     1       5.734   4.912  16.283  0.00  0.00    +0.000 A 
ATOM     28  F   UNL     1       4.879   4.530  15.320  0.00  0.00    +0.000 F 
ENDBRANCH  20  22
ENDBRANCH   5  20
TORSDOF 3
ENDMDL
