MODEL 1
REMARK VINA RESULT:      -7.6      0.000      0.000
REMARK  Name = 
REMARK  11 active torsions:
REMARK  status: ('A' for Active; 'I' for Inactive)
REMARK    1  A    between atoms: C_1  and  C_2
REMARK    2  A    between atoms: C_2  and  O_3
REMARK    3  A    between atoms: O_3  and  C_4
REMARK    4  A    between atoms: C_4  and  C_6
REMARK    5  A    between atoms: C_6  and  C_7
REMARK    6  A    between atoms: C_6  and  C_8
REMARK    7  A    between atoms: C_11  and  N_12
REMARK    8  A    between atoms: N_12  and  C_13
REMARK    9  A    between atoms: C_13  and  C_14
REMARK   10  A    between atoms: C_14  and  C_15
REMARK   11  A    between atoms: C_15  and  C_16
REMARK                            x       y       z     vdW  Elec       q    Type
REMARK                         _______ _______ _______ _____ _____    ______ ____
ROOT
ATOM      1  C   UNL     1       4.767   4.087  17.594  0.00  0.00    +0.000 A 
ATOM      2  C   UNL     1       5.498   4.198  16.410  0.00  0.00    +0.000 A 
ATOM      3  C   UNL     1       6.364   5.277  16.206  0.00  0.00    +0.000 A 
ATOM      4  C   UNL     1       6.563   6.252  17.190  0.00  0.00    +0.000 A 
ATOM      5  C   UNL     1       5.780   6.172  18.345  0.00  0.00    +0.000 A 
ATOM      6  C   UNL     1       4.887   5.108  18.548  0.00  0.00    +0.000 A 
ENDROOT
BRANCH   1   7
ATOM      7  C   UNL     1       3.888   2.867  17.830  0.00  0.00    +0.000 C 
ATOM      8  C   UNL     1       2.475   3.110  17.300  0.00  0.00    +0.000 C 
BRANCH   7   9
ATOM      9  C   UNL     1       3.857   2.472  19.304  0.00  0.00    +0.000 C 
ATOM     10  O   UNL     1       4.822   2.077  19.945  0.00  0.00    +0.000 OA
BRANCH   9  11
ATOM     11  O   UNL     1       2.585   2.566  19.792  0.00  0.00    +0.000 OA
BRANCH  11  13
ATOM     12  C   UNL     1       1.259   4.393  20.588  0.00  0.00    +0.000 C 
ATOM     13  C   UNL     1       2.420   3.464  20.897  0.00  0.00    +0.000 C 
ENDBRANCH  11  13
ENDBRANCH   9  11
ENDBRANCH   7   9
ENDBRANCH   1   7
BRANCH   4  14
ATOM     14  N   UNL     1       7.413   7.358  17.024  0.00  0.00    +0.000 N 
ATOM     15  H   UNL     1       6.960   8.089  16.478  0.00  0.00    +0.000 HD
BRANCH  14  16
ATOM     16  C   UNL     1       8.142   7.842  18.187  0.00  0.00    +0.000 C 
BRANCH  16  17
ATOM     17  C   UNL     1       8.389   9.344  18.102  0.00  0.00    +0.000 C 
BRANCH  17  18
ATOM     18  C   UNL     1       9.154   9.805  19.345  0.00  0.00    +0.000 C 
BRANCH  18  19
ATOM     19  C   UNL     1       9.950  11.058  19.097  0.00  0.00    +0.000 A 
ATOM     20  C   UNL     1      10.267  11.918  20.156  0.00  0.00    +0.000 A 
ATOM     21  C   UNL     1      11.003  13.082  19.922  0.00  0.00    +0.000 A 
ATOM     22  C   UNL     1      11.418  13.389  18.628  0.00  0.00    +0.000 A 
ATOM     23 CL   UNL     1      12.325  14.824  18.341  0.00  0.00    +0.000 Cl
ATOM     24  C   UNL     1      11.105  12.544  17.565  0.00  0.00    +0.000 A 
ATOM     25  C   UNL     1      10.370  11.382  17.799  0.00  0.00    +0.000 A 
ENDBRANCH  18  19
ENDBRANCH  17  18
ENDBRANCH  16  17
ENDBRANCH  14  16
ENDBRANCH   4  14
TORSDOF 9
ENDMDL
MODEL 2
REMARK VINA RESULT:      -7.6      4.130      8.015
REMARK  Name = 
REMARK  11 active torsions:
REMARK  status: ('A' for Active; 'I' for Inactive)
REMARK    1  A    between atoms: C_1  and  C_2
REMARK    2  A    between atoms: C_2  and  O_3
REMARK    3  A    between atoms: O_3  and  C_4
REMARK    4  A    between atoms: C_4  and  C_6
REMARK    5  A    between atoms: C_6  and  C_7
REMARK    6  A    between atoms: C_6  and  C_8
REMARK    7  A    between atoms: C_11  and  N_12
REMARK    8  A    between atoms: N_12  and  C_13
REMARK    9  A    between atoms: C_13  and  C_14
REMARK   10  A    between atoms: C_14  and  C_15
REMARK   11  A    between atoms: C_15  and  C_16
REMARK                            x       y       z     vdW  Elec       q    Type
REMARK                         _______ _______ _______ _____ _____    ______ ____
ROOT
ATOM      1  C   UNL     1       5.265   4.597  17.461  0.00  0.00    +0.000 A 
ATOM      2  C   UNL     1       4.553   3.451  17.105  0.00  0.00    +0.000 A 
ATOM      3  C   UNL     1       4.061   2.585  18.086  0.00  0.00    +0.000 A 
ATOM      4  C   UNL     1       4.223   2.855  19.450  0.00  0.00    +0.000 A 
ATOM      5  C   UNL     1       4.993   3.968  19.799  0.00  0.00    +0.000 A 
ATOM      6  C   UNL     1       5.515   4.829  18.821  0.00  0.00    +0.000 A 
ENDROOT
BRANCH   1   7
ATOM      7  C   UNL     1       5.727   5.568  16.383  0.00  0.00    +0.000 C 
ATOM      8  C   UNL     1       5.083   5.229  15.040  0.00  0.00    +0.000 C 
BRANCH   7   9
ATOM      9  C   UNL     1       7.248   5.598  16.267  0.00  0.00    +0.000 C 
ATOM     10  O   UNL     1       7.959   4.614  16.105  0.00  0.00    +0.000 OA
BRANCH   9  11
ATOM     11  O   UNL     1       7.710   6.872  16.427  0.00  0.00    +0.000 OA
BRANCH  11  13
ATOM     12  C   UNL     1       8.018   8.851  17.738  0.00  0.00    +0.000 C 
ATOM     13  C   UNL     1       7.670   7.374  17.769  0.00  0.00    +0.000 C 
ENDBRANCH  11  13
ENDBRANCH   9  11
ENDBRANCH   7   9
ENDBRANCH   1   7
BRANCH   4  14
ATOM     14  N   UNL     1       3.757   2.008  20.469  0.00  0.00    +0.000 N 
ATOM     15  H   UNL     1       4.165   2.258  21.368  0.00  0.00    +0.000 HD
BRANCH  14  16
ATOM     16  C   UNL     1       2.332   1.713  20.517  0.00  0.00    +0.000 C 
BRANCH  16  17
ATOM     17  C   UNL     1       1.588   2.713  21.395  0.00  0.00    +0.000 C 
BRANCH  17  18
ATOM     18  C   UNL     1       0.595   3.502  20.536  0.00  0.00    +0.000 C 
BRANCH  18  19
ATOM     19  C   UNL     1       1.249   4.649  19.813  0.00  0.00    +0.000 A 
ATOM     20  C   UNL     1       1.343   4.644  18.415  0.00  0.00    +0.000 A 
ATOM     21  C   UNL     1       1.952   5.709  17.747  0.00  0.00    +0.000 A 
ATOM     22  C   UNL     1       2.473   6.776  18.475  0.00  0.00    +0.000 A 
ATOM     23 CL   UNL     1       3.224   8.086  17.650  0.00  0.00    +0.000 Cl
ATOM     24  C   UNL     1       2.390   6.790  19.866  0.00  0.00    +0.000 A 
ATOM     25  C   UNL     1       1.781   5.727  20.534  0.00  0.00    +0.000 A 
ENDBRANCH  18  19
ENDBRANCH  17  18
ENDBRANCH  16  17
ENDBRANCH  14  16
ENDBRANCH   4  14
TORSDOF 9
ENDMDL
MODEL 3
REMARK VINA RESULT:      -7.4      5.640      8.084
REMARK  Name = 
REMARK  11 active torsions:
REMARK  status: ('A' for Active; 'I' for Inactive)
REMARK    1  A    between atoms: C_1  and  C_2
REMARK    2  A    between atoms: C_2  and  O_3
REMARK    3  A    between atoms: O_3  and  C_4
REMARK    4  A    between atoms: C_4  and  C_6
REMARK    5  A    between atoms: C_6  and  C_7
REMARK    6  A    between atoms: C_6  and  C_8
REMARK    7  A    between atoms: C_11  and  N_12
REMARK    8  A    between atoms: N_12  and  C_13
REMARK    9  A    between atoms: C_13  and  C_14
REMARK   10  A    between atoms: C_14  and  C_15
REMARK   11  A    between atoms: C_15  and  C_16
REMARK                            x       y       z     vdW  Elec       q    Type
REMARK                         _______ _______ _______ _____ _____    ______ ____
ROOT
ATOM      1  C   UNL     1       5.523   4.946  17.399  0.00  0.00    +0.000 A 
ATOM      2  C   UNL     1       4.853   3.769  17.062  0.00  0.00    +0.000 A 
ATOM      3  C   UNL     1       4.340   2.931  18.056  0.00  0.00    +0.000 A 
ATOM      4  C   UNL     1       4.438   3.260  19.413  0.00  0.00    +0.000 A 
ATOM      5  C   UNL     1       5.167   4.405  19.748  0.00  0.00    +0.000 A 
ATOM      6  C   UNL     1       5.710   5.239  18.758  0.00  0.00    +0.000 A 
ENDROOT
BRANCH   1   7
ATOM      7  C   UNL     1       6.008   5.884  16.302  0.00  0.00    +0.000 C 
ATOM      8  C   UNL     1       4.825   6.520  15.574  0.00  0.00    +0.000 C 
BRANCH   7   9
ATOM      9  C   UNL     1       6.933   5.171  15.320  0.00  0.00    +0.000 C 
ATOM     10  O   UNL     1       8.037   4.720  15.597  0.00  0.00    +0.000 OA
BRANCH   9  11
ATOM     11  O   UNL     1       6.379   5.158  14.073  0.00  0.00    +0.000 OA
BRANCH  11  13
ATOM     12  C   UNL     1       6.581   3.665  12.212  0.00  0.00    +0.000 C 
ATOM     13  C   UNL     1       5.982   3.866  13.593  0.00  0.00    +0.000 C 
ENDBRANCH  11  13
ENDBRANCH   9  11
ENDBRANCH   7   9
ENDBRANCH   1   7
BRANCH   4  14
ATOM     14  N   UNL     1       3.949   2.444  20.446  0.00  0.00    +0.000 N 
ATOM     15  H   UNL     1       4.154   2.846  21.360  0.00  0.00    +0.000 HD
BRANCH  14  16
ATOM     16  C   UNL     1       2.603   1.906  20.315  0.00  0.00    +0.000 C 
BRANCH  16  17
ATOM     17  C   UNL     1       1.623   2.635  21.228  0.00  0.00    +0.000 C 
BRANCH  17  18
ATOM     18  C   UNL     1       0.625   3.423  20.374  0.00  0.00    +0.000 C 
BRANCH  18  19
ATOM     19  C   UNL     1       1.241   4.651  19.760  0.00  0.00    +0.000 A 
ATOM     20  C   UNL     1       1.396   4.748  18.371  0.00  0.00    +0.000 A 
ATOM     21  C   UNL     1       1.971   5.888  17.804  0.00  0.00    +0.000 A 
ATOM     22  C   UNL     1       2.396   6.929  18.625  0.00  0.00    +0.000 A 
ATOM     23 CL   UNL     1       3.105   8.333  17.925  0.00  0.00    +0.000 Cl
ATOM     24  C   UNL     1       2.253   6.843  20.009  0.00  0.00    +0.000 A 
ATOM     25  C   UNL     1       1.678   5.705  20.575  0.00  0.00    +0.000 A 
ENDBRANCH  18  19
ENDBRANCH  17  18
ENDBRANCH  16  17
ENDBRANCH  14  16
ENDBRANCH   4  14
TORSDOF 9
ENDMDL
MODEL 4
REMARK VINA RESULT:      -7.3      4.814      8.156
REMARK  Name = 
REMARK  11 active torsions:
REMARK  status: ('A' for Active; 'I' for Inactive)
REMARK    1  A    between atoms: C_1  and  C_2
REMARK    2  A    between atoms: C_2  and  O_3
REMARK    3  A    between atoms: O_3  and  C_4
REMARK    4  A    between atoms: C_4  and  C_6
REMARK    5  A    between atoms: C_6  and  C_7
REMARK    6  A    between atoms: C_6  and  C_8
REMARK    7  A    between atoms: C_11  and  N_12
REMARK    8  A    between atoms: N_12  and  C_13
REMARK    9  A    between atoms: C_13  and  C_14
REMARK   10  A    between atoms: C_14  and  C_15
REMARK   11  A    between atoms: C_15  and  C_16
REMARK                            x       y       z     vdW  Elec       q    Type
REMARK                         _______ _______ _______ _____ _____    ______ ____
ROOT
ATOM      1  C   UNL     1       6.002   4.995  17.634  0.00  0.00    +0.000 A 
ATOM      2  C   UNL     1       5.978   5.278  19.000  0.00  0.00    +0.000 A 
ATOM      3  C   UNL     1       5.307   4.435  19.891  0.00  0.00    +0.000 A 
ATOM      4  C   UNL     1       4.677   3.263  19.457  0.00  0.00    +0.000 A 
ATOM      5  C   UNL     1       4.646   3.020  18.081  0.00  0.00    +0.000 A 
ATOM      6  C   UNL     1       5.294   3.875  17.175  0.00  0.00    +0.000 A 
ENDROOT
BRANCH   1   7
ATOM      7  C   UNL     1       6.801   5.882  16.690  0.00  0.00    +0.000 C 
ATOM      8  C   UNL     1       6.994   7.273  17.290  0.00  0.00    +0.000 C 
BRANCH   7   9
ATOM      9  C   UNL     1       6.150   5.968  15.312  0.00  0.00    +0.000 C 
ATOM     10  O   UNL     1       5.123   6.584  15.058  0.00  0.00    +0.000 OA
BRANCH   9  11
ATOM     11  O   UNL     1       6.845   5.212  14.412  0.00  0.00    +0.000 OA
BRANCH  11  13
ATOM     12  C   UNL     1       6.558   3.846  12.468  0.00  0.00    +0.000 C 
ATOM     13  C   UNL     1       6.150   4.061  13.915  0.00  0.00    +0.000 C 
ENDBRANCH  11  13
ENDBRANCH   9  11
ENDBRANCH   7   9
ENDBRANCH   1   7
BRANCH   4  14
ATOM     14  N   UNL     1       3.981   2.394  20.313  0.00  0.00    +0.000 N 
ATOM     15  H   UNL     1       4.093   2.672  21.287  0.00  0.00    +0.000 HD
BRANCH  14  16
ATOM     16  C   UNL     1       2.624   2.015  19.948  0.00  0.00    +0.000 C 
BRANCH  16  17
ATOM     17  C   UNL     1       1.618   2.474  20.998  0.00  0.00    +0.000 C 
BRANCH  17  18
ATOM     18  C   UNL     1       0.629   3.453  20.360  0.00  0.00    +0.000 C 
BRANCH  18  19
ATOM     19  C   UNL     1       1.320   4.608  19.686  0.00  0.00    +0.000 A 
ATOM     20  C   UNL     1       1.498   4.614  18.296  0.00  0.00    +0.000 A 
ATOM     21  C   UNL     1       2.143   5.686  17.674  0.00  0.00    +0.000 A 
ATOM     22  C   UNL     1       2.615   6.749  18.440  0.00  0.00    +0.000 A 
ATOM     23 CL   UNL     1       3.410   8.068  17.672  0.00  0.00    +0.000 Cl
ATOM     24  C   UNL     1       2.449   6.751  19.824  0.00  0.00    +0.000 A 
ATOM     25  C   UNL     1       1.805   5.682  20.446  0.00  0.00    +0.000 A 
ENDBRANCH  18  19
ENDBRANCH  17  18
ENDBRANCH  16  17
ENDBRANCH  14  16
ENDBRANCH   4  14
TORSDOF 9
ENDMDL
MODEL 5
REMARK VINA RESULT:      -7.3      4.659      7.755
REMARK  Name = 
REMARK  11 active torsions:
REMARK  status: ('A' for Active; 'I' for Inactive)
REMARK    1  A    between atoms: C_1  and  C_2
REMARK    2  A    between atoms: C_2  and  O_3
REMARK    3  A    between atoms: O_3  and  C_4
REMARK    4  A    between atoms: C_4  and  C_6
REMARK    5  A    between atoms: C_6  and  C_7
REMARK    6  A    between atoms: C_6  and  C_8
REMARK    7  A    between atoms: C_11  and  N_12
REMARK    8  A    between atoms: N_12  and  C_13
REMARK    9  A    between atoms: C_13  and  C_14
REMARK   10  A    between atoms: C_14  and  C_15
REMARK   11  A    between atoms: C_15  and  C_16
REMARK                            x       y       z     vdW  Elec       q    Type
REMARK                         _______ _______ _______ _____ _____    ______ ____
ROOT
ATOM      1  C   UNL     1       4.815   4.035  17.220  0.00  0.00    +0.000 A 
ATOM      2  C   UNL     1       5.328   4.531  18.420  0.00  0.00    +0.000 A 
ATOM      3  C   UNL     1       5.048   3.892  19.632  0.00  0.00    +0.000 A 
ATOM      4  C   UNL     1       4.288   2.718  19.683  0.00  0.00    +0.000 A 
ATOM      5  C   UNL     1       3.722   2.264  18.489  0.00  0.00    +0.000 A 
ATOM      6  C   UNL     1       3.974   2.914  17.269  0.00  0.00    +0.000 A 
ENDROOT
BRANCH   1   7
ATOM      7  C   UNL     1       5.192   4.698  15.903  0.00  0.00    +0.000 C 
ATOM      8  C   UNL     1       6.326   3.936  15.221  0.00  0.00    +0.000 C 
BRANCH   7   9
ATOM      9  C   UNL     1       5.560   6.166  16.097  0.00  0.00    +0.000 C 
ATOM     10  O   UNL     1       4.765   7.097  16.087  0.00  0.00    +0.000 OA
BRANCH   9  11
ATOM     11  O   UNL     1       6.913   6.301  16.225  0.00  0.00    +0.000 OA
BRANCH  11  13
ATOM     12  C   UNL     1       7.805   6.771  18.396  0.00  0.00    +0.000 C 
ATOM     13  C   UNL     1       7.343   7.369  17.080  0.00  0.00    +0.000 C 
ENDBRANCH  11  13
ENDBRANCH   9  11
ENDBRANCH   7   9
ENDBRANCH   1   7
BRANCH   4  14
ATOM     14  N   UNL     1       3.972   2.051  20.877  0.00  0.00    +0.000 N 
ATOM     15  H   UNL     1       4.698   2.190  21.579  0.00  0.00    +0.000 HD
BRANCH  14  16
ATOM     16  C   UNL     1       2.614   2.166  21.389  0.00  0.00    +0.000 C 
BRANCH  16  17
ATOM     17  C   UNL     1       2.245   3.620  21.660  0.00  0.00    +0.000 C 
BRANCH  17  18
ATOM     18  C   UNL     1       1.158   4.061  20.675  0.00  0.00    +0.000 C 
BRANCH  18  19
ATOM     19  C   UNL     1       1.515   5.337  19.962  0.00  0.00    +0.000 A 
ATOM     20  C   UNL     1       1.770   5.333  18.584  0.00  0.00    +0.000 A 
ATOM     21  C   UNL     1       2.104   6.518  17.926  0.00  0.00    +0.000 A 
ATOM     22  C   UNL     1       2.189   7.708  18.644  0.00  0.00    +0.000 A 
ATOM     23 CL   UNL     1       2.602   9.169  17.832  0.00  0.00    +0.000 Cl
ATOM     24  C   UNL     1       1.943   7.725  20.016  0.00  0.00    +0.000 A 
ATOM     25  C   UNL     1       1.609   6.542  20.674  0.00  0.00    +0.000 A 
ENDBRANCH  18  19
ENDBRANCH  17  18
ENDBRANCH  16  17
ENDBRANCH  14  16
ENDBRANCH   4  14
TORSDOF 9
ENDMDL
MODEL 6
REMARK VINA RESULT:      -7.3      1.252      1.770
REMARK  Name = 
REMARK  11 active torsions:
REMARK  status: ('A' for Active; 'I' for Inactive)
REMARK    1  A    between atoms: C_1  and  C_2
REMARK    2  A    between atoms: C_2  and  O_3
REMARK    3  A    between atoms: O_3  and  C_4
REMARK    4  A    between atoms: C_4  and  C_6
REMARK    5  A    between atoms: C_6  and  C_7
REMARK    6  A    between atoms: C_6  and  C_8
REMARK    7  A    between atoms: C_11  and  N_12
REMARK    8  A    between atoms: N_12  and  C_13
REMARK    9  A    between atoms: C_13  and  C_14
REMARK   10  A    between atoms: C_14  and  C_15
REMARK   11  A    between atoms: C_15  and  C_16
REMARK                            x       y       z     vdW  Elec       q    Type
REMARK                         _______ _______ _______ _____ _____    ______ ____
ROOT
ATOM      1  C   UNL     1       4.598   3.787  18.239  0.00  0.00    +0.000 A 
ATOM      2  C   UNL     1       5.497   4.381  19.126  0.00  0.00    +0.000 A 
ATOM      3  C   UNL     1       6.226   5.514  18.751  0.00  0.00    +0.000 A 
ATOM      4  C   UNL     1       6.050   6.116  17.500  0.00  0.00    +0.000 A 
ATOM      5  C   UNL     1       5.200   5.480  16.592  0.00  0.00    +0.000 A 
ATOM      6  C   UNL     1       4.484   4.326  16.949  0.00  0.00    +0.000 A 
ENDROOT
BRANCH   1   7
ATOM      7  C   UNL     1       3.758   2.601  18.690  0.00  0.00    +0.000 C 
ATOM      8  C   UNL     1       2.586   2.375  17.736  0.00  0.00    +0.000 C 
BRANCH   7   9
ATOM      9  C   UNL     1       3.268   2.772  20.125  0.00  0.00    +0.000 C 
ATOM     10  O   UNL     1       3.794   2.272  21.111  0.00  0.00    +0.000 OA
BRANCH   9  11
ATOM     11  O   UNL     1       2.123   3.515  20.148  0.00  0.00    +0.000 OA
BRANCH  11  13
ATOM     12  C   UNL     1       2.159   5.908  20.092  0.00  0.00    +0.000 C 
ATOM     13  C   UNL     1       2.166   4.679  20.984  0.00  0.00    +0.000 C 
ENDBRANCH  11  13
ENDBRANCH   9  11
ENDBRANCH   7   9
ENDBRANCH   1   7
BRANCH   4  14
ATOM     14  N   UNL     1       6.769   7.246  17.076  0.00  0.00    +0.000 N 
ATOM     15  H   UNL     1       6.139   8.004  16.817  0.00  0.00    +0.000 HD
BRANCH  14  16
ATOM     16  C   UNL     1       7.919   7.663  17.865  0.00  0.00    +0.000 C 
BRANCH  16  17
ATOM     17  C   UNL     1       8.064   9.180  17.875  0.00  0.00    +0.000 C 
BRANCH  17  18
ATOM     18  C   UNL     1       9.173   9.577  18.854  0.00  0.00    +0.000 C 
BRANCH  18  19
ATOM     19  C   UNL     1       9.313  11.070  18.985  0.00  0.00    +0.000 A 
ATOM     20  C   UNL     1       8.807  11.920  17.993  0.00  0.00    +0.000 A 
ATOM     21  C   UNL     1       8.941  13.305  18.117  0.00  0.00    +0.000 A 
ATOM     22  C   UNL     1       9.586  13.841  19.229  0.00  0.00    +0.000 A 
ATOM     23 CL   UNL     1       9.751  15.548  19.379  0.00  0.00    +0.000 Cl
ATOM     24  C   UNL     1      10.098  13.006  20.220  0.00  0.00    +0.000 A 
ATOM     25  C   UNL     1       9.964  11.623  20.098  0.00  0.00    +0.000 A 
ENDBRANCH  18  19
ENDBRANCH  17  18
ENDBRANCH  16  17
ENDBRANCH  14  16
ENDBRANCH   4  14
TORSDOF 9
ENDMDL
MODEL 7
REMARK VINA RESULT:      -7.2      4.158      8.734
REMARK  Name = 
REMARK  11 active torsions:
REMARK  status: ('A' for Active; 'I' for Inactive)
REMARK    1  A    between atoms: C_1  and  C_2
REMARK    2  A    between atoms: C_2  and  O_3
REMARK    3  A    between atoms: O_3  and  C_4
REMARK    4  A    between atoms: C_4  and  C_6
REMARK    5  A    between atoms: C_6  and  C_7
REMARK    6  A    between atoms: C_6  and  C_8
REMARK    7  A    between atoms: C_11  and  N_12
REMARK    8  A    between atoms: N_12  and  C_13
REMARK    9  A    between atoms: C_13  and  C_14
REMARK   10  A    between atoms: C_14  and  C_15
REMARK   11  A    between atoms: C_15  and  C_16
REMARK                            x       y       z     vdW  Elec       q    Type
REMARK                         _______ _______ _______ _____ _____    ______ ____
ROOT
ATOM      1  C   UNL     1       4.819   6.567  17.924  0.00  0.00    +0.000 A 
ATOM      2  C   UNL     1       5.242   5.579  18.814  0.00  0.00    +0.000 A 
ATOM      3  C   UNL     1       4.389   5.116  19.822  0.00  0.00    +0.000 A 
ATOM      4  C   UNL     1       3.078   5.589  19.945  0.00  0.00    +0.000 A 
ATOM      5  C   UNL     1       2.683   6.624  19.094  0.00  0.00    +0.000 A 
ATOM      6  C   UNL     1       3.540   7.116  18.097  0.00  0.00    +0.000 A 
ENDROOT
BRANCH   1   7
ATOM      7  C   UNL     1       5.733   7.004  16.787  0.00  0.00    +0.000 C 
ATOM      8  C   UNL     1       5.210   6.489  15.447  0.00  0.00    +0.000 C 
BRANCH   7   9
ATOM      9  C   UNL     1       7.173   6.557  17.019  0.00  0.00    +0.000 C 
ATOM     10  O   UNL     1       7.707   5.597  16.477  0.00  0.00    +0.000 OA
BRANCH   9  11
ATOM     11  O   UNL     1       7.767   7.345  17.962  0.00  0.00    +0.000 OA
BRANCH  11  13
ATOM     12  C   UNL     1       8.758   9.413  18.648  0.00  0.00    +0.000 C 
ATOM     13  C   UNL     1       7.867   8.735  17.623  0.00  0.00    +0.000 C 
ENDBRANCH  11  13
ENDBRANCH   9  11
ENDBRANCH   7   9
ENDBRANCH   1   7
BRANCH   4  14
ATOM     14  N   UNL     1       2.192   5.162  20.948  0.00  0.00    +0.000 N 
ATOM     15  H   UNL     1       2.126   5.850  21.697  0.00  0.00    +0.000 HD
BRANCH  14  16
ATOM     16  C   UNL     1       0.914   4.598  20.538  0.00  0.00    +0.000 C 
BRANCH  16  17
ATOM     17  C   UNL     1       0.890   3.085  20.726  0.00  0.00    +0.000 C 
BRANCH  17  18
ATOM     18  C   UNL     1       0.727   2.407  19.363  0.00  0.00    +0.000 C 
BRANCH  18  19
ATOM     19  C   UNL     1       1.930   2.601  18.479  0.00  0.00    +0.000 A 
ATOM     20  C   UNL     1       1.891   3.518  17.420  0.00  0.00    +0.000 A 
ATOM     21  C   UNL     1       3.008   3.694  16.600  0.00  0.00    +0.000 A 
ATOM     22  C   UNL     1       4.162   2.950  16.833  0.00  0.00    +0.000 A 
ATOM     23 CL   UNL     1       5.537   3.167  15.821  0.00  0.00    +0.000 Cl
ATOM     24  C   UNL     1       4.211   2.032  17.880  0.00  0.00    +0.000 A 
ATOM     25  C   UNL     1       3.097   1.856  18.700  0.00  0.00    +0.000 A 
ENDBRANCH  18  19
ENDBRANCH  17  18
ENDBRANCH  16  17
ENDBRANCH  14  16
ENDBRANCH   4  14
TORSDOF 9
ENDMDL
MODEL 8
REMARK VINA RESULT:      -7.2      1.103      1.313
REMARK  Name = 
REMARK  11 active torsions:
REMARK  status: ('A' for Active; 'I' for Inactive)
REMARK    1  A    between atoms: C_1  and  C_2
REMARK    2  A    between atoms: C_2  and  O_3
REMARK    3  A    between atoms: O_3  and  C_4
REMARK    4  A    between atoms: C_4  and  C_6
REMARK    5  A    between atoms: C_6  and  C_7
REMARK    6  A    between atoms: C_6  and  C_8
REMARK    7  A    between atoms: C_11  and  N_12
REMARK    8  A    between atoms: N_12  and  C_13
REMARK    9  A    between atoms: C_13  and  C_14
REMARK   10  A    between atoms: C_14  and  C_15
REMARK   11  A    between atoms: C_15  and  C_16
REMARK                            x       y       z     vdW  Elec       q    Type
REMARK                         _______ _______ _______ _____ _____    ______ ____
ROOT
ATOM      1  C   UNL     1       4.099   4.382  17.446  0.00  0.00    +0.000 A 
ATOM      2  C   UNL     1       5.364   3.984  17.012  0.00  0.00    +0.000 A 
ATOM      3  C   UNL     1       6.363   4.931  16.765  0.00  0.00    +0.000 A 
ATOM      4  C   UNL     1       6.148   6.296  16.984  0.00  0.00    +0.000 A 
ATOM      5  C   UNL     1       4.861   6.695  17.355  0.00  0.00    +0.000 A 
ATOM      6  C   UNL     1       3.843   5.754  17.579  0.00  0.00    +0.000 A 
ENDROOT
BRANCH   1   7
ATOM      7  C   UNL     1       3.048   3.333  17.783  0.00  0.00    +0.000 C 
ATOM      8  C   UNL     1       1.650   3.838  17.430  0.00  0.00    +0.000 C 
BRANCH   7   9
ATOM      9  C   UNL     1       3.122   2.912  19.248  0.00  0.00    +0.000 C 
ATOM     10  O   UNL     1       4.033   2.263  19.747  0.00  0.00    +0.000 OA
BRANCH   9  11
ATOM     11  O   UNL     1       1.999   3.312  19.912  0.00  0.00    +0.000 OA
BRANCH  11  13
ATOM     12  C   UNL     1       1.716   5.560  20.684  0.00  0.00    +0.000 C 
ATOM     13  C   UNL     1       2.226   4.173  21.035  0.00  0.00    +0.000 C 
ENDBRANCH  11  13
ENDBRANCH   9  11
ENDBRANCH   7   9
ENDBRANCH   1   7
BRANCH   4  14
ATOM     14  N   UNL     1       7.117   7.283  16.738  0.00  0.00    +0.000 N 
ATOM     15  H   UNL     1       6.856   7.861  15.941  0.00  0.00    +0.000 HD
BRANCH  14  16
ATOM     16  C   UNL     1       7.641   8.027  17.874  0.00  0.00    +0.000 C 
BRANCH  16  17
ATOM     17  C   UNL     1       8.421   9.256  17.420  0.00  0.00    +0.000 C 
BRANCH  17  18
ATOM     18  C   UNL     1       8.896  10.038  18.647  0.00  0.00    +0.000 C 
BRANCH  18  19
ATOM     19  C   UNL     1       9.515  11.360  18.280  0.00  0.00    +0.000 A 
ATOM     20  C   UNL     1      10.827  11.418  17.793  0.00  0.00    +0.000 A 
ATOM     21  C   UNL     1      11.399  12.646  17.456  0.00  0.00    +0.000 A 
ATOM     22  C   UNL     1      10.663  13.818  17.610  0.00  0.00    +0.000 A 
ATOM     23 CL   UNL     1      11.370  15.332  17.195  0.00  0.00    +0.000 Cl
ATOM     24  C   UNL     1       9.358  13.775  18.099  0.00  0.00    +0.000 A 
ATOM     25  C   UNL     1       8.786  12.548  18.435  0.00  0.00    +0.000 A 
ENDBRANCH  18  19
ENDBRANCH  17  18
ENDBRANCH  16  17
ENDBRANCH  14  16
ENDBRANCH   4  14
TORSDOF 9
ENDMDL
MODEL 9
REMARK VINA RESULT:      -7.1      6.355      9.139
REMARK  Name = 
REMARK  11 active torsions:
REMARK  status: ('A' for Active; 'I' for Inactive)
REMARK    1  A    between atoms: C_1  and  C_2
REMARK    2  A    between atoms: C_2  and  O_3
REMARK    3  A    between atoms: O_3  and  C_4
REMARK    4  A    between atoms: C_4  and  C_6
REMARK    5  A    between atoms: C_6  and  C_7
REMARK    6  A    between atoms: C_6  and  C_8
REMARK    7  A    between atoms: C_11  and  N_12
REMARK    8  A    between atoms: N_12  and  C_13
REMARK    9  A    between atoms: C_13  and  C_14
REMARK   10  A    between atoms: C_14  and  C_15
REMARK   11  A    between atoms: C_15  and  C_16
REMARK                            x       y       z     vdW  Elec       q    Type
REMARK                         _______ _______ _______ _____ _____    ______ ____
ROOT
ATOM      1  C   UNL     1       1.033   8.980  19.510  0.00  0.00    +0.000 A 
ATOM      2  C   UNL     1       1.711   7.894  20.066  0.00  0.00    +0.000 A 
ATOM      3  C   UNL     1       2.680   7.207  19.329  0.00  0.00    +0.000 A 
ATOM      4  C   UNL     1       3.036   7.605  18.035  0.00  0.00    +0.000 A 
ATOM      5  C   UNL     1       2.308   8.650  17.460  0.00  0.00    +0.000 A 
ATOM      6  C   UNL     1       1.313   9.330  18.181  0.00  0.00    +0.000 A 
ENDROOT
BRANCH   1   7
ATOM      7  C   UNL     1       0.037   9.764  20.353  0.00  0.00    +0.000 C 
ATOM      8  C   UNL     1      -0.920  10.554  19.462  0.00  0.00    +0.000 C 
BRANCH   7   9
ATOM      9  C   UNL     1       0.740  10.683  21.348  0.00  0.00    +0.000 C 
ATOM     10  O   UNL     1       1.336  11.712  21.053  0.00  0.00    +0.000 OA
BRANCH   9  11
ATOM     11  O   UNL     1       0.660  10.166  22.608  0.00  0.00    +0.000 OA
BRANCH  11  13
ATOM     12  C   UNL     1      -1.399  11.244  23.180  0.00  0.00    +0.000 C 
ATOM     13  C   UNL     1      -0.669   9.916  23.084  0.00  0.00    +0.000 C 
ENDBRANCH  11  13
ENDBRANCH   9  11
ENDBRANCH   7   9
ENDBRANCH   1   7
BRANCH   4  14
ATOM     14  N   UNL     1       3.993   6.938  17.254  0.00  0.00    +0.000 N 
ATOM     15  H   UNL     1       4.306   7.522  16.480  0.00  0.00    +0.000 HD
BRANCH  14  16
ATOM     16  C   UNL     1       5.061   6.225  17.939  0.00  0.00    +0.000 C 
BRANCH  16  17
ATOM     17  C   UNL     1       5.283   4.843  17.335  0.00  0.00    +0.000 C 
BRANCH  17  18
ATOM     18  C   UNL     1       3.928   4.194  17.043  0.00  0.00    +0.000 C 
BRANCH  18  19
ATOM     19  C   UNL     1       3.230   3.737  18.296  0.00  0.00    +0.000 A 
ATOM     20  C   UNL     1       3.950   3.107  19.320  0.00  0.00    +0.000 A 
ATOM     21  C   UNL     1       3.299   2.681  20.480  0.00  0.00    +0.000 A 
ATOM     22  C   UNL     1       1.927   2.880  20.616  0.00  0.00    +0.000 A 
ATOM     23 CL   UNL     1       1.126   2.354  22.045  0.00  0.00    +0.000 Cl
ATOM     24  C   UNL     1       1.198   3.500  19.603  0.00  0.00    +0.000 A 
ATOM     25  C   UNL     1       1.848   3.926  18.444  0.00  0.00    +0.000 A 
ENDBRANCH  18  19
ENDBRANCH  17  18
ENDBRANCH  16  17
ENDBRANCH  14  16
ENDBRANCH   4  14
TORSDOF 9
ENDMDL
