MODEL 1
REMARK VINA RESULT:      -7.4      0.000      0.000
REMARK  Name = 
REMARK  8 active torsions:
REMARK  status: ('A' for Active; 'I' for Inactive)
REMARK    1  A    between atoms: C_1  and  C_2
REMARK    2  A    between atoms: C_2  and  N_3
REMARK    3  A    between atoms: N_3  and  C_4
REMARK    4  A    between atoms: N_3  and  C_6
REMARK    5  A    between atoms: C_4  and  C_5
REMARK    6  A    between atoms: C_6  and  C_7
REMARK    7  A    between atoms: C_7  and  N_8
REMARK    8  A    between atoms: C_9  and  C_11
REMARK                            x       y       z     vdW  Elec       q    Type
REMARK                         _______ _______ _______ _____ _____    ______ ____
ROOT
ATOM      1  C   UNL     1       6.880   5.630  16.696  0.00  0.00    +0.000 A 
ATOM      2  C   UNL     1       7.459   5.698  15.413  0.00  0.00    +0.000 A 
ATOM      3  C   UNL     1       6.929   4.971  14.357  0.00  0.00    +0.000 A 
ATOM      4  C   UNL     1       5.825   4.161  14.581  0.00  0.00    +0.000 A 
ATOM      5  C   UNL     1       5.249   4.076  15.862  0.00  0.00    +0.000 A 
ATOM      6  C   UNL     1       4.152   3.238  16.080  0.00  0.00    +0.000 A 
ATOM      7  C   UNL     1       3.584   3.132  17.351  0.00  0.00    +0.000 A 
ATOM      8  C   UNL     1       2.493   2.282  17.608  0.00  0.00    +0.000 A 
ATOM      9  C   UNL     1       1.961   2.192  18.892  0.00  0.00    +0.000 A 
ATOM     10  C   UNL     1       2.518   2.954  19.914  0.00  0.00    +0.000 A 
ATOM     11  I   UNL     1       1.747   2.834  21.838  0.00  0.00    +0.000 I 
ATOM     12  C   UNL     1       3.600   3.801  19.654  0.00  0.00    +0.000 A 
ATOM     13  C   UNL     1       4.148   3.901  18.382  0.00  0.00    +0.000 A 
ATOM     14  N   UNL     1       5.194   4.721  18.177  0.00  0.00    +0.000 NA
ATOM     15  C   UNL     1       5.765   4.816  16.950  0.00  0.00    +0.000 A 
ENDROOT
BRANCH   1  17
ATOM     16  N   UNL     1       7.794   7.789  17.446  0.00  0.00    +0.000 N 
ATOM     17  C   UNL     1       7.528   6.470  17.744  0.00  0.00    +0.000 C 
ATOM     18  O   UNL     1       7.843   5.962  18.818  0.00  0.00    +0.000 OA
ATOM     19  H   UNL     1       7.291   8.214  16.666  0.00  0.00    +0.000 HD
BRANCH  16  20
ATOM     20  C   UNL     1       8.401   8.649  18.439  0.00  0.00    +0.000 C 
BRANCH  20  21
ATOM     21  C   UNL     1       8.512  10.123  18.005  0.00  0.00    +0.000 C 
BRANCH  21  22
ATOM     22  N   UNL     1       9.591  10.911  18.647  0.00  0.00    +0.000 NA
BRANCH  22  24
ATOM     23  C   UNL     1      10.993  12.523  17.295  0.00  0.00    +0.000 C 
ATOM     24  C   UNL     1       9.699  12.257  18.058  0.00  0.00    +0.000 C 
ENDBRANCH  22  24
BRANCH  22  25
ATOM     25  C   UNL     1       9.444  10.910  20.115  0.00  0.00    +0.000 C 
ATOM     26  C   UNL     1      10.259  11.948  20.888  0.00  0.00    +0.000 C 
ENDBRANCH  22  25
ENDBRANCH  21  22
ENDBRANCH  20  21
ENDBRANCH  16  20
ENDBRANCH   1  17
TORSDOF 6
ENDMDL
MODEL 2
REMARK VINA RESULT:      -7.3      4.203      6.777
REMARK  Name = 
REMARK  8 active torsions:
REMARK  status: ('A' for Active; 'I' for Inactive)
REMARK    1  A    between atoms: C_1  and  C_2
REMARK    2  A    between atoms: C_2  and  N_3
REMARK    3  A    between atoms: N_3  and  C_4
REMARK    4  A    between atoms: N_3  and  C_6
REMARK    5  A    between atoms: C_4  and  C_5
REMARK    6  A    between atoms: C_6  and  C_7
REMARK    7  A    between atoms: C_7  and  N_8
REMARK    8  A    between atoms: C_9  and  C_11
REMARK                            x       y       z     vdW  Elec       q    Type
REMARK                         _______ _______ _______ _____ _____    ______ ____
ROOT
ATOM      1  C   UNL     1       3.154   4.995  18.813  0.00  0.00    +0.000 A 
ATOM      2  C   UNL     1       3.194   3.707  19.386  0.00  0.00    +0.000 A 
ATOM      3  C   UNL     1       2.514   3.434  20.563  0.00  0.00    +0.000 A 
ATOM      4  C   UNL     1       1.800   4.449  21.183  0.00  0.00    +0.000 A 
ATOM      5  C   UNL     1       1.765   5.741  20.626  0.00  0.00    +0.000 A 
ATOM      6  C   UNL     1       1.062   6.762  21.273  0.00  0.00    +0.000 A 
ATOM      7  C   UNL     1       1.036   8.052  20.739  0.00  0.00    +0.000 A 
ATOM      8  C   UNL     1       0.355   9.105  21.375  0.00  0.00    +0.000 A 
ATOM      9  C   UNL     1       0.363  10.382  20.820  0.00  0.00    +0.000 A 
ATOM     10  C   UNL     1       1.047  10.603  19.629  0.00  0.00    +0.000 A 
ATOM     11  I   UNL     1       1.078  12.498  18.784  0.00  0.00    +0.000 I 
ATOM     12  C   UNL     1       1.719   9.551  18.997  0.00  0.00    +0.000 A 
ATOM     13  C   UNL     1       1.728   8.273  19.537  0.00  0.00    +0.000 A 
ATOM     14  N   UNL     1       2.395   7.293  18.901  0.00  0.00    +0.000 NA
ATOM     15  C   UNL     1       2.442   6.040  19.421  0.00  0.00    +0.000 A 
ENDROOT
BRANCH   1  17
ATOM     16  N   UNL     1       4.550   6.360  17.315  0.00  0.00    +0.000 N 
ATOM     17  C   UNL     1       3.910   5.161  17.539  0.00  0.00    +0.000 C 
ATOM     18  O   UNL     1       3.909   4.251  16.712  0.00  0.00    +0.000 OA
ATOM     19  H   UNL     1       4.734   6.962  18.118  0.00  0.00    +0.000 HD
BRANCH  16  20
ATOM     20  C   UNL     1       5.315   6.559  16.103  0.00  0.00    +0.000 C 
BRANCH  20  21
ATOM     21  C   UNL     1       6.841   6.545  16.317  0.00  0.00    +0.000 C 
BRANCH  21  22
ATOM     22  N   UNL     1       7.501   5.222  16.207  0.00  0.00    +0.000 NA
BRANCH  22  24
ATOM     23  C   UNL     1       7.747   5.509  18.707  0.00  0.00    +0.000 C 
ATOM     24  C   UNL     1       7.605   4.561  17.520  0.00  0.00    +0.000 C 
ENDBRANCH  22  24
BRANCH  22  25
ATOM     25  C   UNL     1       6.856   4.394  15.171  0.00  0.00    +0.000 C 
ATOM     26  C   UNL     1       7.174   4.742  13.716  0.00  0.00    +0.000 C 
ENDBRANCH  22  25
ENDBRANCH  21  22
ENDBRANCH  20  21
ENDBRANCH  16  20
ENDBRANCH   1  17
TORSDOF 6
ENDMDL
MODEL 3
REMARK VINA RESULT:      -7.2      4.803      6.981
REMARK  Name = 
REMARK  8 active torsions:
REMARK  status: ('A' for Active; 'I' for Inactive)
REMARK    1  A    between atoms: C_1  and  C_2
REMARK    2  A    between atoms: C_2  and  N_3
REMARK    3  A    between atoms: N_3  and  C_4
REMARK    4  A    between atoms: N_3  and  C_6
REMARK    5  A    between atoms: C_4  and  C_5
REMARK    6  A    between atoms: C_6  and  C_7
REMARK    7  A    between atoms: C_7  and  N_8
REMARK    8  A    between atoms: C_9  and  C_11
REMARK                            x       y       z     vdW  Elec       q    Type
REMARK                         _______ _______ _______ _____ _____    ______ ____
ROOT
ATOM      1  C   UNL     1       4.152   4.277  18.948  0.00  0.00    +0.000 A 
ATOM      2  C   UNL     1       4.267   2.991  19.514  0.00  0.00    +0.000 A 
ATOM      3  C   UNL     1       3.464   2.611  20.581  0.00  0.00    +0.000 A 
ATOM      4  C   UNL     1       2.552   3.520  21.097  0.00  0.00    +0.000 A 
ATOM      5  C   UNL     1       2.440   4.811  20.548  0.00  0.00    +0.000 A 
ATOM      6  C   UNL     1       1.534   5.726  21.092  0.00  0.00    +0.000 A 
ATOM      7  C   UNL     1       1.427   7.015  20.567  0.00  0.00    +0.000 A 
ATOM      8  C   UNL     1       0.541   7.964  21.105  0.00  0.00    +0.000 A 
ATOM      9  C   UNL     1       0.472   9.246  20.563  0.00  0.00    +0.000 A 
ATOM     10  C   UNL     1       1.286   9.573  19.483  0.00  0.00    +0.000 A 
ATOM     11  I   UNL     1       1.206  11.477  18.660  0.00  0.00    +0.000 I 
ATOM     12  C   UNL     1       2.163   8.624  18.948  0.00  0.00    +0.000 A 
ATOM     13  C   UNL     1       2.251   7.344  19.477  0.00  0.00    +0.000 A 
ATOM     14  N   UNL     1       3.115   6.465  18.938  0.00  0.00    +0.000 NA
ATOM     15  C   UNL     1       3.239   5.216  19.454  0.00  0.00    +0.000 A 
ENDROOT
BRANCH   1  17
ATOM     16  N   UNL     1       4.491   5.021  16.627  0.00  0.00    +0.000 N 
ATOM     17  C   UNL     1       5.055   4.560  17.796  0.00  0.00    +0.000 C 
ATOM     18  O   UNL     1       6.259   4.337  17.903  0.00  0.00    +0.000 OA
ATOM     19  H   UNL     1       3.555   5.426  16.675  0.00  0.00    +0.000 HD
BRANCH  16  20
ATOM     20  C   UNL     1       5.329   5.332  15.489  0.00  0.00    +0.000 C 
BRANCH  20  21
ATOM     21  C   UNL     1       5.292   4.269  14.376  0.00  0.00    +0.000 C 
BRANCH  21  22
ATOM     22  N   UNL     1       6.583   3.980  13.707  0.00  0.00    +0.000 NA
BRANCH  22  24
ATOM     23  C   UNL     1       4.931   3.290  11.922  0.00  0.00    +0.000 C 
ATOM     24  C   UNL     1       6.383   3.546  12.314  0.00  0.00    +0.000 C 
ENDBRANCH  22  24
BRANCH  22  25
ATOM     25  C   UNL     1       7.517   5.113  13.852  0.00  0.00    +0.000 C 
ATOM     26  C   UNL     1       8.178   5.627  12.572  0.00  0.00    +0.000 C 
ENDBRANCH  22  25
ENDBRANCH  21  22
ENDBRANCH  20  21
ENDBRANCH  16  20
ENDBRANCH   1  17
TORSDOF 6
ENDMDL
MODEL 4
REMARK VINA RESULT:      -7.2      0.383      1.303
REMARK  Name = 
REMARK  8 active torsions:
REMARK  status: ('A' for Active; 'I' for Inactive)
REMARK    1  A    between atoms: C_1  and  C_2
REMARK    2  A    between atoms: C_2  and  N_3
REMARK    3  A    between atoms: N_3  and  C_4
REMARK    4  A    between atoms: N_3  and  C_6
REMARK    5  A    between atoms: C_4  and  C_5
REMARK    6  A    between atoms: C_6  and  C_7
REMARK    7  A    between atoms: C_7  and  N_8
REMARK    8  A    between atoms: C_9  and  C_11
REMARK                            x       y       z     vdW  Elec       q    Type
REMARK                         _______ _______ _______ _____ _____    ______ ____
ROOT
ATOM      1  C   UNL     1       6.903   5.703  16.657  0.00  0.00    +0.000 A 
ATOM      2  C   UNL     1       7.502   5.753  15.382  0.00  0.00    +0.000 A 
ATOM      3  C   UNL     1       7.009   4.984  14.337  0.00  0.00    +0.000 A 
ATOM      4  C   UNL     1       5.923   4.152  14.565  0.00  0.00    +0.000 A 
ATOM      5  C   UNL     1       5.328   4.084  15.838  0.00  0.00    +0.000 A 
ATOM      6  C   UNL     1       4.249   3.223  16.061  0.00  0.00    +0.000 A 
ATOM      7  C   UNL     1       3.662   3.136  17.324  0.00  0.00    +0.000 A 
ATOM      8  C   UNL     1       2.590   2.265  17.586  0.00  0.00    +0.000 A 
ATOM      9  C   UNL     1       2.038   2.194  18.863  0.00  0.00    +0.000 A 
ATOM     10  C   UNL     1       2.558   2.997  19.874  0.00  0.00    +0.000 A 
ATOM     11  I   UNL     1       1.758   2.907  21.787  0.00  0.00    +0.000 I 
ATOM     12  C   UNL     1       3.622   3.866  19.608  0.00  0.00    +0.000 A 
ATOM     13  C   UNL     1       4.188   3.947  18.344  0.00  0.00    +0.000 A 
ATOM     14  N   UNL     1       5.216   4.789  18.134  0.00  0.00    +0.000 NA
ATOM     15  C   UNL     1       5.805   4.867  16.914  0.00  0.00    +0.000 A 
ENDROOT
BRANCH   1  17
ATOM     16  N   UNL     1       7.779   7.895  17.353  0.00  0.00    +0.000 N 
ATOM     17  C   UNL     1       7.510   6.588  17.692  0.00  0.00    +0.000 C 
ATOM     18  O   UNL     1       7.792   6.123  18.795  0.00  0.00    +0.000 OA
ATOM     19  H   UNL     1       7.300   8.287  16.541  0.00  0.00    +0.000 HD
BRANCH  16  20
ATOM     20  C   UNL     1       8.347   8.798  18.331  0.00  0.00    +0.000 C 
BRANCH  20  21
ATOM     21  C   UNL     1       8.321  10.278  17.906  0.00  0.00    +0.000 C 
BRANCH  21  22
ATOM     22  N   UNL     1       9.282  11.171  18.598  0.00  0.00    +0.000 NA
BRANCH  22  24
ATOM     23  C   UNL     1       9.200  11.572  21.093  0.00  0.00    +0.000 C 
ATOM     24  C   UNL     1       9.618  10.664  19.940  0.00  0.00    +0.000 C 
ENDBRANCH  22  24
BRANCH  22  25
ATOM     25  C   UNL     1      10.458  11.440  17.749  0.00  0.00    +0.000 C 
ATOM     26  C   UNL     1      11.104  12.819  17.886  0.00  0.00    +0.000 C 
ENDBRANCH  22  25
ENDBRANCH  21  22
ENDBRANCH  20  21
ENDBRANCH  16  20
ENDBRANCH   1  17
TORSDOF 6
ENDMDL
MODEL 5
REMARK VINA RESULT:      -7.1      0.644      1.121
REMARK  Name = 
REMARK  8 active torsions:
REMARK  status: ('A' for Active; 'I' for Inactive)
REMARK    1  A    between atoms: C_1  and  C_2
REMARK    2  A    between atoms: C_2  and  N_3
REMARK    3  A    between atoms: N_3  and  C_4
REMARK    4  A    between atoms: N_3  and  C_6
REMARK    5  A    between atoms: C_4  and  C_5
REMARK    6  A    between atoms: C_6  and  C_7
REMARK    7  A    between atoms: C_7  and  N_8
REMARK    8  A    between atoms: C_9  and  C_11
REMARK                            x       y       z     vdW  Elec       q    Type
REMARK                         _______ _______ _______ _____ _____    ______ ____
ROOT
ATOM      1  C   UNL     1       6.931   5.718  16.666  0.00  0.00    +0.000 A 
ATOM      2  C   UNL     1       7.546   5.767  15.398  0.00  0.00    +0.000 A 
ATOM      3  C   UNL     1       7.073   4.989  14.351  0.00  0.00    +0.000 A 
ATOM      4  C   UNL     1       5.991   4.148  14.569  0.00  0.00    +0.000 A 
ATOM      5  C   UNL     1       5.381   4.081  15.835  0.00  0.00    +0.000 A 
ATOM      6  C   UNL     1       4.307   3.212  16.048  0.00  0.00    +0.000 A 
ATOM      7  C   UNL     1       3.705   3.125  17.305  0.00  0.00    +0.000 A 
ATOM      8  C   UNL     1       2.637   2.246  17.557  0.00  0.00    +0.000 A 
ATOM      9  C   UNL     1       2.070   2.176  18.827  0.00  0.00    +0.000 A 
ATOM     10  C   UNL     1       2.570   2.988  19.841  0.00  0.00    +0.000 A 
ATOM     11  I   UNL     1       1.747   2.900  21.744  0.00  0.00    +0.000 I 
ATOM     12  C   UNL     1       3.629   3.865  19.584  0.00  0.00    +0.000 A 
ATOM     13  C   UNL     1       4.211   3.945  18.327  0.00  0.00    +0.000 A 
ATOM     14  N   UNL     1       5.234   4.795  18.126  0.00  0.00    +0.000 NA
ATOM     15  C   UNL     1       5.838   4.873  16.913  0.00  0.00    +0.000 A 
ENDROOT
BRANCH   1  17
ATOM     16  N   UNL     1       7.760   7.926  17.369  0.00  0.00    +0.000 N 
ATOM     17  C   UNL     1       7.518   6.612  17.705  0.00  0.00    +0.000 C 
ATOM     18  O   UNL     1       7.807   6.151  18.807  0.00  0.00    +0.000 OA
ATOM     19  H   UNL     1       7.274   8.309  16.557  0.00  0.00    +0.000 HD
BRANCH  16  20
ATOM     20  C   UNL     1       8.307   8.838  18.351  0.00  0.00    +0.000 C 
BRANCH  20  21
ATOM     21  C   UNL     1       8.596  10.248  17.803  0.00  0.00    +0.000 C 
BRANCH  21  22
ATOM     22  N   UNL     1       9.136  11.226  18.776  0.00  0.00    +0.000 NA
BRANCH  22  24
ATOM     23  C   UNL     1      11.457  11.850  17.991  0.00  0.00    +0.000 C 
ATOM     24  C   UNL     1      10.588  11.056  18.962  0.00  0.00    +0.000 C 
ENDBRANCH  22  24
BRANCH  22  25
ATOM     25  C   UNL     1       8.737  12.601  18.419  0.00  0.00    +0.000 C 
ATOM     26  C   UNL     1       7.886  12.765  17.159  0.00  0.00    +0.000 C 
ENDBRANCH  22  25
ENDBRANCH  21  22
ENDBRANCH  20  21
ENDBRANCH  16  20
ENDBRANCH   1  17
TORSDOF 6
ENDMDL
MODEL 6
REMARK VINA RESULT:      -7.0      4.950      7.596
REMARK  Name = 
REMARK  8 active torsions:
REMARK  status: ('A' for Active; 'I' for Inactive)
REMARK    1  A    between atoms: C_1  and  C_2
REMARK    2  A    between atoms: C_2  and  N_3
REMARK    3  A    between atoms: N_3  and  C_4
REMARK    4  A    between atoms: N_3  and  C_6
REMARK    5  A    between atoms: C_4  and  C_5
REMARK    6  A    between atoms: C_6  and  C_7
REMARK    7  A    between atoms: C_7  and  N_8
REMARK    8  A    between atoms: C_9  and  C_11
REMARK                            x       y       z     vdW  Elec       q    Type
REMARK                         _______ _______ _______ _____ _____    ______ ____
ROOT
ATOM      1  C   UNL     1       4.193   4.822  17.829  0.00  0.00    +0.000 A 
ATOM      2  C   UNL     1       4.528   3.506  18.211  0.00  0.00    +0.000 A 
ATOM      3  C   UNL     1       4.017   2.954  19.377  0.00  0.00    +0.000 A 
ATOM      4  C   UNL     1       3.178   3.718  20.174  0.00  0.00    +0.000 A 
ATOM      5  C   UNL     1       2.849   5.037  19.809  0.00  0.00    +0.000 A 
ATOM      6  C   UNL     1       2.022   5.805  20.634  0.00  0.00    +0.000 A 
ATOM      7  C   UNL     1       1.703   7.120  20.290  0.00  0.00    +0.000 A 
ATOM      8  C   UNL     1       0.891   7.924  21.108  0.00  0.00    +0.000 A 
ATOM      9  C   UNL     1       0.605   9.237  20.740  0.00  0.00    +0.000 A 
ATOM     10  C   UNL     1       1.129   9.740  19.553  0.00  0.00    +0.000 A 
ATOM     11  I   UNL     1       0.724  11.694  18.983  0.00  0.00    +0.000 I 
ATOM     12  C   UNL     1       1.933   8.934  18.740  0.00  0.00    +0.000 A 
ATOM     13  C   UNL     1       2.233   7.626  19.092  0.00  0.00    +0.000 A 
ATOM     14  N   UNL     1       3.018   6.889  18.285  0.00  0.00    +0.000 NA
ATOM     15  C   UNL     1       3.349   5.616  18.620  0.00  0.00    +0.000 A 
ENDROOT
BRANCH   1  17
ATOM     16  N   UNL     1       4.946   4.384  15.528  0.00  0.00    +0.000 N 
ATOM     17  C   UNL     1       4.790   5.296  16.548  0.00  0.00    +0.000 C 
ATOM     18  O   UNL     1       5.163   6.463  16.450  0.00  0.00    +0.000 OA
ATOM     19  H   UNL     1       4.397   3.524  15.566  0.00  0.00    +0.000 HD
BRANCH  16  20
ATOM     20  C   UNL     1       5.500   4.803  14.258  0.00  0.00    +0.000 C 
BRANCH  20  21
ATOM     21  C   UNL     1       6.383   3.740  13.579  0.00  0.00    +0.000 C 
BRANCH  21  22
ATOM     22  N   UNL     1       6.110   3.487  12.144  0.00  0.00    +0.000 NA
BRANCH  22  24
ATOM     23  C   UNL     1       6.703   1.317  10.988  0.00  0.00    +0.000 C 
ATOM     24  C   UNL     1       7.169   2.665  11.531  0.00  0.00    +0.000 C 
ENDBRANCH  22  24
BRANCH  22  25
ATOM     25  C   UNL     1       4.750   2.949  11.952  0.00  0.00    +0.000 C 
ATOM     26  C   UNL     1       3.904   3.595  10.854  0.00  0.00    +0.000 C 
ENDBRANCH  22  25
ENDBRANCH  21  22
ENDBRANCH  20  21
ENDBRANCH  16  20
ENDBRANCH   1  17
TORSDOF 6
ENDMDL
MODEL 7
REMARK VINA RESULT:      -6.9      3.467      5.864
REMARK  Name = 
REMARK  8 active torsions:
REMARK  status: ('A' for Active; 'I' for Inactive)
REMARK    1  A    between atoms: C_1  and  C_2
REMARK    2  A    between atoms: C_2  and  N_3
REMARK    3  A    between atoms: N_3  and  C_4
REMARK    4  A    between atoms: N_3  and  C_6
REMARK    5  A    between atoms: C_4  and  C_5
REMARK    6  A    between atoms: C_6  and  C_7
REMARK    7  A    between atoms: C_7  and  N_8
REMARK    8  A    between atoms: C_9  and  C_11
REMARK                            x       y       z     vdW  Elec       q    Type
REMARK                         _______ _______ _______ _____ _____    ______ ____
ROOT
ATOM      1  C   UNL     1       3.941   3.747  19.388  0.00  0.00    +0.000 A 
ATOM      2  C   UNL     1       3.895   2.537  20.112  0.00  0.00    +0.000 A 
ATOM      3  C   UNL     1       3.018   2.380  21.175  0.00  0.00    +0.000 A 
ATOM      4  C   UNL     1       2.191   3.436  21.530  0.00  0.00    +0.000 A 
ATOM      5  C   UNL     1       2.240   4.652  20.824  0.00  0.00    +0.000 A 
ATOM      6  C   UNL     1       1.418   5.716  21.207  0.00  0.00    +0.000 A 
ATOM      7  C   UNL     1       1.471   6.932  20.523  0.00  0.00    +0.000 A 
ATOM      8  C   UNL     1       0.673   8.028  20.897  0.00  0.00    +0.000 A 
ATOM      9  C   UNL     1       0.762   9.231  20.201  0.00  0.00    +0.000 A 
ATOM     10  C   UNL     1       1.646   9.334  19.131  0.00  0.00    +0.000 A 
ATOM     11  I   UNL     1       1.803  11.117  18.080  0.00  0.00    +0.000 I 
ATOM     12  C   UNL     1       2.435   8.240  18.760  0.00  0.00    +0.000 A 
ATOM     13  C   UNL     1       2.364   7.035  19.445  0.00  0.00    +0.000 A 
ATOM     14  N   UNL     1       3.147   6.011  19.060  0.00  0.00    +0.000 NA
ATOM     15  C   UNL     1       3.117   4.831  19.730  0.00  0.00    +0.000 A 
ENDROOT
BRANCH   1  17
ATOM     16  N   UNL     1       6.194   4.218  18.517  0.00  0.00    +0.000 N 
ATOM     17  C   UNL     1       4.911   3.788  18.257  0.00  0.00    +0.000 C 
ATOM     18  O   UNL     1       4.536   3.482  17.127  0.00  0.00    +0.000 OA
ATOM     19  H   UNL     1       6.515   4.207  19.486  0.00  0.00    +0.000 HD
BRANCH  16  20
ATOM     20  C   UNL     1       7.177   4.253  17.456  0.00  0.00    +0.000 C 
BRANCH  20  21
ATOM     21  C   UNL     1       7.285   5.616  16.747  0.00  0.00    +0.000 C 
BRANCH  21  22
ATOM     22  N   UNL     1       6.950   6.804  17.568  0.00  0.00    +0.000 NA
BRANCH  22  24
ATOM     23  C   UNL     1       7.807   9.166  17.851  0.00  0.00    +0.000 C 
ATOM     24  C   UNL     1       8.123   7.676  17.758  0.00  0.00    +0.000 C 
ENDBRANCH  22  24
BRANCH  22  25
ATOM     25  C   UNL     1       5.768   7.503  17.028  0.00  0.00    +0.000 C 
ATOM     26  C   UNL     1       4.947   6.753  15.978  0.00  0.00    +0.000 C 
ENDBRANCH  22  25
ENDBRANCH  21  22
ENDBRANCH  20  21
ENDBRANCH  16  20
ENDBRANCH   1  17
TORSDOF 6
ENDMDL
MODEL 8
REMARK VINA RESULT:      -6.8      4.935      7.621
REMARK  Name = 
REMARK  8 active torsions:
REMARK  status: ('A' for Active; 'I' for Inactive)
REMARK    1  A    between atoms: C_1  and  C_2
REMARK    2  A    between atoms: C_2  and  N_3
REMARK    3  A    between atoms: N_3  and  C_4
REMARK    4  A    between atoms: N_3  and  C_6
REMARK    5  A    between atoms: C_4  and  C_5
REMARK    6  A    between atoms: C_6  and  C_7
REMARK    7  A    between atoms: C_7  and  N_8
REMARK    8  A    between atoms: C_9  and  C_11
REMARK                            x       y       z     vdW  Elec       q    Type
REMARK                         _______ _______ _______ _____ _____    ______ ____
ROOT
ATOM      1  C   UNL     1       4.323   4.665  17.607  0.00  0.00    +0.000 A 
ATOM      2  C   UNL     1       4.664   3.345  17.965  0.00  0.00    +0.000 A 
ATOM      3  C   UNL     1       4.175   2.779  19.134  0.00  0.00    +0.000 A 
ATOM      4  C   UNL     1       3.352   3.535  19.958  0.00  0.00    +0.000 A 
ATOM      5  C   UNL     1       3.018   4.858  19.615  0.00  0.00    +0.000 A 
ATOM      6  C   UNL     1       2.208   5.616  20.465  0.00  0.00    +0.000 A 
ATOM      7  C   UNL     1       1.884   6.936  20.143  0.00  0.00    +0.000 A 
ATOM      8  C   UNL     1       1.090   7.731  20.987  0.00  0.00    +0.000 A 
ATOM      9  C   UNL     1       0.798   9.049  20.640  0.00  0.00    +0.000 A 
ATOM     10  C   UNL     1       1.300   9.565  19.449  0.00  0.00    +0.000 A 
ATOM     11  I   UNL     1       0.886  11.527  18.911  0.00  0.00    +0.000 I 
ATOM     12  C   UNL     1       2.086   8.769  18.611  0.00  0.00    +0.000 A 
ATOM     13  C   UNL     1       2.392   7.456  18.941  0.00  0.00    +0.000 A 
ATOM     14  N   UNL     1       3.160   6.728  18.111  0.00  0.00    +0.000 NA
ATOM     15  C   UNL     1       3.495   5.451  18.423  0.00  0.00    +0.000 A 
ENDROOT
BRANCH   1  17
ATOM     16  N   UNL     1       5.086   4.242  15.306  0.00  0.00    +0.000 N 
ATOM     17  C   UNL     1       4.895   5.154  16.320  0.00  0.00    +0.000 C 
ATOM     18  O   UNL     1       5.218   6.335  16.212  0.00  0.00    +0.000 OA
ATOM     19  H   UNL     1       4.574   3.360  15.353  0.00  0.00    +0.000 HD
BRANCH  16  20
ATOM     20  C   UNL     1       5.618   4.674  14.031  0.00  0.00    +0.000 C 
BRANCH  20  21
ATOM     21  C   UNL     1       6.198   3.532  13.176  0.00  0.00    +0.000 C 
BRANCH  21  22
ATOM     22  N   UNL     1       5.244   2.845  12.273  0.00  0.00    +0.000 NA
BRANCH  22  24
ATOM     23  C   UNL     1       3.386   3.207  10.597  0.00  0.00    +0.000 C 
ATOM     24  C   UNL     1       4.528   3.804  11.415  0.00  0.00    +0.000 C 
ENDBRANCH  22  24
BRANCH  22  25
ATOM     25  C   UNL     1       5.910   1.759  11.528  0.00  0.00    +0.000 C 
ATOM     26  C   UNL     1       7.310   2.055  10.988  0.00  0.00    +0.000 C 
ENDBRANCH  22  25
ENDBRANCH  21  22
ENDBRANCH  20  21
ENDBRANCH  16  20
ENDBRANCH   1  17
TORSDOF 6
ENDMDL
MODEL 9
REMARK VINA RESULT:      -6.8      3.974      6.091
REMARK  Name = 
REMARK  8 active torsions:
REMARK  status: ('A' for Active; 'I' for Inactive)
REMARK    1  A    between atoms: C_1  and  C_2
REMARK    2  A    between atoms: C_2  and  N_3
REMARK    3  A    between atoms: N_3  and  C_4
REMARK    4  A    between atoms: N_3  and  C_6
REMARK    5  A    between atoms: C_4  and  C_5
REMARK    6  A    between atoms: C_6  and  C_7
REMARK    7  A    between atoms: C_7  and  N_8
REMARK    8  A    between atoms: C_9  and  C_11
REMARK                            x       y       z     vdW  Elec       q    Type
REMARK                         _______ _______ _______ _____ _____    ______ ____
ROOT
ATOM      1  C   UNL     1       3.119   4.553  18.673  0.00  0.00    +0.000 A 
ATOM      2  C   UNL     1       3.082   3.273  19.262  0.00  0.00    +0.000 A 
ATOM      3  C   UNL     1       2.394   3.057  20.447  0.00  0.00    +0.000 A 
ATOM      4  C   UNL     1       1.750   4.124  21.058  0.00  0.00    +0.000 A 
ATOM      5  C   UNL     1       1.793   5.408  20.485  0.00  0.00    +0.000 A 
ATOM      6  C   UNL     1       1.160   6.479  21.123  0.00  0.00    +0.000 A 
ATOM      7  C   UNL     1       1.211   7.761  20.573  0.00  0.00    +0.000 A 
ATOM      8  C   UNL     1       0.603   8.863  21.200  0.00  0.00    +0.000 A 
ATOM      9  C   UNL     1       0.686  10.130  20.628  0.00  0.00    +0.000 A 
ATOM     10  C   UNL     1       1.375  10.292  19.430  0.00  0.00    +0.000 A 
ATOM     11  I   UNL     1       1.519  12.171  18.560  0.00  0.00    +0.000 I 
ATOM     12  C   UNL     1       1.975   9.193  18.807  0.00  0.00    +0.000 A 
ATOM     13  C   UNL     1       1.907   7.923  19.363  0.00  0.00    +0.000 A 
ATOM     14  N   UNL     1       2.506   6.895  18.736  0.00  0.00    +0.000 NA
ATOM     15  C   UNL     1       2.478   5.649  19.272  0.00  0.00    +0.000 A 
ENDROOT
BRANCH   1  17
ATOM     16  N   UNL     1       4.552   5.825  17.129  0.00  0.00    +0.000 N 
ATOM     17  C   UNL     1       3.874   4.655  17.392  0.00  0.00    +0.000 C 
ATOM     18  O   UNL     1       3.839   3.721  16.593  0.00  0.00    +0.000 OA
ATOM     19  H   UNL     1       4.760   6.444  17.913  0.00  0.00    +0.000 HD
BRANCH  16  20
ATOM     20  C   UNL     1       5.319   5.961  15.909  0.00  0.00    +0.000 C 
BRANCH  20  21
ATOM     21  C   UNL     1       6.822   5.670  16.078  0.00  0.00    +0.000 C 
BRANCH  21  22
ATOM     22  N   UNL     1       7.482   6.310  17.241  0.00  0.00    +0.000 NA
BRANCH  22  24
ATOM     23  C   UNL     1       8.244   8.616  17.945  0.00  0.00    +0.000 C 
ATOM     24  C   UNL     1       7.156   7.744  17.324  0.00  0.00    +0.000 C 
ENDBRANCH  22  24
BRANCH  22  25
ATOM     25  C   UNL     1       7.206   5.562  18.482  0.00  0.00    +0.000 C 
ATOM     26  C   UNL     1       8.263   5.645  19.584  0.00  0.00    +0.000 C 
ENDBRANCH  22  25
ENDBRANCH  21  22
ENDBRANCH  20  21
ENDBRANCH  16  20
ENDBRANCH   1  17
TORSDOF 6
ENDMDL
