MODEL 1
REMARK VINA RESULT:      -7.3      0.000      0.000
REMARK  Name = 
REMARK  7 active torsions:
REMARK  status: ('A' for Active; 'I' for Inactive)
REMARK    1  A    between atoms: C_1  and  C_2
REMARK    2  A    between atoms: C_2  and  N_3
REMARK    3  A    between atoms: N_3  and  C_12
REMARK    4  A    between atoms: C_15  and  C_16
REMARK    5  A    between atoms: C_16  and  O_17
REMARK    6  A    between atoms: C_16  and  C_18
REMARK    7  A    between atoms: C_16  and  C_22
REMARK                            x       y       z     vdW  Elec       q    Type
REMARK                         _______ _______ _______ _____ _____    ______ ____
ROOT
ATOM      1  C   UNL     1       1.211  10.091  18.971  0.00  0.00    +0.000 A 
ATOM      2  C   UNL     1       1.117   9.250  20.079  0.00  0.00    +0.000 A 
ATOM      3  C   UNL     1       1.720   7.992  20.050  0.00  0.00    +0.000 A 
ATOM      4  C   UNL     1       2.386   7.536  18.896  0.00  0.00    +0.000 A 
ATOM      5  C   UNL     1       2.437   8.385  17.773  0.00  0.00    +0.000 A 
ATOM      6  C   UNL     1       1.839   9.644  17.803  0.00  0.00    +0.000 A 
ENDROOT
BRANCH   1   7
ATOM      7  N   UNL     1       0.767  11.425  19.092  0.00  0.00    +0.000 N 
ATOM      8  C   UNL     1      -0.570  11.824  19.022  0.00  0.00    +0.000 C 
ATOM      9  O   UNL     1      -0.924  12.890  19.553  0.00  0.00    +0.000 OA
ATOM     10  N   UNL     1      -1.503  11.068  18.315  0.00  0.00    +0.000 N 
ATOM     11  C   UNL     1      -1.312   9.820  17.563  0.00  0.00    +0.000 C 
ATOM     12  C   UNL     1      -2.225   9.681  16.342  0.00  0.00    +0.000 C 
ATOM     13  O   UNL     1      -3.592   9.922  16.677  0.00  0.00    +0.000 OA
ATOM     14  C   UNL     1      -3.729  11.240  17.218  0.00  0.00    +0.000 C 
ATOM     15  C   UNL     1      -2.925  11.390  18.512  0.00  0.00    +0.000 C 
BRANCH   7  17
ATOM     16  C   UNL     1       2.532  13.191  18.841  0.00  0.00    +0.000 C 
ATOM     17  C   UNL     1       1.733  12.306  19.786  0.00  0.00    +0.000 C 
ENDBRANCH   7  17
ENDBRANCH   1   7
BRANCH   4  18
ATOM     18  C   UNL     1       3.005   6.124  18.839  0.00  0.00    +0.000 C 
BRANCH  18  19
ATOM     19  C   UNL     1       1.941   5.080  18.399  0.00  0.00    +0.000 C 
ATOM     20  F   UNL     1       1.102   4.740  19.411  0.00  0.00    +0.000 F 
ATOM     21  F   UNL     1       1.161   5.416  17.361  0.00  0.00    +0.000 F 
ATOM     22  F   UNL     1       2.567   3.916  18.061  0.00  0.00    +0.000 F 
ENDBRANCH  18  19
BRANCH  18  23
ATOM     23  C   UNL     1       4.256   6.049  17.928  0.00  0.00    +0.000 C 
ATOM     24  F   UNL     1       4.938   7.226  17.893  0.00  0.00    +0.000 F 
ATOM     25  F   UNL     1       5.150   5.127  18.379  0.00  0.00    +0.000 F 
ATOM     26  F   UNL     1       4.018   5.732  16.638  0.00  0.00    +0.000 F 
ENDBRANCH  18  23
BRANCH  18  27
ATOM     27  O   UNL     1       3.421   5.821  20.223  0.00  0.00    +0.000 OA
ATOM     28  H   UNL     1       3.399   6.661  20.721  0.00  0.00    +0.000 HD
ENDBRANCH  18  27
ENDBRANCH   4  18
TORSDOF 6
ENDMDL
MODEL 2
REMARK VINA RESULT:      -7.1      0.111      1.012
REMARK  Name = 
REMARK  7 active torsions:
REMARK  status: ('A' for Active; 'I' for Inactive)
REMARK    1  A    between atoms: C_1  and  C_2
REMARK    2  A    between atoms: C_2  and  N_3
REMARK    3  A    between atoms: N_3  and  C_12
REMARK    4  A    between atoms: C_15  and  C_16
REMARK    5  A    between atoms: C_16  and  O_17
REMARK    6  A    between atoms: C_16  and  C_18
REMARK    7  A    between atoms: C_16  and  C_22
REMARK                            x       y       z     vdW  Elec       q    Type
REMARK                         _______ _______ _______ _____ _____    ______ ____
ROOT
ATOM      1  C   UNL     1       1.246  10.082  18.939  0.00  0.00    +0.000 A 
ATOM      2  C   UNL     1       1.117   9.233  20.037  0.00  0.00    +0.000 A 
ATOM      3  C   UNL     1       1.716   7.972  20.015  0.00  0.00    +0.000 A 
ATOM      4  C   UNL     1       2.411   7.522  18.876  0.00  0.00    +0.000 A 
ATOM      5  C   UNL     1       2.497   8.379  17.762  0.00  0.00    +0.000 A 
ATOM      6  C   UNL     1       1.903   9.641  17.786  0.00  0.00    +0.000 A 
ENDROOT
BRANCH   1   7
ATOM      7  N   UNL     1       0.804  11.416  19.059  0.00  0.00    +0.000 N 
ATOM      8  C   UNL     1      -0.533  11.818  18.994  0.00  0.00    +0.000 C 
ATOM      9  O   UNL     1      -0.882  12.886  19.524  0.00  0.00    +0.000 OA
ATOM     10  N   UNL     1      -1.471  11.060  18.295  0.00  0.00    +0.000 N 
ATOM     11  C   UNL     1      -1.286   9.810  17.546  0.00  0.00    +0.000 C 
ATOM     12  C   UNL     1      -2.206   9.669  16.331  0.00  0.00    +0.000 C 
ATOM     13  O   UNL     1      -3.571   9.912  16.673  0.00  0.00    +0.000 OA
ATOM     14  C   UNL     1      -3.702  11.232  17.210  0.00  0.00    +0.000 C 
ATOM     15  C   UNL     1      -2.891  11.386  18.500  0.00  0.00    +0.000 C 
BRANCH   7  17
ATOM     16  C   UNL     1       2.544  13.206  18.796  0.00  0.00    +0.000 C 
ATOM     17  C   UNL     1       1.775  12.299  19.744  0.00  0.00    +0.000 C 
ENDBRANCH   7  17
ENDBRANCH   1   7
BRANCH   4  18
ATOM     18  C   UNL     1       3.025   6.108  18.825  0.00  0.00    +0.000 C 
BRANCH  18  19
ATOM     19  C   UNL     1       1.966   5.070  18.361  0.00  0.00    +0.000 C 
ATOM     20  F   UNL     1       2.529   3.981  17.779  0.00  0.00    +0.000 F 
ATOM     21  F   UNL     1       1.127   4.605  19.298  0.00  0.00    +0.000 F 
ATOM     22  F   UNL     1       1.193   5.625  17.382  0.00  0.00    +0.000 F 
ENDBRANCH  18  19
BRANCH  18  23
ATOM     23  C   UNL     1       4.293   6.032  17.937  0.00  0.00    +0.000 C 
ATOM     24  F   UNL     1       3.990   5.930  16.615  0.00  0.00    +0.000 F 
ATOM     25  F   UNL     1       5.050   7.159  18.048  0.00  0.00    +0.000 F 
ATOM     26  F   UNL     1       5.125   5.001  18.198  0.00  0.00    +0.000 F 
ENDBRANCH  18  23
BRANCH  18  27
ATOM     27  O   UNL     1       3.413   5.797  20.216  0.00  0.00    +0.000 OA
ATOM     28  H   UNL     1       3.041   4.920  20.430  0.00  0.00    +0.000 HD
ENDBRANCH  18  27
ENDBRANCH   4  18
TORSDOF 6
ENDMDL
MODEL 3
REMARK VINA RESULT:      -7.0      0.904      1.464
REMARK  Name = 
REMARK  7 active torsions:
REMARK  status: ('A' for Active; 'I' for Inactive)
REMARK    1  A    between atoms: C_1  and  C_2
REMARK    2  A    between atoms: C_2  and  N_3
REMARK    3  A    between atoms: N_3  and  C_12
REMARK    4  A    between atoms: C_15  and  C_16
REMARK    5  A    between atoms: C_16  and  O_17
REMARK    6  A    between atoms: C_16  and  C_18
REMARK    7  A    between atoms: C_16  and  C_22
REMARK                            x       y       z     vdW  Elec       q    Type
REMARK                         _______ _______ _______ _____ _____    ______ ____
ROOT
ATOM      1  C   UNL     1       1.205  10.126  18.915  0.00  0.00    +0.000 A 
ATOM      2  C   UNL     1       0.996   9.453  20.118  0.00  0.00    +0.000 A 
ATOM      3  C   UNL     1       1.476   8.152  20.278  0.00  0.00    +0.000 A 
ATOM      4  C   UNL     1       2.128   7.486  19.223  0.00  0.00    +0.000 A 
ATOM      5  C   UNL     1       2.296   8.170  18.003  0.00  0.00    +0.000 A 
ATOM      6  C   UNL     1       1.821   9.472  17.843  0.00  0.00    +0.000 A 
ENDROOT
BRANCH   1   7
ATOM      7  N   UNL     1       0.888  11.499  18.842  0.00  0.00    +0.000 N 
ATOM      8  C   UNL     1      -0.411  12.010  18.774  0.00  0.00    +0.000 C 
ATOM      9  O   UNL     1      -0.635  13.175  19.144  0.00  0.00    +0.000 OA
ATOM     10  N   UNL     1      -1.449  11.248  18.243  0.00  0.00    +0.000 N 
ATOM     11  C   UNL     1      -1.416   9.885  17.692  0.00  0.00    +0.000 C 
ATOM     12  C   UNL     1      -2.414   9.649  16.555  0.00  0.00    +0.000 C 
ATOM     13  O   UNL     1      -3.730  10.070  16.913  0.00  0.00    +0.000 OA
ATOM     14  C   UNL     1      -3.716  11.462  17.242  0.00  0.00    +0.000 C 
ATOM     15  C   UNL     1      -2.822  11.733  18.455  0.00  0.00    +0.000 C 
BRANCH   7  17
ATOM     16  C   UNL     1       2.733  13.087  18.229  0.00  0.00    +0.000 C 
ATOM     17  C   UNL     1       1.970  12.379  19.339  0.00  0.00    +0.000 C 
ENDBRANCH   7  17
ENDBRANCH   1   7
BRANCH   4  18
ATOM     18  C   UNL     1       2.610   6.029  19.377  0.00  0.00    +0.000 C 
BRANCH  18  19
ATOM     19  C   UNL     1       1.843   5.321  20.529  0.00  0.00    +0.000 C 
ATOM     20  F   UNL     1       1.536   6.170  21.543  0.00  0.00    +0.000 F 
ATOM     21  F   UNL     1       0.701   4.700  20.200  0.00  0.00    +0.000 F 
ATOM     22  F   UNL     1       2.653   4.381  21.096  0.00  0.00    +0.000 F 
ENDBRANCH  18  19
BRANCH  18  23
ATOM     23  C   UNL     1       2.500   5.215  18.063  0.00  0.00    +0.000 C 
ATOM     24  F   UNL     1       3.447   5.572  17.155  0.00  0.00    +0.000 F 
ATOM     25  F   UNL     1       2.693   3.884  18.281  0.00  0.00    +0.000 F 
ATOM     26  F   UNL     1       1.321   5.315  17.414  0.00  0.00    +0.000 F 
ENDBRANCH  18  23
BRANCH  18  27
ATOM     27  O   UNL     1       4.037   6.123  19.746  0.00  0.00    +0.000 OA
ATOM     28  H   UNL     1       4.542   6.239  18.918  0.00  0.00    +0.000 HD
ENDBRANCH  18  27
ENDBRANCH   4  18
TORSDOF 6
ENDMDL
MODEL 4
REMARK VINA RESULT:      -6.8      0.883      1.668
REMARK  Name = 
REMARK  7 active torsions:
REMARK  status: ('A' for Active; 'I' for Inactive)
REMARK    1  A    between atoms: C_1  and  C_2
REMARK    2  A    between atoms: C_2  and  N_3
REMARK    3  A    between atoms: N_3  and  C_12
REMARK    4  A    between atoms: C_15  and  C_16
REMARK    5  A    between atoms: C_16  and  O_17
REMARK    6  A    between atoms: C_16  and  C_18
REMARK    7  A    between atoms: C_16  and  C_22
REMARK                            x       y       z     vdW  Elec       q    Type
REMARK                         _______ _______ _______ _____ _____    ______ ____
ROOT
ATOM      1  C   UNL     1       1.240  10.114  18.907  0.00  0.00    +0.000 A 
ATOM      2  C   UNL     1       1.009   9.424  20.096  0.00  0.00    +0.000 A 
ATOM      3  C   UNL     1       1.497   8.126  20.253  0.00  0.00    +0.000 A 
ATOM      4  C   UNL     1       2.182   7.480  19.205  0.00  0.00    +0.000 A 
ATOM      5  C   UNL     1       2.371   8.180  17.998  0.00  0.00    +0.000 A 
ATOM      6  C   UNL     1       1.888   9.479  17.843  0.00  0.00    +0.000 A 
ENDROOT
BRANCH   1   7
ATOM      7  N   UNL     1       0.911  11.485  18.844  0.00  0.00    +0.000 N 
ATOM      8  C   UNL     1      -0.392  11.985  18.776  0.00  0.00    +0.000 C 
ATOM      9  O   UNL     1      -0.627  13.145  19.154  0.00  0.00    +0.000 OA
ATOM     10  N   UNL     1      -1.423  11.218  18.238  0.00  0.00    +0.000 N 
ATOM     11  C   UNL     1      -1.377   9.860  17.677  0.00  0.00    +0.000 C 
ATOM     12  C   UNL     1      -2.370   9.622  16.536  0.00  0.00    +0.000 C 
ATOM     13  O   UNL     1      -3.690  10.029  16.895  0.00  0.00    +0.000 OA
ATOM     14  C   UNL     1      -3.689  11.420  17.233  0.00  0.00    +0.000 C 
ATOM     15  C   UNL     1      -2.800  11.690  18.450  0.00  0.00    +0.000 C 
BRANCH   7  17
ATOM     16  C   UNL     1       2.742  13.094  18.245  0.00  0.00    +0.000 C 
ATOM     17  C   UNL     1       1.984  12.371  19.348  0.00  0.00    +0.000 C 
ENDBRANCH   7  17
ENDBRANCH   1   7
BRANCH   4  18
ATOM     18  C   UNL     1       2.674   6.025  19.353  0.00  0.00    +0.000 C 
BRANCH  18  19
ATOM     19  C   UNL     1       1.924   5.312  20.512  0.00  0.00    +0.000 C 
ATOM     20  F   UNL     1       2.616   4.252  21.000  0.00  0.00    +0.000 F 
ATOM     21  F   UNL     1       1.596   6.066  21.571  0.00  0.00    +0.000 F 
ATOM     22  F   UNL     1       0.763   4.779  20.034  0.00  0.00    +0.000 F 
ENDBRANCH  18  19
BRANCH  18  23
ATOM     23  C   UNL     1       2.555   5.212  18.040  0.00  0.00    +0.000 C 
ATOM     24  F   UNL     1       2.658   3.872  18.253  0.00  0.00    +0.000 F 
ATOM     25  F   UNL     1       1.341   5.390  17.449  0.00  0.00    +0.000 F 
ATOM     26  F   UNL     1       3.472   5.498  17.092  0.00  0.00    +0.000 F 
ENDBRANCH  18  23
BRANCH  18  27
ATOM     27  O   UNL     1       4.104   6.128  19.707  0.00  0.00    +0.000 OA
ATOM     28  H   UNL     1       4.154   6.556  20.584  0.00  0.00    +0.000 HD
ENDBRANCH  18  27
ENDBRANCH   4  18
TORSDOF 6
ENDMDL
MODEL 5
REMARK VINA RESULT:      -6.7      5.739      7.659
REMARK  Name = 
REMARK  7 active torsions:
REMARK  status: ('A' for Active; 'I' for Inactive)
REMARK    1  A    between atoms: C_1  and  C_2
REMARK    2  A    between atoms: C_2  and  N_3
REMARK    3  A    between atoms: N_3  and  C_12
REMARK    4  A    between atoms: C_15  and  C_16
REMARK    5  A    between atoms: C_16  and  O_17
REMARK    6  A    between atoms: C_16  and  C_18
REMARK    7  A    between atoms: C_16  and  C_22
REMARK                            x       y       z     vdW  Elec       q    Type
REMARK                         _______ _______ _______ _____ _____    ______ ____
ROOT
ATOM      1  C   UNL     1       5.577   5.133  18.328  0.00  0.00    +0.000 A 
ATOM      2  C   UNL     1       4.475   5.982  18.419  0.00  0.00    +0.000 A 
ATOM      3  C   UNL     1       3.298   5.532  19.021  0.00  0.00    +0.000 A 
ATOM      4  C   UNL     1       3.190   4.211  19.496  0.00  0.00    +0.000 A 
ATOM      5  C   UNL     1       4.301   3.357  19.360  0.00  0.00    +0.000 A 
ATOM      6  C   UNL     1       5.479   3.808  18.764  0.00  0.00    +0.000 A 
ENDROOT
BRANCH   1   7
ATOM      7  N   UNL     1       6.810   5.667  17.898  0.00  0.00    +0.000 N 
ATOM      8  C   UNL     1       7.150   5.902  16.563  0.00  0.00    +0.000 C 
ATOM      9  O   UNL     1       8.022   6.742  16.288  0.00  0.00    +0.000 OA
ATOM     10  N   UNL     1       6.560   5.165  15.538  0.00  0.00    +0.000 N 
ATOM     11  C   UNL     1       5.562   4.089  15.621  0.00  0.00    +0.000 C 
ATOM     12  C   UNL     1       5.703   3.022  14.531  0.00  0.00    +0.000 C 
ATOM     13  O   UNL     1       5.782   3.606  13.231  0.00  0.00    +0.000 OA
ATOM     14  C   UNL     1       6.906   4.490  13.169  0.00  0.00    +0.000 C 
ATOM     15  C   UNL     1       6.752   5.646  14.161  0.00  0.00    +0.000 C 
BRANCH   7  17
ATOM     16  C   UNL     1       8.217   5.528  19.972  0.00  0.00    +0.000 C 
ATOM     17  C   UNL     1       7.525   6.421  18.953  0.00  0.00    +0.000 C 
ENDBRANCH   7  17
ENDBRANCH   1   7
BRANCH   4  18
ATOM     18  C   UNL     1       1.873   3.691  20.110  0.00  0.00    +0.000 C 
BRANCH  18  19
ATOM     19  C   UNL     1       1.201   2.659  19.162  0.00  0.00    +0.000 C 
ATOM     20  F   UNL     1       1.719   1.412  19.305  0.00  0.00    +0.000 F 
ATOM     21  F   UNL     1      -0.129   2.527  19.261  0.00  0.00    +0.000 F 
ATOM     22  F   UNL     1       1.467   2.999  17.868  0.00  0.00    +0.000 F 
ENDBRANCH  18  19
BRANCH  18  23
ATOM     23  C   UNL     1       2.062   3.093  21.527  0.00  0.00    +0.000 C 
ATOM     24  F   UNL     1       2.389   4.040  22.446  0.00  0.00    +0.000 F 
ATOM     25  F   UNL     1       0.914   2.524  21.988  0.00  0.00    +0.000 F 
ATOM     26  F   UNL     1       3.014   2.142  21.635  0.00  0.00    +0.000 F 
ENDBRANCH  18  23
BRANCH  18  27
ATOM     27  O   UNL     1       0.996   4.874  20.220  0.00  0.00    +0.000 OA
ATOM     28  H   UNL     1       0.197   4.691  19.688  0.00  0.00    +0.000 HD
ENDBRANCH  18  27
ENDBRANCH   4  18
TORSDOF 6
ENDMDL
MODEL 6
REMARK VINA RESULT:      -6.6      1.088      2.216
REMARK  Name = 
REMARK  7 active torsions:
REMARK  status: ('A' for Active; 'I' for Inactive)
REMARK    1  A    between atoms: C_1  and  C_2
REMARK    2  A    between atoms: C_2  and  N_3
REMARK    3  A    between atoms: N_3  and  C_12
REMARK    4  A    between atoms: C_15  and  C_16
REMARK    5  A    between atoms: C_16  and  O_17
REMARK    6  A    between atoms: C_16  and  C_18
REMARK    7  A    between atoms: C_16  and  C_22
REMARK                            x       y       z     vdW  Elec       q    Type
REMARK                         _______ _______ _______ _____ _____    ______ ____
ROOT
ATOM      1  C   UNL     1       1.153   9.977  18.943  0.00  0.00    +0.000 A 
ATOM      2  C   UNL     1       1.091   9.224  20.114  0.00  0.00    +0.000 A 
ATOM      3  C   UNL     1       1.555   7.907  20.119  0.00  0.00    +0.000 A 
ATOM      4  C   UNL     1       2.042   7.309  18.942  0.00  0.00    +0.000 A 
ATOM      5  C   UNL     1       2.061   8.074  17.760  0.00  0.00    +0.000 A 
ATOM      6  C   UNL     1       1.603   9.391  17.756  0.00  0.00    +0.000 A 
ENDROOT
BRANCH   1   7
ATOM      7  N   UNL     1       0.864  11.357  19.008  0.00  0.00    +0.000 N 
ATOM      8  C   UNL     1      -0.425  11.896  19.041  0.00  0.00    +0.000 C 
ATOM      9  O   UNL     1      -0.608  13.026  19.524  0.00  0.00    +0.000 OA
ATOM     10  N   UNL     1      -1.500  11.205  18.488  0.00  0.00    +0.000 N 
ATOM     11  C   UNL     1      -1.520   9.898  17.815  0.00  0.00    +0.000 C 
ATOM     12  C   UNL     1      -2.567   9.784  16.704  0.00  0.00    +0.000 C 
ATOM     13  O   UNL     1      -3.858  10.195  17.154  0.00  0.00    +0.000 OA
ATOM     14  C   UNL     1      -3.800  11.552  17.606  0.00  0.00    +0.000 C 
ATOM     15  C   UNL     1      -2.852  11.694  18.800  0.00  0.00    +0.000 C 
BRANCH   7  17
ATOM     16  C   UNL     1       2.680  13.005  18.473  0.00  0.00    +0.000 C 
ATOM     17  C   UNL     1       1.984  12.169  19.536  0.00  0.00    +0.000 C 
ENDBRANCH   7  17
ENDBRANCH   1   7
BRANCH   4  18
ATOM     18  C   UNL     1       2.503   5.836  18.929  0.00  0.00    +0.000 C 
BRANCH  18  19
ATOM     19  C   UNL     1       4.044   5.750  18.745  0.00  0.00    +0.000 C 
ATOM     20  F   UNL     1       4.533   6.774  17.999  0.00  0.00    +0.000 F 
ATOM     21  F   UNL     1       4.783   5.713  19.863  0.00  0.00    +0.000 F 
ATOM     22  F   UNL     1       4.349   4.626  18.034  0.00  0.00    +0.000 F 
ENDBRANCH  18  19
BRANCH  18  23
ATOM     23  C   UNL     1       2.056   5.052  20.188  0.00  0.00    +0.000 C 
ATOM     24  F   UNL     1       2.617   3.815  20.250  0.00  0.00    +0.000 F 
ATOM     25  F   UNL     1       2.443   5.681  21.332  0.00  0.00    +0.000 F 
ATOM     26  F   UNL     1       0.727   4.853  20.307  0.00  0.00    +0.000 F 
ENDBRANCH  18  23
BRANCH  18  27
ATOM     27  O   UNL     1       1.852   5.231  17.749  0.00  0.00    +0.000 OA
ATOM     28  H   UNL     1       2.371   5.496  16.966  0.00  0.00    +0.000 HD
ENDBRANCH  18  27
ENDBRANCH   4  18
TORSDOF 6
ENDMDL
MODEL 7
REMARK VINA RESULT:      -6.6      5.764      7.691
REMARK  Name = 
REMARK  7 active torsions:
REMARK  status: ('A' for Active; 'I' for Inactive)
REMARK    1  A    between atoms: C_1  and  C_2
REMARK    2  A    between atoms: C_2  and  N_3
REMARK    3  A    between atoms: N_3  and  C_12
REMARK    4  A    between atoms: C_15  and  C_16
REMARK    5  A    between atoms: C_16  and  O_17
REMARK    6  A    between atoms: C_16  and  C_18
REMARK    7  A    between atoms: C_16  and  C_22
REMARK                            x       y       z     vdW  Elec       q    Type
REMARK                         _______ _______ _______ _____ _____    ______ ____
ROOT
ATOM      1  C   UNL     1       5.598   5.139  18.334  0.00  0.00    +0.000 A 
ATOM      2  C   UNL     1       4.489   5.979  18.420  0.00  0.00    +0.000 A 
ATOM      3  C   UNL     1       3.314   5.519  19.018  0.00  0.00    +0.000 A 
ATOM      4  C   UNL     1       3.214   4.198  19.495  0.00  0.00    +0.000 A 
ATOM      5  C   UNL     1       4.333   3.353  19.364  0.00  0.00    +0.000 A 
ATOM      6  C   UNL     1       5.509   3.813  18.772  0.00  0.00    +0.000 A 
ENDROOT
BRANCH   1   7
ATOM      7  N   UNL     1       6.828   5.682  17.908  0.00  0.00    +0.000 N 
ATOM      8  C   UNL     1       7.167   5.929  16.575  0.00  0.00    +0.000 C 
ATOM      9  O   UNL     1       8.035   6.775  16.306  0.00  0.00    +0.000 OA
ATOM     10  N   UNL     1       6.581   5.196  15.544  0.00  0.00    +0.000 N 
ATOM     11  C   UNL     1       5.588   4.115  15.619  0.00  0.00    +0.000 C 
ATOM     12  C   UNL     1       5.734   3.058  14.521  0.00  0.00    +0.000 C 
ATOM     13  O   UNL     1       5.810   3.652  13.225  0.00  0.00    +0.000 OA
ATOM     14  C   UNL     1       6.929   4.542  13.170  0.00  0.00    +0.000 C 
ATOM     15  C   UNL     1       6.770   5.690  14.171  0.00  0.00    +0.000 C 
BRANCH   7  17
ATOM     16  C   UNL     1       8.225   5.533  19.988  0.00  0.00    +0.000 C 
ATOM     17  C   UNL     1       7.540   6.431  18.969  0.00  0.00    +0.000 C 
ENDBRANCH   7  17
ENDBRANCH   1   7
BRANCH   4  18
ATOM     18  C   UNL     1       1.899   3.669  20.104  0.00  0.00    +0.000 C 
BRANCH  18  19
ATOM     19  C   UNL     1       1.268   2.589  19.182  0.00  0.00    +0.000 C 
ATOM     20  F   UNL     1       1.442   2.870  17.865  0.00  0.00    +0.000 F 
ATOM     21  F   UNL     1       1.688   1.328  19.355  0.00  0.00    +0.000 F 
ATOM     22  F   UNL     1      -0.084   2.582  19.360  0.00  0.00    +0.000 F 
ENDBRANCH  18  19
BRANCH  18  23
ATOM     23  C   UNL     1       2.078   3.124  21.544  0.00  0.00    +0.000 C 
ATOM     24  F   UNL     1       3.064   2.190  21.622  0.00  0.00    +0.000 F 
ATOM     25  F   UNL     1       2.444   4.109  22.410  0.00  0.00    +0.000 F 
ATOM     26  F   UNL     1       0.986   2.543  22.086  0.00  0.00    +0.000 F 
ENDBRANCH  18  23
BRANCH  18  27
ATOM     27  O   UNL     1       0.993   4.834  20.158  0.00  0.00    +0.000 OA
ATOM     28  H   UNL     1       1.341   5.498  19.532  0.00  0.00    +0.000 HD
ENDBRANCH  18  27
ENDBRANCH   4  18
TORSDOF 6
ENDMDL
MODEL 8
REMARK VINA RESULT:      -6.6      1.070      2.185
REMARK  Name = 
REMARK  7 active torsions:
REMARK  status: ('A' for Active; 'I' for Inactive)
REMARK    1  A    between atoms: C_1  and  C_2
REMARK    2  A    between atoms: C_2  and  N_3
REMARK    3  A    between atoms: N_3  and  C_12
REMARK    4  A    between atoms: C_15  and  C_16
REMARK    5  A    between atoms: C_16  and  O_17
REMARK    6  A    between atoms: C_16  and  C_18
REMARK    7  A    between atoms: C_16  and  C_22
REMARK                            x       y       z     vdW  Elec       q    Type
REMARK                         _______ _______ _______ _____ _____    ______ ____
ROOT
ATOM      1  C   UNL     1       1.176  10.001  18.952  0.00  0.00    +0.000 A 
ATOM      2  C   UNL     1       1.121   9.237  20.116  0.00  0.00    +0.000 A 
ATOM      3  C   UNL     1       1.591   7.922  20.108  0.00  0.00    +0.000 A 
ATOM      4  C   UNL     1       2.079   7.337  18.923  0.00  0.00    +0.000 A 
ATOM      5  C   UNL     1       2.090   8.114  17.748  0.00  0.00    +0.000 A 
ATOM      6  C   UNL     1       1.625   9.429  17.758  0.00  0.00    +0.000 A 
ENDROOT
BRANCH   1   7
ATOM      7  N   UNL     1       0.880  11.379  19.031  0.00  0.00    +0.000 N 
ATOM      8  C   UNL     1      -0.411  11.912  19.056  0.00  0.00    +0.000 C 
ATOM      9  O   UNL     1      -0.604  13.036  19.551  0.00  0.00    +0.000 OA
ATOM     10  N   UNL     1      -1.478  11.223  18.483  0.00  0.00    +0.000 N 
ATOM     11  C   UNL     1      -1.484   9.925  17.794  0.00  0.00    +0.000 C 
ATOM     12  C   UNL     1      -2.519   9.820  16.671  0.00  0.00    +0.000 C 
ATOM     13  O   UNL     1      -3.817  10.220  17.112  0.00  0.00    +0.000 OA
ATOM     14  C   UNL     1      -3.769  11.571  17.581  0.00  0.00    +0.000 C 
ATOM     15  C   UNL     1      -2.835  11.703  18.787  0.00  0.00    +0.000 C 
BRANCH   7  17
ATOM     16  C   UNL     1       2.669  13.071  18.543  0.00  0.00    +0.000 C 
ATOM     17  C   UNL     1       1.991  12.189  19.580  0.00  0.00    +0.000 C 
ENDBRANCH   7  17
ENDBRANCH   1   7
BRANCH   4  18
ATOM     18  C   UNL     1       2.546   5.867  18.895  0.00  0.00    +0.000 C 
BRANCH  18  19
ATOM     19  C   UNL     1       4.080   5.789  18.656  0.00  0.00    +0.000 C 
ATOM     20  F   UNL     1       4.447   4.645  18.023  0.00  0.00    +0.000 F 
ATOM     21  F   UNL     1       4.634   6.795  17.964  0.00  0.00    +0.000 F 
ATOM     22  F   UNL     1       4.720   5.740  19.860  0.00  0.00    +0.000 F 
ENDBRANCH  18  19
BRANCH  18  23
ATOM     23  C   UNL     1       2.149   5.082  20.170  0.00  0.00    +0.000 C 
ATOM     24  F   UNL     1       0.815   4.822  20.219  0.00  0.00    +0.000 F 
ATOM     25  F   UNL     1       2.756   3.864  20.218  0.00  0.00    +0.000 F 
ATOM     26  F   UNL     1       2.443   5.687  21.341  0.00  0.00    +0.000 F 
ENDBRANCH  18  23
BRANCH  18  27
ATOM     27  O   UNL     1       1.856   5.257  17.741  0.00  0.00    +0.000 OA
ATOM     28  H   UNL     1       2.095   4.310  17.730  0.00  0.00    +0.000 HD
ENDBRANCH  18  27
ENDBRANCH   4  18
TORSDOF 6
ENDMDL
MODEL 9
REMARK VINA RESULT:      -6.6      1.064      2.010
REMARK  Name = 
REMARK  7 active torsions:
REMARK  status: ('A' for Active; 'I' for Inactive)
REMARK    1  A    between atoms: C_1  and  C_2
REMARK    2  A    between atoms: C_2  and  N_3
REMARK    3  A    between atoms: N_3  and  C_12
REMARK    4  A    between atoms: C_15  and  C_16
REMARK    5  A    between atoms: C_16  and  O_17
REMARK    6  A    between atoms: C_16  and  C_18
REMARK    7  A    between atoms: C_16  and  C_22
REMARK                            x       y       z     vdW  Elec       q    Type
REMARK                         _______ _______ _______ _____ _____    ______ ____
ROOT
ATOM      1  C   UNL     1       1.214   9.835  19.057  0.00  0.00    +0.000 A 
ATOM      2  C   UNL     1       1.111   8.851  20.038  0.00  0.00    +0.000 A 
ATOM      3  C   UNL     1       1.683   7.595  19.826  0.00  0.00    +0.000 A 
ATOM      4  C   UNL     1       2.324   7.289  18.611  0.00  0.00    +0.000 A 
ATOM      5  C   UNL     1       2.384   8.285  17.616  0.00  0.00    +0.000 A 
ATOM      6  C   UNL     1       1.817   9.541  17.830  0.00  0.00    +0.000 A 
ENDROOT
BRANCH   1   7
ATOM      7  N   UNL     1       0.804  11.149  19.368  0.00  0.00    +0.000 N 
ATOM      8  C   UNL     1      -0.520  11.594  19.340  0.00  0.00    +0.000 C 
ATOM      9  O   UNL     1      -0.854  12.580  20.018  0.00  0.00    +0.000 OA
ATOM     10  N   UNL     1      -1.461  10.979  18.516  0.00  0.00    +0.000 N 
ATOM     11  C   UNL     1      -1.290   9.850  17.590  0.00  0.00    +0.000 C 
ATOM     12  C   UNL     1      -2.185   9.921  16.350  0.00  0.00    +0.000 C 
ATOM     13  O   UNL     1      -3.551  10.150  16.698  0.00  0.00    +0.000 OA
ATOM     14  C   UNL     1      -3.661  11.377  17.427  0.00  0.00    +0.000 C 
ATOM     15  C   UNL     1      -2.876  11.311  18.740  0.00  0.00    +0.000 C 
BRANCH   7  17
ATOM     16  C   UNL     1       2.397  13.085  19.487  0.00  0.00    +0.000 C 
ATOM     17  C   UNL     1       1.782  11.890  20.198  0.00  0.00    +0.000 C 
ENDBRANCH   7  17
ENDBRANCH   1   7
BRANCH   4  18
ATOM     18  C   UNL     1       2.907   5.885  18.350  0.00  0.00    +0.000 C 
BRANCH  18  19
ATOM     19  C   UNL     1       3.673   5.373  19.601  0.00  0.00    +0.000 C 
ATOM     20  F   UNL     1       4.825   6.057  19.818  0.00  0.00    +0.000 F 
ATOM     21  F   UNL     1       3.004   5.385  20.763  0.00  0.00    +0.000 F 
ATOM     22  F   UNL     1       4.069   4.085  19.389  0.00  0.00    +0.000 F 
ENDBRANCH  18  19
BRANCH  18  23
ATOM     23  C   UNL     1       1.836   4.859  17.904  0.00  0.00    +0.000 C 
ATOM     24  F   UNL     1       1.192   4.295  18.961  0.00  0.00    +0.000 F 
ATOM     25  F   UNL     1       0.859   5.447  17.159  0.00  0.00    +0.000 F 
ATOM     26  F   UNL     1       2.291   3.826  17.165  0.00  0.00    +0.000 F 
ENDBRANCH  18  23
BRANCH  18  27
ATOM     27  O   UNL     1       3.872   6.059  17.244  0.00  0.00    +0.000 OA
ATOM     28  H   UNL     1       3.941   7.018  17.071  0.00  0.00    +0.000 HD
ENDBRANCH  18  27
ENDBRANCH   4  18
TORSDOF 6
ENDMDL
