MODEL 1
REMARK VINA RESULT:      -8.0      0.000      0.000
REMARK  Name = 
REMARK  4 active torsions:
REMARK  status: ('A' for Active; 'I' for Inactive)
REMARK    1  A    between atoms: C_2  and  O_3
REMARK    2  A    between atoms: C_2  and  C_4
REMARK    3  A    between atoms: N_6  and  C_7
REMARK    4  A    between atoms: C_20  and  C_21
REMARK                            x       y       z     vdW  Elec       q    Type
REMARK                         _______ _______ _______ _____ _____    ______ ____
ROOT
ATOM      1  C   UNL     1       1.947   3.554  18.677  0.00  0.00    +0.000 A 
ATOM      2  C   UNL     1       2.188   4.779  19.157  0.00  0.00    +0.000 A 
ATOM      3  N   UNL     1       3.309   5.574  18.908  0.00  0.00    +0.000 N 
ATOM      4  C   UNL     1       4.312   5.166  17.958  0.00  0.00    +0.000 A 
ATOM      5  C   UNL     1       4.119   3.921  17.393  0.00  0.00    +0.000 A 
ATOM      6  C   UNL     1       2.960   3.043  17.762  0.00  0.00    +0.000 A 
ATOM      7  O   UNL     1       2.821   1.909  17.297  0.00  0.00    +0.000 OA
ATOM      8  C   UNL     1       4.991   3.368  16.382  0.00  0.00    +0.000 C 
ATOM      9  C   UNL     1       6.054   4.025  15.944  0.00  0.00    +0.000 C 
ATOM     10  F   UNL     1       6.869   3.538  14.999  0.00  0.00    +0.000 F 
ATOM     11  C   UNL     1       6.357   5.350  16.542  0.00  0.00    +0.000 C 
ATOM     12  N   UNL     1       7.455   5.868  16.071  0.00  0.00    +0.000 NA
ATOM     13  N   UNL     1       7.922   7.067  16.531  0.00  0.00    +0.000 NA
ATOM     14  C   UNL     1       7.263   7.708  17.441  0.00  0.00    +0.000 C 
ATOM     15  C   UNL     1       5.940   7.211  18.043  0.00  0.00    +0.000 C 
ATOM     16  N   UNL     1       5.500   5.903  17.518  0.00  0.00    +0.000 N 
ENDROOT
BRANCH  14  17
ATOM     17  C   UNL     1       7.861   9.034  17.863  0.00  0.00    +0.000 A 
ATOM     18  C   UNL     1       8.829   9.056  18.893  0.00  0.00    +0.000 A 
ATOM     19  C   UNL     1       9.482  10.240  19.253  0.00  0.00    +0.000 A 
ATOM     20  C   UNL     1       9.165  11.421  18.593  0.00  0.00    +0.000 A 
ATOM     21 CL   UNL     1      10.012  12.869  18.964  0.00  0.00    +0.000 Cl
ATOM     22  C   UNL     1       8.171  11.428  17.612  0.00  0.00    +0.000 A 
ATOM     23  C   UNL     1       7.518  10.239  17.248  0.00  0.00    +0.000 A 
ENDBRANCH  14  17
BRANCH   3  24
ATOM     24  C   UNL     1       3.224   6.954  19.455  0.00  0.00    +0.000 C 
ATOM     25  C   UNL     1       2.358   8.043  18.829  0.00  0.00    +0.000 C 
ATOM     26  C   UNL     1       1.994   7.474  20.157  0.00  0.00    +0.000 C 
ENDBRANCH   3  24
BRANCH   1  28
ATOM     27  O   UNL     1       0.098   2.117  18.269  0.00  0.00    +0.000 OA
ATOM     28  C   UNL     1       0.721   2.818  19.053  0.00  0.00    +0.000 C 
BRANCH  28  29
ATOM     29  O   UNL     1       0.337   2.977  20.337  0.00  0.00    +0.000 OA
ATOM     30  H   UNL     1       0.460   3.891  20.695  0.00  0.00    +0.000 HD
ENDBRANCH  28  29
ENDBRANCH   1  28
TORSDOF 4
ENDMDL
MODEL 2
REMARK VINA RESULT:      -7.4      6.530      9.230
REMARK  Name = 
REMARK  4 active torsions:
REMARK  status: ('A' for Active; 'I' for Inactive)
REMARK    1  A    between atoms: C_2  and  O_3
REMARK    2  A    between atoms: C_2  and  C_4
REMARK    3  A    between atoms: N_6  and  C_7
REMARK    4  A    between atoms: C_20  and  C_21
REMARK                            x       y       z     vdW  Elec       q    Type
REMARK                         _______ _______ _______ _____ _____    ______ ____
ROOT
ATOM      1  C   UNL     1      -2.952  12.981  20.446  0.00  0.00    +0.000 A 
ATOM      2  C   UNL     1      -2.489  12.383  19.342  0.00  0.00    +0.000 A 
ATOM      3  N   UNL     1      -1.505  11.393  19.272  0.00  0.00    +0.000 N 
ATOM      4  C   UNL     1      -0.954  10.808  20.468  0.00  0.00    +0.000 A 
ATOM      5  C   UNL     1      -1.406  11.352  21.654  0.00  0.00    +0.000 A 
ATOM      6  C   UNL     1      -2.383  12.490  21.695  0.00  0.00    +0.000 A 
ATOM      7  O   UNL     1      -2.742  13.009  22.755  0.00  0.00    +0.000 OA
ATOM      8  C   UNL     1      -1.006  10.859  22.952  0.00  0.00    +0.000 C 
ATOM      9  C   UNL     1      -0.154   9.854  23.083  0.00  0.00    +0.000 C 
ATOM     10  F   UNL     1       0.221   9.373  24.276  0.00  0.00    +0.000 F 
ATOM     11  C   UNL     1       0.416   9.250  21.852  0.00  0.00    +0.000 C 
ATOM     12  N   UNL     1       1.280   8.312  22.113  0.00  0.00    +0.000 NA
ATOM     13  N   UNL     1       1.944   7.666  21.108  0.00  0.00    +0.000 NA
ATOM     14  C   UNL     1       1.708   7.979  19.876  0.00  0.00    +0.000 C 
ATOM     15  C   UNL     1       0.685   9.043  19.450  0.00  0.00    +0.000 C 
ATOM     16  N   UNL     1       0.016   9.716  20.580  0.00  0.00    +0.000 N 
ENDROOT
BRANCH  14  17
ATOM     17  C   UNL     1       2.484   7.188  18.844  0.00  0.00    +0.000 A 
ATOM     18  C   UNL     1       3.309   7.878  17.925  0.00  0.00    +0.000 A 
ATOM     19  C   UNL     1       4.121   7.189  17.018  0.00  0.00    +0.000 A 
ATOM     20  C   UNL     1       4.109   5.800  17.010  0.00  0.00    +0.000 A 
ATOM     21 CL   UNL     1       5.158   4.936  15.959  0.00  0.00    +0.000 Cl
ATOM     22  C   UNL     1       3.259   5.104  17.872  0.00  0.00    +0.000 A 
ATOM     23  C   UNL     1       2.446   5.794  18.786  0.00  0.00    +0.000 A 
ENDBRANCH  14  17
BRANCH   3  24
ATOM     24  C   UNL     1      -1.310  10.808  17.919  0.00  0.00    +0.000 C 
ATOM     25  C   UNL     1      -2.268   9.788  17.311  0.00  0.00    +0.000 C 
ATOM     26  C   UNL     1      -2.191  11.164  16.748  0.00  0.00    +0.000 C 
ENDBRANCH   3  24
BRANCH   1  28
ATOM     27  O   UNL     1      -5.162  13.803  20.151  0.00  0.00    +0.000 OA
ATOM     28  C   UNL     1      -3.981  14.039  20.361  0.00  0.00    +0.000 C 
BRANCH  28  29
ATOM     29  O   UNL     1      -3.519  15.294  20.539  0.00  0.00    +0.000 OA
ATOM     30  H   UNL     1      -3.315  15.781  19.702  0.00  0.00    +0.000 HD
ENDBRANCH  28  29
ENDBRANCH   1  28
TORSDOF 4
ENDMDL
MODEL 3
REMARK VINA RESULT:      -7.1      7.909     10.454
REMARK  Name = 
REMARK  4 active torsions:
REMARK  status: ('A' for Active; 'I' for Inactive)
REMARK    1  A    between atoms: C_2  and  O_3
REMARK    2  A    between atoms: C_2  and  C_4
REMARK    3  A    between atoms: N_6  and  C_7
REMARK    4  A    between atoms: C_20  and  C_21
REMARK                            x       y       z     vdW  Elec       q    Type
REMARK                         _______ _______ _______ _____ _____    ______ ____
ROOT
ATOM      1  C   UNL     1      -5.500  13.082  19.015  0.00  0.00    +0.000 A 
ATOM      2  C   UNL     1      -4.924  12.111  18.297  0.00  0.00    +0.000 A 
ATOM      3  N   UNL     1      -3.673  11.530  18.521  0.00  0.00    +0.000 N 
ATOM      4  C   UNL     1      -2.897  11.865  19.687  0.00  0.00    +0.000 A 
ATOM      5  C   UNL     1      -3.440  12.842  20.498  0.00  0.00    +0.000 A 
ATOM      6  C   UNL     1      -4.735  13.526  20.174  0.00  0.00    +0.000 A 
ATOM      7  O   UNL     1      -5.189  14.437  20.871  0.00  0.00    +0.000 OA
ATOM      8  C   UNL     1      -2.831  13.270  21.737  0.00  0.00    +0.000 C 
ATOM      9  C   UNL     1      -1.689  12.755  22.165  0.00  0.00    +0.000 C 
ATOM     10  F   UNL     1      -1.112  13.126  23.316  0.00  0.00    +0.000 F 
ATOM     11  C   UNL     1      -1.017  11.734  21.321  0.00  0.00    +0.000 C 
ATOM     12  N   UNL     1       0.122  11.349  21.820  0.00  0.00    +0.000 NA
ATOM     13  N   UNL     1       0.908  10.443  21.164  0.00  0.00    +0.000 NA
ATOM     14  C   UNL     1       0.517   9.950  20.035  0.00  0.00    +0.000 C 
ATOM     15  C   UNL     1      -0.822  10.305  19.370  0.00  0.00    +0.000 C 
ATOM     16  N   UNL     1      -1.615  11.300  20.118  0.00  0.00    +0.000 N 
ENDROOT
BRANCH  14  17
ATOM     17  C   UNL     1       1.456   8.943  19.405  0.00  0.00    +0.000 A 
ATOM     18  C   UNL     1       1.819   7.789  20.136  0.00  0.00    +0.000 A 
ATOM     19  C   UNL     1       2.604   6.781  19.564  0.00  0.00    +0.000 A 
ATOM     20  C   UNL     1       3.046   6.923  18.255  0.00  0.00    +0.000 A 
ATOM     21 CL   UNL     1       3.943   5.663  17.508  0.00  0.00    +0.000 Cl
ATOM     22  C   UNL     1       2.744   8.082  17.537  0.00  0.00    +0.000 A 
ATOM     23  C   UNL     1       1.953   9.092  18.109  0.00  0.00    +0.000 A 
ENDBRANCH  14  17
BRANCH   3  24
ATOM     24  C   UNL     1      -3.367  10.364  17.651  0.00  0.00    +0.000 C 
ATOM     25  C   UNL     1      -3.779  10.294  16.183  0.00  0.00    +0.000 C 
ATOM     26  C   UNL     1      -2.340  10.423  16.548  0.00  0.00    +0.000 C 
ENDBRANCH   3  24
BRANCH   1  28
ATOM     27  O   UNL     1      -7.047  14.144  17.556  0.00  0.00    +0.000 OA
ATOM     28  C   UNL     1      -6.825  13.621  18.638  0.00  0.00    +0.000 C 
BRANCH  28  29
ATOM     29  O   UNL     1      -7.779  13.488  19.583  0.00  0.00    +0.000 OA
ATOM     30  H   UNL     1      -8.327  14.298  19.734  0.00  0.00    +0.000 HD
ENDBRANCH  28  29
ENDBRANCH   1  28
TORSDOF 4
ENDMDL
MODEL 4
REMARK VINA RESULT:      -7.0      7.700     10.269
REMARK  Name = 
REMARK  4 active torsions:
REMARK  status: ('A' for Active; 'I' for Inactive)
REMARK    1  A    between atoms: C_2  and  O_3
REMARK    2  A    between atoms: C_2  and  C_4
REMARK    3  A    between atoms: N_6  and  C_7
REMARK    4  A    between atoms: C_20  and  C_21
REMARK                            x       y       z     vdW  Elec       q    Type
REMARK                         _______ _______ _______ _____ _____    ______ ____
ROOT
ATOM      1  C   UNL     1      -5.250  12.991  18.943  0.00  0.00    +0.000 A 
ATOM      2  C   UNL     1      -4.694  12.015  18.216  0.00  0.00    +0.000 A 
ATOM      3  N   UNL     1      -3.465  11.392  18.445  0.00  0.00    +0.000 N 
ATOM      4  C   UNL     1      -2.694  11.683  19.626  0.00  0.00    +0.000 A 
ATOM      5  C   UNL     1      -3.217  12.663  20.447  0.00  0.00    +0.000 A 
ATOM      6  C   UNL     1      -4.486  13.392  20.119  0.00  0.00    +0.000 A 
ATOM      7  O   UNL     1      -4.921  14.305  20.826  0.00  0.00    +0.000 OA
ATOM      8  C   UNL     1      -2.611  13.051  21.701  0.00  0.00    +0.000 C 
ATOM      9  C   UNL     1      -1.490  12.494  22.134  0.00  0.00    +0.000 C 
ATOM     10  F   UNL     1      -0.917  12.828  23.297  0.00  0.00    +0.000 F 
ATOM     11  C   UNL     1      -0.839  11.467  21.280  0.00  0.00    +0.000 C 
ATOM     12  N   UNL     1       0.281  11.038  21.786  0.00  0.00    +0.000 NA
ATOM     13  N   UNL     1       1.047  10.120  21.125  0.00  0.00    +0.000 NA
ATOM     14  C   UNL     1       0.655   9.658  19.982  0.00  0.00    +0.000 C 
ATOM     15  C   UNL     1      -0.663  10.066  19.308  0.00  0.00    +0.000 C 
ATOM     16  N   UNL     1      -1.435  11.072  20.063  0.00  0.00    +0.000 N 
ENDROOT
BRANCH  14  17
ATOM     17  C   UNL     1       1.571   8.633  19.347  0.00  0.00    +0.000 A 
ATOM     18  C   UNL     1       2.091   8.881  18.056  0.00  0.00    +0.000 A 
ATOM     19  C   UNL     1       3.017   8.014  17.466  0.00  0.00    +0.000 A 
ATOM     20  C   UNL     1       3.425   6.880  18.156  0.00  0.00    +0.000 A 
ATOM     21 CL   UNL     1       4.621   5.845  17.484  0.00  0.00    +0.000 Cl
ATOM     22  C   UNL     1       2.878   6.590  19.408  0.00  0.00    +0.000 A 
ATOM     23  C   UNL     1       1.951   7.462  20.003  0.00  0.00    +0.000 A 
ENDBRANCH  14  17
BRANCH   3  24
ATOM     24  C   UNL     1      -3.184  10.232  17.559  0.00  0.00    +0.000 C 
ATOM     25  C   UNL     1      -3.761  10.104  16.152  0.00  0.00    +0.000 C 
ATOM     26  C   UNL     1      -2.302  10.337  16.340  0.00  0.00    +0.000 C 
ENDBRANCH   3  24
BRANCH   1  28
ATOM     27  O   UNL     1      -7.591  12.932  18.540  0.00  0.00    +0.000 OA
ATOM     28  C   UNL     1      -6.552  13.576  18.560  0.00  0.00    +0.000 C 
BRANCH  28  29
ATOM     29  O   UNL     1      -6.512  14.885  18.234  0.00  0.00    +0.000 OA
ATOM     30  H   UNL     1      -6.074  15.082  17.369  0.00  0.00    +0.000 HD
ENDBRANCH  28  29
ENDBRANCH   1  28
TORSDOF 4
ENDMDL
MODEL 5
REMARK VINA RESULT:      -6.9      8.574     11.199
REMARK  Name = 
REMARK  4 active torsions:
REMARK  status: ('A' for Active; 'I' for Inactive)
REMARK    1  A    between atoms: C_2  and  O_3
REMARK    2  A    between atoms: C_2  and  C_4
REMARK    3  A    between atoms: N_6  and  C_7
REMARK    4  A    between atoms: C_20  and  C_21
REMARK                            x       y       z     vdW  Elec       q    Type
REMARK                         _______ _______ _______ _____ _____    ______ ____
ROOT
ATOM      1  C   UNL     1      -5.779  13.997  20.019  0.00  0.00    +0.000 A 
ATOM      2  C   UNL     1      -5.292  13.022  19.243  0.00  0.00    +0.000 A 
ATOM      3  N   UNL     1      -4.055  12.385  19.370  0.00  0.00    +0.000 N 
ATOM      4  C   UNL     1      -3.191  12.658  20.490  0.00  0.00    +0.000 A 
ATOM      5  C   UNL     1      -3.639  13.635  21.357  0.00  0.00    +0.000 A 
ATOM      6  C   UNL     1      -4.922  14.379  21.135  0.00  0.00    +0.000 A 
ATOM      7  O   UNL     1      -5.291  15.290  21.881  0.00  0.00    +0.000 OA
ATOM      8  C   UNL     1      -2.933  14.006  22.563  0.00  0.00    +0.000 C 
ATOM      9  C   UNL     1      -1.788  13.434  22.903  0.00  0.00    +0.000 C 
ATOM     10  F   UNL     1      -1.123  13.752  24.021  0.00  0.00    +0.000 F 
ATOM     11  C   UNL     1      -1.216  12.409  21.992  0.00  0.00    +0.000 C 
ATOM     12  N   UNL     1      -0.064  11.965  22.406  0.00  0.00    +0.000 NA
ATOM     13  N   UNL     1       0.639  11.046  21.679  0.00  0.00    +0.000 NA
ATOM     14  C   UNL     1       0.154  10.598  20.567  0.00  0.00    +0.000 C 
ATOM     15  C   UNL     1      -1.209  11.024  20.000  0.00  0.00    +0.000 C 
ATOM     16  N   UNL     1      -1.909  12.031  20.822  0.00  0.00    +0.000 N 
ENDROOT
BRANCH  14  17
ATOM     17  C   UNL     1       1.007   9.570  19.854  0.00  0.00    +0.000 A 
ATOM     18  C   UNL     1       1.416   8.411  20.551  0.00  0.00    +0.000 A 
ATOM     19  C   UNL     1       2.122   7.386  19.910  0.00  0.00    +0.000 A 
ATOM     20  C   UNL     1       2.437   7.515  18.564  0.00  0.00    +0.000 A 
ATOM     21 CL   UNL     1       3.232   6.235  17.739  0.00  0.00    +0.000 Cl
ATOM     22  C   UNL     1       2.090   8.679  17.873  0.00  0.00    +0.000 A 
ATOM     23  C   UNL     1       1.379   9.706  18.515  0.00  0.00    +0.000 A 
ENDBRANCH  14  17
BRANCH   3  24
ATOM     24  C   UNL     1      -3.856  11.230  18.455  0.00  0.00    +0.000 C 
ATOM     25  C   UNL     1      -4.513  11.138  17.081  0.00  0.00    +0.000 C 
ATOM     26  C   UNL     1      -3.040  11.330  17.190  0.00  0.00    +0.000 C 
ENDBRANCH   3  24
BRANCH   1  28
ATOM     27  O   UNL     1      -7.496  14.849  18.614  0.00  0.00    +0.000 OA
ATOM     28  C   UNL     1      -7.101  14.598  19.743  0.00  0.00    +0.000 C 
BRANCH  28  29
ATOM     29  O   UNL     1      -7.849  14.848  20.838  0.00  0.00    +0.000 OA
ATOM     30  H   UNL     1      -8.711  14.363  20.869  0.00  0.00    +0.000 HD
ENDBRANCH  28  29
ENDBRANCH   1  28
TORSDOF 4
ENDMDL
MODEL 6
REMARK VINA RESULT:      -6.8      7.839     10.729
REMARK  Name = 
REMARK  4 active torsions:
REMARK  status: ('A' for Active; 'I' for Inactive)
REMARK    1  A    between atoms: C_2  and  O_3
REMARK    2  A    between atoms: C_2  and  C_4
REMARK    3  A    between atoms: N_6  and  C_7
REMARK    4  A    between atoms: C_20  and  C_21
REMARK                            x       y       z     vdW  Elec       q    Type
REMARK                         _______ _______ _______ _____ _____    ______ ____
ROOT
ATOM      1  C   UNL     1       0.903  16.036  21.469  0.00  0.00    +0.000 A 
ATOM      2  C   UNL     1       1.635  15.277  20.646  0.00  0.00    +0.000 A 
ATOM      3  N   UNL     1       1.626  13.883  20.558  0.00  0.00    +0.000 N 
ATOM      4  C   UNL     1       0.683  13.097  21.311  0.00  0.00    +0.000 A 
ATOM      5  C   UNL     1      -0.133  13.813  22.166  0.00  0.00    +0.000 A 
ATOM      6  C   UNL     1      -0.027  15.301  22.318  0.00  0.00    +0.000 A 
ATOM      7  O   UNL     1      -0.718  15.930  23.123  0.00  0.00    +0.000 OA
ATOM      8  C   UNL     1      -1.174  13.202  22.961  0.00  0.00    +0.000 C 
ATOM      9  C   UNL     1      -1.398  11.898  22.931  0.00  0.00    +0.000 C 
ATOM     10  F   UNL     1      -2.365  11.312  23.649  0.00  0.00    +0.000 F 
ATOM     11  C   UNL     1      -0.527  11.054  22.074  0.00  0.00    +0.000 C 
ATOM     12  N   UNL     1      -0.810   9.787  22.174  0.00  0.00    +0.000 NA
ATOM     13  N   UNL     1      -0.088   8.848  21.492  0.00  0.00    +0.000 NA
ATOM     14  C   UNL     1       0.886   9.217  20.725  0.00  0.00    +0.000 C 
ATOM     15  C   UNL     1       1.286  10.684  20.504  0.00  0.00    +0.000 C 
ATOM     16  N   UNL     1       0.481  11.646  21.282  0.00  0.00    +0.000 N 
ENDROOT
BRANCH  14  17
ATOM     17  C   UNL     1       1.606   8.097  20.003  0.00  0.00    +0.000 A 
ATOM     18  C   UNL     1       1.695   6.827  20.618  0.00  0.00    +0.000 A 
ATOM     19  C   UNL     1       2.263   5.734  19.953  0.00  0.00    +0.000 A 
ATOM     20  C   UNL     1       2.759   5.903  18.667  0.00  0.00    +0.000 A 
ATOM     21 CL   UNL     1       3.386   4.557  17.803  0.00  0.00    +0.000 Cl
ATOM     22  C   UNL     1       2.730   7.163  18.066  0.00  0.00    +0.000 A 
ATOM     23  C   UNL     1       2.157   8.260  18.731  0.00  0.00    +0.000 A 
ENDBRANCH  14  17
BRANCH   3  24
ATOM     24  C   UNL     1       2.433  13.327  19.440  0.00  0.00    +0.000 C 
ATOM     25  C   UNL     1       1.928  13.271  18.001  0.00  0.00    +0.000 C 
ATOM     26  C   UNL     1       3.037  14.197  18.365  0.00  0.00    +0.000 C 
ENDBRANCH   3  24
BRANCH   1  28
ATOM     27  O   UNL     1       0.813  18.197  20.484  0.00  0.00    +0.000 OA
ATOM     28  C   UNL     1       1.041  17.508  21.468  0.00  0.00    +0.000 C 
BRANCH  28  29
ATOM     29  O   UNL     1       1.438  18.041  22.643  0.00  0.00    +0.000 OA
ATOM     30  H   UNL     1       1.375  17.427  23.416  0.00  0.00    +0.000 HD
ENDBRANCH  28  29
ENDBRANCH   1  28
TORSDOF 4
ENDMDL
MODEL 7
REMARK VINA RESULT:      -6.8      8.509     11.142
REMARK  Name = 
REMARK  4 active torsions:
REMARK  status: ('A' for Active; 'I' for Inactive)
REMARK    1  A    between atoms: C_2  and  O_3
REMARK    2  A    between atoms: C_2  and  C_4
REMARK    3  A    between atoms: N_6  and  C_7
REMARK    4  A    between atoms: C_20  and  C_21
REMARK                            x       y       z     vdW  Elec       q    Type
REMARK                         _______ _______ _______ _____ _____    ______ ____
ROOT
ATOM      1  C   UNL     1      -5.640  14.043  19.898  0.00  0.00    +0.000 A 
ATOM      2  C   UNL     1      -5.177  13.066  19.111  0.00  0.00    +0.000 A 
ATOM      3  N   UNL     1      -3.959  12.392  19.236  0.00  0.00    +0.000 N 
ATOM      4  C   UNL     1      -3.095  12.624  20.365  0.00  0.00    +0.000 A 
ATOM      5  C   UNL     1      -3.519  13.601  21.243  0.00  0.00    +0.000 A 
ATOM      6  C   UNL     1      -4.780  14.385  21.025  0.00  0.00    +0.000 A 
ATOM      7  O   UNL     1      -5.127  15.295  21.781  0.00  0.00    +0.000 OA
ATOM      8  C   UNL     1      -2.811  13.934  22.458  0.00  0.00    +0.000 C 
ATOM      9  C   UNL     1      -1.685  13.325  22.796  0.00  0.00    +0.000 C 
ATOM     10  F   UNL     1      -1.018  13.608  23.923  0.00  0.00    +0.000 F 
ATOM     11  C   UNL     1      -1.137  12.297  21.875  0.00  0.00    +0.000 C 
ATOM     12  N   UNL     1      -0.001  11.814  22.289  0.00  0.00    +0.000 NA
ATOM     13  N   UNL     1       0.680  10.885  21.553  0.00  0.00    +0.000 NA
ATOM     14  C   UNL     1       0.189  10.467  20.432  0.00  0.00    +0.000 C 
ATOM     15  C   UNL     1      -1.157  10.941  19.864  0.00  0.00    +0.000 C 
ATOM     16  N   UNL     1      -1.833  11.956  20.695  0.00  0.00    +0.000 N 
ENDROOT
BRANCH  14  17
ATOM     17  C   UNL     1       1.017   9.425  19.709  0.00  0.00    +0.000 A 
ATOM     18  C   UNL     1       1.405   9.662  18.370  0.00  0.00    +0.000 A 
ATOM     19  C   UNL     1       2.250   8.777  17.690  0.00  0.00    +0.000 A 
ATOM     20  C   UNL     1       2.707   7.638  18.339  0.00  0.00    +0.000 A 
ATOM     21 CL   UNL     1       3.809   6.581  17.550  0.00  0.00    +0.000 Cl
ATOM     22  C   UNL     1       2.289   7.360  19.642  0.00  0.00    +0.000 A 
ATOM     23  C   UNL     1       1.443   8.249  20.326  0.00  0.00    +0.000 A 
ENDBRANCH  14  17
BRANCH   3  24
ATOM     24  C   UNL     1      -3.788  11.245  18.306  0.00  0.00    +0.000 C 
ATOM     25  C   UNL     1      -4.868  10.191  18.081  0.00  0.00    +0.000 C 
ATOM     26  C   UNL     1      -4.524  11.149  16.993  0.00  0.00    +0.000 C 
ENDBRANCH   3  24
BRANCH   1  28
ATOM     27  O   UNL     1      -7.917  14.069  19.217  0.00  0.00    +0.000 OA
ATOM     28  C   UNL     1      -6.943  14.686  19.624  0.00  0.00    +0.000 C 
BRANCH  28  29
ATOM     29  O   UNL     1      -6.980  16.014  19.860  0.00  0.00    +0.000 OA
ATOM     30  H   UNL     1      -6.944  16.265  20.816  0.00  0.00    +0.000 HD
ENDBRANCH  28  29
ENDBRANCH   1  28
TORSDOF 4
ENDMDL
MODEL 8
REMARK VINA RESULT:      -6.7      8.989     10.676
REMARK  Name = 
REMARK  4 active torsions:
REMARK  status: ('A' for Active; 'I' for Inactive)
REMARK    1  A    between atoms: C_2  and  O_3
REMARK    2  A    between atoms: C_2  and  C_4
REMARK    3  A    between atoms: N_6  and  C_7
REMARK    4  A    between atoms: C_20  and  C_21
REMARK                            x       y       z     vdW  Elec       q    Type
REMARK                         _______ _______ _______ _____ _____    ______ ____
ROOT
ATOM      1  C   UNL     1      -5.665  11.728  19.739  0.00  0.00    +0.000 A 
ATOM      2  C   UNL     1      -4.595  11.719  18.936  0.00  0.00    +0.000 A 
ATOM      3  N   UNL     1      -3.321  12.212  19.230  0.00  0.00    +0.000 N 
ATOM      4  C   UNL     1      -2.997  12.696  20.547  0.00  0.00    +0.000 A 
ATOM      5  C   UNL     1      -4.045  12.709  21.446  0.00  0.00    +0.000 A 
ATOM      6  C   UNL     1      -5.431  12.274  21.070  0.00  0.00    +0.000 A 
ATOM      7  O   UNL     1      -6.377  12.340  21.859  0.00  0.00    +0.000 OA
ATOM      8  C   UNL     1      -3.898  13.111  22.826  0.00  0.00    +0.000 C 
ATOM      9  C   UNL     1      -2.735  13.515  23.314  0.00  0.00    +0.000 C 
ATOM     10  F   UNL     1      -2.572  13.880  24.592  0.00  0.00    +0.000 F 
ATOM     11  C   UNL     1      -1.571  13.577  22.394  0.00  0.00    +0.000 C 
ATOM     12  N   UNL     1      -0.503  14.042  22.976  0.00  0.00    +0.000 NA
ATOM     13  N   UNL     1       0.661  14.213  22.280  0.00  0.00    +0.000 NA
ATOM     14  C   UNL     1       0.712  13.901  21.026  0.00  0.00    +0.000 C 
ATOM     15  C   UNL     1      -0.473  13.313  20.246  0.00  0.00    +0.000 C 
ATOM     16  N   UNL     1      -1.704  13.170  21.049  0.00  0.00    +0.000 N 
ENDROOT
BRANCH  14  17
ATOM     17  C   UNL     1       2.055  14.113  20.358  0.00  0.00    +0.000 A 
ATOM     18  C   UNL     1       2.214  13.751  19.001  0.00  0.00    +0.000 A 
ATOM     19  C   UNL     1       3.402  14.017  18.311  0.00  0.00    +0.000 A 
ATOM     20  C   UNL     1       4.452  14.637  18.976  0.00  0.00    +0.000 A 
ATOM     21 CL   UNL     1       5.889  15.044  18.127  0.00  0.00    +0.000 Cl
ATOM     22  C   UNL     1       4.333  14.950  20.332  0.00  0.00    +0.000 A 
ATOM     23  C   UNL     1       3.139  14.687  21.024  0.00  0.00    +0.000 A 
ENDBRANCH  14  17
BRANCH   3  24
ATOM     24  C   UNL     1      -2.291  11.920  18.198  0.00  0.00    +0.000 C 
ATOM     25  C   UNL     1      -1.614  10.560  18.063  0.00  0.00    +0.000 C 
ATOM     26  C   UNL     1      -2.561  11.027  17.013  0.00  0.00    +0.000 C 
ENDBRANCH   3  24
BRANCH   1  28
ATOM     27  O   UNL     1      -7.514  11.571  18.254  0.00  0.00    +0.000 OA
ATOM     28  C   UNL     1      -6.964  11.192  19.278  0.00  0.00    +0.000 C 
BRANCH  28  29
ATOM     29  O   UNL     1      -7.501  10.244  20.074  0.00  0.00    +0.000 OA
ATOM     30  H   UNL     1      -8.208  10.570  20.684  0.00  0.00    +0.000 HD
ENDBRANCH  28  29
ENDBRANCH   1  28
TORSDOF 4
ENDMDL
MODEL 9
REMARK VINA RESULT:      -6.7      7.793     10.693
REMARK  Name = 
REMARK  4 active torsions:
REMARK  status: ('A' for Active; 'I' for Inactive)
REMARK    1  A    between atoms: C_2  and  O_3
REMARK    2  A    between atoms: C_2  and  C_4
REMARK    3  A    between atoms: N_6  and  C_7
REMARK    4  A    between atoms: C_20  and  C_21
REMARK                            x       y       z     vdW  Elec       q    Type
REMARK                         _______ _______ _______ _____ _____    ______ ____
ROOT
ATOM      1  C   UNL     1       0.880  16.040  21.415  0.00  0.00    +0.000 A 
ATOM      2  C   UNL     1       1.607  15.287  20.581  0.00  0.00    +0.000 A 
ATOM      3  N   UNL     1       1.606  13.893  20.491  0.00  0.00    +0.000 N 
ATOM      4  C   UNL     1       0.677  13.100  21.254  0.00  0.00    +0.000 A 
ATOM      5  C   UNL     1      -0.132  13.809  22.120  0.00  0.00    +0.000 A 
ATOM      6  C   UNL     1      -0.034  15.298  22.275  0.00  0.00    +0.000 A 
ATOM      7  O   UNL     1      -0.719  15.920  23.089  0.00  0.00    +0.000 OA
ATOM      8  C   UNL     1      -1.159  13.190  22.928  0.00  0.00    +0.000 C 
ATOM      9  C   UNL     1      -1.375  11.884  22.898  0.00  0.00    +0.000 C 
ATOM     10  F   UNL     1      -2.329  11.290  23.627  0.00  0.00    +0.000 F 
ATOM     11  C   UNL     1      -0.509  11.047  22.028  0.00  0.00    +0.000 C 
ATOM     12  N   UNL     1      -0.782   9.778  22.129  0.00  0.00    +0.000 NA
ATOM     13  N   UNL     1      -0.063   8.846  21.437  0.00  0.00    +0.000 NA
ATOM     14  C   UNL     1       0.899   9.223  20.658  0.00  0.00    +0.000 C 
ATOM     15  C   UNL     1       1.286  10.692  20.435  0.00  0.00    +0.000 C 
ATOM     16  N   UNL     1       0.485  11.648  21.225  0.00  0.00    +0.000 N 
ENDROOT
BRANCH  14  17
ATOM     17  C   UNL     1       1.616   8.109  19.925  0.00  0.00    +0.000 A 
ATOM     18  C   UNL     1       2.142   8.358  18.637  0.00  0.00    +0.000 A 
ATOM     19  C   UNL     1       2.898   7.395  17.960  0.00  0.00    +0.000 A 
ATOM     20  C   UNL     1       3.125   6.162  18.559  0.00  0.00    +0.000 A 
ATOM     21 CL   UNL     1       4.116   4.995  17.779  0.00  0.00    +0.000 Cl
ATOM     22  C   UNL     1       2.566   5.878  19.807  0.00  0.00    +0.000 A 
ATOM     23  C   UNL     1       1.811   6.847  20.489  0.00  0.00    +0.000 A 
ENDBRANCH  14  17
BRANCH   3  24
ATOM     24  C   UNL     1       2.402  13.345  19.361  0.00  0.00    +0.000 C 
ATOM     25  C   UNL     1       1.882  13.294  17.928  0.00  0.00    +0.000 C 
ATOM     26  C   UNL     1       2.991  14.222  18.284  0.00  0.00    +0.000 C 
ENDBRANCH   3  24
BRANCH   1  28
ATOM     27  O   UNL     1       2.087  18.087  21.457  0.00  0.00    +0.000 OA
ATOM     28  C   UNL     1       1.008  17.513  21.415  0.00  0.00    +0.000 C 
BRANCH  28  29
ATOM     29  O   UNL     1      -0.161  18.184  21.361  0.00  0.00    +0.000 OA
ATOM     30  H   UNL     1      -0.126  19.106  21.718  0.00  0.00    +0.000 HD
ENDBRANCH  28  29
ENDBRANCH   1  28
TORSDOF 4
ENDMDL
