MODEL 1
REMARK VINA RESULT:      -9.6      0.000      0.000
REMARK  Name = 
REMARK  4 active torsions:
REMARK  status: ('A' for Active; 'I' for Inactive)
REMARK    1  A    between atoms: C_1  and  C_2
REMARK    2  A    between atoms: C_14  and  C_15
REMARK    3  A    between atoms: C_16  and  C_17
REMARK    4  A    between atoms: C_20  and  C_21
REMARK                            x       y       z     vdW  Elec       q    Type
REMARK                         _______ _______ _______ _____ _____    ______ ____
ROOT
ATOM      1  C   UNL     1       7.596   6.658  18.329  0.00  0.00    +0.000 C 
ATOM      2  C   UNL     1       6.342   6.247  17.572  0.00  0.00    +0.000 C 
ATOM      3  O   UNL     1       6.615   6.085  16.182  0.00  0.00    +0.000 OA
ATOM      4  C   UNL     1       5.796   5.110  15.692  0.00  0.00    +0.000 C 
ATOM      5  O   UNL     1       5.486   5.003  14.518  0.00  0.00    +0.000 OA
ATOM      6  C   UNL     1       5.471   4.132  16.789  0.00  0.00    +0.000 C 
ATOM      7  C   UNL     1       4.107   3.466  16.667  0.00  0.00    +0.000 C 
ATOM      8  C   UNL     1       3.621   2.912  18.014  0.00  0.00    +0.000 C 
ATOM      9  C   UNL     1       2.287   2.153  17.850  0.00  0.00    +0.000 C 
ATOM     10  C   UNL     1       1.609   1.790  19.179  0.00  0.00    +0.000 C 
ATOM     11  C   UNL     1       1.550   2.950  20.168  0.00  0.00    +0.000 C 
ATOM     12  C   UNL     1       2.919   3.595  20.338  0.00  0.00    +0.000 C 
ATOM     13  C   UNL     1       3.414   4.086  18.968  0.00  0.00    +0.000 C 
ATOM     14  C   UNL     1       4.612   5.046  19.111  0.00  0.00    +0.000 C 
ATOM     15  C   UNL     1       5.744   4.919  18.062  0.00  0.00    +0.000 C 
ENDROOT
BRANCH  14  16
ATOM     16  C   UNL     1       3.980   6.415  19.149  0.00  0.00    +0.000 C 
ATOM     17  C   UNL     1       2.677   6.659  18.975  0.00  0.00    +0.000 C 
BRANCH  17  18
ATOM     18  C   UNL     1       2.154   8.024  18.936  0.00  0.00    +0.000 A 
ATOM     19  C   UNL     1       2.379   8.820  17.830  0.00  0.00    +0.000 A 
ATOM     20  C   UNL     1       1.876  10.118  17.837  0.00  0.00    +0.000 A 
ATOM     21  C   UNL     1       1.183  10.624  18.950  0.00  0.00    +0.000 A 
ATOM     22  C   UNL     1       1.034   9.738  20.014  0.00  0.00    +0.000 A 
ATOM     23  N   UNL     1       1.486   8.463  20.025  0.00  0.00    +0.000 NA
BRANCH  21  24
ATOM     24  C   UNL     1       0.719  12.031  18.988  0.00  0.00    +0.000 A 
ATOM     25  C   UNL     1       1.692  13.056  18.961  0.00  0.00    +0.000 A 
ATOM     26  C   UNL     1       1.346  14.406  18.975  0.00  0.00    +0.000 A 
ATOM     27  C   UNL     1       0.012  14.777  19.048  0.00  0.00    +0.000 A 
ATOM     28  C   UNL     1      -0.973  13.796  19.091  0.00  0.00    +0.000 A 
ATOM     29  C   UNL     1      -0.632  12.436  19.048  0.00  0.00    +0.000 A 
ATOM     30 CL   UNL     1      -1.964  11.328  19.013  0.00  0.00    +0.000 Cl
ENDBRANCH  21  24
ENDBRANCH  17  18
ENDBRANCH  14  16
TORSDOF 3
ENDMDL
MODEL 2
REMARK VINA RESULT:      -9.6      1.006      1.315
REMARK  Name = 
REMARK  4 active torsions:
REMARK  status: ('A' for Active; 'I' for Inactive)
REMARK    1  A    between atoms: C_1  and  C_2
REMARK    2  A    between atoms: C_14  and  C_15
REMARK    3  A    between atoms: C_16  and  C_17
REMARK    4  A    between atoms: C_20  and  C_21
REMARK                            x       y       z     vdW  Elec       q    Type
REMARK                         _______ _______ _______ _____ _____    ______ ____
ROOT
ATOM      1  C   UNL     1       7.591   6.785  18.285  0.00  0.00    +0.000 C 
ATOM      2  C   UNL     1       6.340   6.342  17.542  0.00  0.00    +0.000 C 
ATOM      3  O   UNL     1       6.594   6.221  16.143  0.00  0.00    +0.000 OA
ATOM      4  C   UNL     1       5.804   5.227  15.646  0.00  0.00    +0.000 C 
ATOM      5  O   UNL     1       5.477   5.133  14.475  0.00  0.00    +0.000 OA
ATOM      6  C   UNL     1       5.538   4.212  16.725  0.00  0.00    +0.000 C 
ATOM      7  C   UNL     1       4.200   3.496  16.613  0.00  0.00    +0.000 C 
ATOM      8  C   UNL     1       3.760   2.894  17.955  0.00  0.00    +0.000 C 
ATOM      9  C   UNL     1       2.454   2.086  17.797  0.00  0.00    +0.000 C 
ATOM     10  C   UNL     1       1.816   1.668  19.130  0.00  0.00    +0.000 C 
ATOM     11  C   UNL     1       1.730   2.802  20.145  0.00  0.00    +0.000 C 
ATOM     12  C   UNL     1       3.075   3.496  20.306  0.00  0.00    +0.000 C 
ATOM     13  C   UNL     1       3.526   4.037  18.939  0.00  0.00    +0.000 C 
ATOM     14  C   UNL     1       4.688   5.040  19.082  0.00  0.00    +0.000 C 
ATOM     15  C   UNL     1       5.804   4.981  18.011  0.00  0.00    +0.000 C 
ENDROOT
BRANCH  14  16
ATOM     16  C   UNL     1       4.003   6.382  19.163  0.00  0.00    +0.000 C 
ATOM     17  C   UNL     1       2.704   6.590  18.933  0.00  0.00    +0.000 C 
BRANCH  17  18
ATOM     18  C   UNL     1       2.132   7.937  18.942  0.00  0.00    +0.000 A 
ATOM     19  C   UNL     1       2.231   8.738  17.822  0.00  0.00    +0.000 A 
ATOM     20  C   UNL     1       1.687  10.018  17.876  0.00  0.00    +0.000 A 
ATOM     21  C   UNL     1       1.077  10.502  19.046  0.00  0.00    +0.000 A 
ATOM     22  C   UNL     1       1.053   9.612  20.118  0.00  0.00    +0.000 A 
ATOM     23  N   UNL     1       1.548   8.354  20.087  0.00  0.00    +0.000 NA
BRANCH  21  24
ATOM     24  C   UNL     1       0.570  11.892  19.127  0.00  0.00    +0.000 A 
ATOM     25  C   UNL     1      -0.739  12.097  19.620  0.00  0.00    +0.000 A 
ATOM     26  C   UNL     1      -1.290  13.371  19.748  0.00  0.00    +0.000 A 
ATOM     27  C   UNL     1      -0.560  14.483  19.357  0.00  0.00    +0.000 A 
ATOM     28  C   UNL     1       0.727  14.318  18.854  0.00  0.00    +0.000 A 
ATOM     29  C   UNL     1       1.298  13.041  18.750  0.00  0.00    +0.000 A 
ATOM     30 CL   UNL     1       2.939  12.994  18.196  0.00  0.00    +0.000 Cl
ENDBRANCH  21  24
ENDBRANCH  17  18
ENDBRANCH  14  16
TORSDOF 3
ENDMDL
MODEL 3
REMARK VINA RESULT:      -9.2      2.595      4.453
REMARK  Name = 
REMARK  4 active torsions:
REMARK  status: ('A' for Active; 'I' for Inactive)
REMARK    1  A    between atoms: C_1  and  C_2
REMARK    2  A    between atoms: C_14  and  C_15
REMARK    3  A    between atoms: C_16  and  C_17
REMARK    4  A    between atoms: C_20  and  C_21
REMARK                            x       y       z     vdW  Elec       q    Type
REMARK                         _______ _______ _______ _____ _____    ______ ____
ROOT
ATOM      1  C   UNL     1       0.284   2.724  18.468  0.00  0.00    +0.000 C 
ATOM      2  C   UNL     1       1.458   3.314  19.235  0.00  0.00    +0.000 C 
ATOM      3  O   UNL     1       1.741   2.547  20.404  0.00  0.00    +0.000 OA
ATOM      4  C   UNL     1       3.081   2.612  20.648  0.00  0.00    +0.000 C 
ATOM      5  O   UNL     1       3.588   2.423  21.740  0.00  0.00    +0.000 OA
ATOM      6  C   UNL     1       3.818   2.801  19.349  0.00  0.00    +0.000 C 
ATOM      7  C   UNL     1       5.122   3.578  19.461  0.00  0.00    +0.000 C 
ATOM      8  C   UNL     1       5.547   4.179  18.114  0.00  0.00    +0.000 C 
ATOM      9  C   UNL     1       6.920   4.874  18.226  0.00  0.00    +0.000 C 
ATOM     10  C   UNL     1       7.295   5.713  16.996  0.00  0.00    +0.000 C 
ATOM     11  C   UNL     1       6.171   6.625  16.516  0.00  0.00    +0.000 C 
ATOM     12  C   UNL     1       4.871   5.850  16.350  0.00  0.00    +0.000 C 
ATOM     13  C   UNL     1       4.498   5.206  17.695  0.00  0.00    +0.000 C 
ATOM     14  C   UNL     1       3.039   4.707  17.698  0.00  0.00    +0.000 C 
ATOM     15  C   UNL     1       2.756   3.364  18.415  0.00  0.00    +0.000 C 
ENDROOT
BRANCH  14  16
ATOM     16  C   UNL     1       2.258   5.866  18.264  0.00  0.00    +0.000 C 
ATOM     17  C   UNL     1       2.745   6.770  19.119  0.00  0.00    +0.000 C 
BRANCH  17  18
ATOM     18  C   UNL     1       1.898   7.814  19.694  0.00  0.00    +0.000 A 
ATOM     19  C   UNL     1       1.373   7.658  20.962  0.00  0.00    +0.000 A 
ATOM     20  C   UNL     1       0.559   8.668  21.468  0.00  0.00    +0.000 A 
ATOM     21  C   UNL     1       0.249   9.806  20.704  0.00  0.00    +0.000 A 
ATOM     22  C   UNL     1       0.819   9.844  19.433  0.00  0.00    +0.000 A 
ATOM     23  N   UNL     1       1.635   8.893  18.925  0.00  0.00    +0.000 NA
BRANCH  21  24
ATOM     24  C   UNL     1      -0.681  10.841  21.213  0.00  0.00    +0.000 A 
ATOM     25  C   UNL     1      -0.793  11.007  22.612  0.00  0.00    +0.000 A 
ATOM     26  C   UNL     1      -1.628  11.968  23.179  0.00  0.00    +0.000 A 
ATOM     27  C   UNL     1      -2.407  12.776  22.363  0.00  0.00    +0.000 A 
ATOM     28  C   UNL     1      -2.334  12.630  20.981  0.00  0.00    +0.000 A 
ATOM     29  C   UNL     1      -1.473  11.684  20.404  0.00  0.00    +0.000 A 
ATOM     30 CL   UNL     1      -1.416  11.678  18.673  0.00  0.00    +0.000 Cl
ENDBRANCH  21  24
ENDBRANCH  17  18
ENDBRANCH  14  16
TORSDOF 3
ENDMDL
MODEL 4
REMARK VINA RESULT:      -9.1      2.688      4.496
REMARK  Name = 
REMARK  4 active torsions:
REMARK  status: ('A' for Active; 'I' for Inactive)
REMARK    1  A    between atoms: C_1  and  C_2
REMARK    2  A    between atoms: C_14  and  C_15
REMARK    3  A    between atoms: C_16  and  C_17
REMARK    4  A    between atoms: C_20  and  C_21
REMARK                            x       y       z     vdW  Elec       q    Type
REMARK                         _______ _______ _______ _____ _____    ______ ____
ROOT
ATOM      1  C   UNL     1       0.383   2.586  18.454  0.00  0.00    +0.000 C 
ATOM      2  C   UNL     1       1.558   3.194  19.205  0.00  0.00    +0.000 C 
ATOM      3  O   UNL     1       1.886   2.416  20.355  0.00  0.00    +0.000 OA
ATOM      4  C   UNL     1       3.229   2.513  20.570  0.00  0.00    +0.000 C 
ATOM      5  O   UNL     1       3.765   2.319  21.648  0.00  0.00    +0.000 OA
ATOM      6  C   UNL     1       3.933   2.744  19.260  0.00  0.00    +0.000 C 
ATOM      7  C   UNL     1       5.217   3.554  19.357  0.00  0.00    +0.000 C 
ATOM      8  C   UNL     1       5.595   4.189  18.012  0.00  0.00    +0.000 C 
ATOM      9  C   UNL     1       6.952   4.919  18.107  0.00  0.00    +0.000 C 
ATOM     10  C   UNL     1       7.277   5.789  16.884  0.00  0.00    +0.000 C 
ATOM     11  C   UNL     1       6.119   6.678  16.444  0.00  0.00    +0.000 C 
ATOM     12  C   UNL     1       4.836   5.871  16.293  0.00  0.00    +0.000 C 
ATOM     13  C   UNL     1       4.510   5.194  17.635  0.00  0.00    +0.000 C 
ATOM     14  C   UNL     1       3.066   4.655  17.659  0.00  0.00    +0.000 C 
ATOM     15  C   UNL     1       2.836   3.294  18.359  0.00  0.00    +0.000 C 
ENDROOT
BRANCH  14  16
ATOM     16  C   UNL     1       2.267   5.783  18.263  0.00  0.00    +0.000 C 
ATOM     17  C   UNL     1       2.781   6.941  18.687  0.00  0.00    +0.000 C 
BRANCH  17  18
ATOM     18  C   UNL     1       1.952   7.951  19.345  0.00  0.00    +0.000 A 
ATOM     19  C   UNL     1       1.535   7.762  20.647  0.00  0.00    +0.000 A 
ATOM     20  C   UNL     1       0.735   8.739  21.233  0.00  0.00    +0.000 A 
ATOM     21  C   UNL     1       0.332   9.878  20.514  0.00  0.00    +0.000 A 
ATOM     22  C   UNL     1       0.798   9.951  19.204  0.00  0.00    +0.000 A 
ATOM     23  N   UNL     1       1.598   9.032  18.616  0.00  0.00    +0.000 NA
BRANCH  21  24
ATOM     24  C   UNL     1      -0.584  10.877  21.113  0.00  0.00    +0.000 A 
ATOM     25  C   UNL     1      -1.185  11.828  20.257  0.00  0.00    +0.000 A 
ATOM     26  C   UNL     1      -2.074  12.792  20.730  0.00  0.00    +0.000 A 
ATOM     27  C   UNL     1      -2.367  12.857  22.084  0.00  0.00    +0.000 A 
ATOM     28  C   UNL     1      -1.782  11.946  22.958  0.00  0.00    +0.000 A 
ATOM     29  C   UNL     1      -0.910  10.956  22.484  0.00  0.00    +0.000 A 
ATOM     30 CL   UNL     1      -0.331   9.833  23.670  0.00  0.00    +0.000 Cl
ENDBRANCH  21  24
ENDBRANCH  17  18
ENDBRANCH  14  16
TORSDOF 3
ENDMDL
MODEL 5
REMARK VINA RESULT:      -9.1      2.713      4.455
REMARK  Name = 
REMARK  4 active torsions:
REMARK  status: ('A' for Active; 'I' for Inactive)
REMARK    1  A    between atoms: C_1  and  C_2
REMARK    2  A    between atoms: C_14  and  C_15
REMARK    3  A    between atoms: C_16  and  C_17
REMARK    4  A    between atoms: C_20  and  C_21
REMARK                            x       y       z     vdW  Elec       q    Type
REMARK                         _______ _______ _______ _____ _____    ______ ____
ROOT
ATOM      1  C   UNL     1       0.334   2.664  18.584  0.00  0.00    +0.000 C 
ATOM      2  C   UNL     1       1.545   3.234  19.307  0.00  0.00    +0.000 C 
ATOM      3  O   UNL     1       1.897   2.426  20.429  0.00  0.00    +0.000 OA
ATOM      4  C   UNL     1       3.248   2.493  20.600  0.00  0.00    +0.000 C 
ATOM      5  O   UNL     1       3.816   2.267  21.655  0.00  0.00    +0.000 OA
ATOM      6  C   UNL     1       3.911   2.737  19.271  0.00  0.00    +0.000 C 
ATOM      7  C   UNL     1       5.214   3.521  19.341  0.00  0.00    +0.000 C 
ATOM      8  C   UNL     1       5.559   4.176  17.996  0.00  0.00    +0.000 C 
ATOM      9  C   UNL     1       6.932   4.878  18.059  0.00  0.00    +0.000 C 
ATOM     10  C   UNL     1       7.233   5.766  16.844  0.00  0.00    +0.000 C 
ATOM     11  C   UNL     1       6.078   6.686  16.461  0.00  0.00    +0.000 C 
ATOM     12  C   UNL     1       4.776   5.907  16.338  0.00  0.00    +0.000 C 
ATOM     13  C   UNL     1       4.482   5.209  17.676  0.00  0.00    +0.000 C 
ATOM     14  C   UNL     1       3.029   4.697  17.740  0.00  0.00    +0.000 C 
ATOM     15  C   UNL     1       2.795   3.326  18.420  0.00  0.00    +0.000 C 
ENDROOT
BRANCH  14  16
ATOM     16  C   UNL     1       2.273   5.828  18.392  0.00  0.00    +0.000 C 
ATOM     17  C   UNL     1       2.739   7.071  18.544  0.00  0.00    +0.000 C 
BRANCH  17  18
ATOM     18  C   UNL     1       1.981   8.089  19.269  0.00  0.00    +0.000 A 
ATOM     19  C   UNL     1       1.479   9.187  18.599  0.00  0.00    +0.000 A 
ATOM     20  C   UNL     1       0.775  10.141  19.328  0.00  0.00    +0.000 A 
ATOM     21  C   UNL     1       0.600  10.013  20.717  0.00  0.00    +0.000 A 
ATOM     22  C   UNL     1       1.165   8.876  21.287  0.00  0.00    +0.000 A 
ATOM     23  N   UNL     1       1.831   7.918  20.601  0.00  0.00    +0.000 NA
BRANCH  21  24
ATOM     24  C   UNL     1      -0.081  11.069  21.503  0.00  0.00    +0.000 A 
ATOM     25  C   UNL     1      -1.087  10.678  22.416  0.00  0.00    +0.000 A 
ATOM     26  C   UNL     1      -1.766  11.600  23.210  0.00  0.00    +0.000 A 
ATOM     27  C   UNL     1      -1.482  12.953  23.094  0.00  0.00    +0.000 A 
ATOM     28  C   UNL     1      -0.508  13.377  22.195  0.00  0.00    +0.000 A 
ATOM     29  C   UNL     1       0.199  12.450  21.414  0.00  0.00    +0.000 A 
ATOM     30 CL   UNL     1       1.446  13.110  20.410  0.00  0.00    +0.000 Cl
ENDBRANCH  21  24
ENDBRANCH  17  18
ENDBRANCH  14  16
TORSDOF 3
ENDMDL
MODEL 6
REMARK VINA RESULT:      -8.7      4.192      9.499
REMARK  Name = 
REMARK  4 active torsions:
REMARK  status: ('A' for Active; 'I' for Inactive)
REMARK    1  A    between atoms: C_1  and  C_2
REMARK    2  A    between atoms: C_14  and  C_15
REMARK    3  A    between atoms: C_16  and  C_17
REMARK    4  A    between atoms: C_20  and  C_21
REMARK                            x       y       z     vdW  Elec       q    Type
REMARK                         _______ _______ _______ _____ _____    ______ ____
ROOT
ATOM      1  C   UNL     1       1.203  13.504  21.190  0.00  0.00    +0.000 C 
ATOM      2  C   UNL     1      -0.028  12.629  21.373  0.00  0.00    +0.000 C 
ATOM      3  O   UNL     1      -0.603  12.820  22.664  0.00  0.00    +0.000 OA
ATOM      4  C   UNL     1      -1.951  12.641  22.566  0.00  0.00    +0.000 C 
ATOM      5  O   UNL     1      -2.671  12.339  23.503  0.00  0.00    +0.000 OA
ATOM      6  C   UNL     1      -2.407  13.014  21.181  0.00  0.00    +0.000 C 
ATOM      7  C   UNL     1      -3.622  12.247  20.680  0.00  0.00    +0.000 C 
ATOM      8  C   UNL     1      -3.721  12.273  19.148  0.00  0.00    +0.000 C 
ATOM      9  C   UNL     1      -5.012  11.578  18.665  0.00  0.00    +0.000 C 
ATOM     10  C   UNL     1      -5.061  11.339  17.150  0.00  0.00    +0.000 C 
ATOM     11  C   UNL     1      -3.779  10.733  16.588  0.00  0.00    +0.000 C 
ATOM     12  C   UNL     1      -2.558  11.521  17.040  0.00  0.00    +0.000 C 
ATOM     13  C   UNL     1      -2.513  11.535  18.577  0.00  0.00    +0.000 C 
ATOM     14  C   UNL     1      -1.139  12.004  19.098  0.00  0.00    +0.000 C 
ATOM     15  C   UNL     1      -1.136  12.916  20.349  0.00  0.00    +0.000 C 
ENDROOT
BRANCH  14  16
ATOM     16  C   UNL     1      -0.364  10.724  19.286  0.00  0.00    +0.000 C 
ATOM     17  C   UNL     1       0.807  10.449  18.705  0.00  0.00    +0.000 C 
BRANCH  17  18
ATOM     18  C   UNL     1       1.453   9.147  18.866  0.00  0.00    +0.000 A 
ATOM     19  C   UNL     1       2.046   8.530  17.782  0.00  0.00    +0.000 A 
ATOM     20  C   UNL     1       2.638   7.285  17.973  0.00  0.00    +0.000 A 
ATOM     21  C   UNL     1       2.610   6.650  19.227  0.00  0.00    +0.000 A 
ATOM     22  C   UNL     1       1.968   7.358  20.240  0.00  0.00    +0.000 A 
ATOM     23  N   UNL     1       1.408   8.580  20.092  0.00  0.00    +0.000 NA
BRANCH  21  24
ATOM     24  C   UNL     1       3.170   5.290  19.409  0.00  0.00    +0.000 A 
ATOM     25  C   UNL     1       4.524   5.074  19.066  0.00  0.00    +0.000 A 
ATOM     26  C   UNL     1       5.139   3.832  19.222  0.00  0.00    +0.000 A 
ATOM     27  C   UNL     1       4.408   2.754  19.698  0.00  0.00    +0.000 A 
ATOM     28  C   UNL     1       3.067   2.926  20.032  0.00  0.00    +0.000 A 
ATOM     29  C   UNL     1       2.452   4.180  19.904  0.00  0.00    +0.000 A 
ATOM     30 CL   UNL     1       0.809   4.269  20.445  0.00  0.00    +0.000 Cl
ENDBRANCH  21  24
ENDBRANCH  17  18
ENDBRANCH  14  16
TORSDOF 3
ENDMDL
MODEL 7
REMARK VINA RESULT:      -8.6      2.411      4.293
REMARK  Name = 
REMARK  4 active torsions:
REMARK  status: ('A' for Active; 'I' for Inactive)
REMARK    1  A    between atoms: C_1  and  C_2
REMARK    2  A    between atoms: C_14  and  C_15
REMARK    3  A    between atoms: C_16  and  C_17
REMARK    4  A    between atoms: C_20  and  C_21
REMARK                            x       y       z     vdW  Elec       q    Type
REMARK                         _______ _______ _______ _____ _____    ______ ____
ROOT
ATOM      1  C   UNL     1       0.815   3.511  17.682  0.00  0.00    +0.000 C 
ATOM      2  C   UNL     1       1.843   3.935  18.720  0.00  0.00    +0.000 C 
ATOM      3  O   UNL     1       1.965   2.953  19.748  0.00  0.00    +0.000 OA
ATOM      4  C   UNL     1       3.251   2.964  20.203  0.00  0.00    +0.000 C 
ATOM      5  O   UNL     1       3.591   2.562  21.303  0.00  0.00    +0.000 OA
ATOM      6  C   UNL     1       4.171   3.401  19.095  0.00  0.00    +0.000 C 
ATOM      7  C   UNL     1       5.421   4.136  19.555  0.00  0.00    +0.000 C 
ATOM      8  C   UNL     1       6.029   4.987  18.432  0.00  0.00    +0.000 C 
ATOM      9  C   UNL     1       7.351   5.642  18.887  0.00  0.00    +0.000 C 
ATOM     10  C   UNL     1       7.886   6.704  17.916  0.00  0.00    +0.000 C 
ATOM     11  C   UNL     1       6.824   7.697  17.455  0.00  0.00    +0.000 C 
ATOM     12  C   UNL     1       5.585   6.975  16.943  0.00  0.00    +0.000 C 
ATOM     13  C   UNL     1       5.029   6.081  18.064  0.00  0.00    +0.000 C 
ATOM     14  C   UNL     1       3.601   5.596  17.745  0.00  0.00    +0.000 C 
ATOM     15  C   UNL     1       3.248   4.140  18.136  0.00  0.00    +0.000 C 
ENDROOT
BRANCH  14  16
ATOM     16  C   UNL     1       2.712   6.625  18.399  0.00  0.00    +0.000 C 
ATOM     17  C   UNL     1       2.588   7.893  17.995  0.00  0.00    +0.000 C 
BRANCH  17  18
ATOM     18  C   UNL     1       1.775   8.855  18.738  0.00  0.00    +0.000 A 
ATOM     19  C   UNL     1       1.308   8.540  19.998  0.00  0.00    +0.000 A 
ATOM     20  C   UNL     1       0.525   9.477  20.666  0.00  0.00    +0.000 A 
ATOM     21  C   UNL     1       0.189  10.704  20.068  0.00  0.00    +0.000 A 
ATOM     22  C   UNL     1       0.700  10.903  18.788  0.00  0.00    +0.000 A 
ATOM     23  N   UNL     1       1.485  10.024  18.125  0.00  0.00    +0.000 NA
BRANCH  21  24
ATOM     24  C   UNL     1      -0.710  11.666  20.748  0.00  0.00    +0.000 A 
ATOM     25  C   UNL     1      -0.279  12.235  21.968  0.00  0.00    +0.000 A 
ATOM     26  C   UNL     1      -1.051  13.162  22.666  0.00  0.00    +0.000 A 
ATOM     27  C   UNL     1      -2.298  13.528  22.182  0.00  0.00    +0.000 A 
ATOM     28  C   UNL     1      -2.762  12.977  20.991  0.00  0.00    +0.000 A 
ATOM     29  C   UNL     1      -1.977  12.066  20.270  0.00  0.00    +0.000 A 
ATOM     30 CL   UNL     1      -2.640  11.534  18.760  0.00  0.00    +0.000 Cl
ENDBRANCH  21  24
ENDBRANCH  17  18
ENDBRANCH  14  16
TORSDOF 3
ENDMDL
MODEL 8
REMARK VINA RESULT:      -8.6      2.577      4.446
REMARK  Name = 
REMARK  4 active torsions:
REMARK  status: ('A' for Active; 'I' for Inactive)
REMARK    1  A    between atoms: C_1  and  C_2
REMARK    2  A    between atoms: C_14  and  C_15
REMARK    3  A    between atoms: C_16  and  C_17
REMARK    4  A    between atoms: C_20  and  C_21
REMARK                            x       y       z     vdW  Elec       q    Type
REMARK                         _______ _______ _______ _____ _____    ______ ____
ROOT
ATOM      1  C   UNL     1       1.001   3.614  17.449  0.00  0.00    +0.000 C 
ATOM      2  C   UNL     1       2.025   3.961  18.520  0.00  0.00    +0.000 C 
ATOM      3  O   UNL     1       2.166   2.895  19.457  0.00  0.00    +0.000 OA
ATOM      4  C   UNL     1       3.452   2.886  19.909  0.00  0.00    +0.000 C 
ATOM      5  O   UNL     1       3.801   2.395  20.970  0.00  0.00    +0.000 OA
ATOM      6  C   UNL     1       4.363   3.433  18.843  0.00  0.00    +0.000 C 
ATOM      7  C   UNL     1       5.602   4.145  19.365  0.00  0.00    +0.000 C 
ATOM      8  C   UNL     1       6.194   5.101  18.320  0.00  0.00    +0.000 C 
ATOM      9  C   UNL     1       7.506   5.735  18.830  0.00  0.00    +0.000 C 
ATOM     10  C   UNL     1       8.022   6.887  17.956  0.00  0.00    +0.000 C 
ATOM     11  C   UNL     1       6.943   7.899  17.584  0.00  0.00    +0.000 C 
ATOM     12  C   UNL     1       5.714   7.205  17.013  0.00  0.00    +0.000 C 
ATOM     13  C   UNL     1       5.175   6.207  18.051  0.00  0.00    +0.000 C 
ATOM     14  C   UNL     1       3.754   5.729  17.692  0.00  0.00    +0.000 C 
ATOM     15  C   UNL     1       3.426   4.239  17.954  0.00  0.00    +0.000 C 
ENDROOT
BRANCH  14  16
ATOM     16  C   UNL     1       2.851   6.682  18.434  0.00  0.00    +0.000 C 
ATOM     17  C   UNL     1       2.413   7.849  17.953  0.00  0.00    +0.000 C 
BRANCH  17  18
ATOM     18  C   UNL     1       1.613   8.761  18.770  0.00  0.00    +0.000 A 
ATOM     19  C   UNL     1       1.447   8.517  20.119  0.00  0.00    +0.000 A 
ATOM     20  C   UNL     1       0.667   9.401  20.859  0.00  0.00    +0.000 A 
ATOM     21  C   UNL     1       0.035  10.500  20.251  0.00  0.00    +0.000 A 
ATOM     22  C   UNL     1       0.258  10.634  18.883  0.00  0.00    +0.000 A 
ATOM     23  N   UNL     1       1.032   9.808  18.143  0.00  0.00    +0.000 NA
BRANCH  21  24
ATOM     24  C   UNL     1      -0.859  11.393  21.024  0.00  0.00    +0.000 A 
ATOM     25  C   UNL     1      -1.499  12.452  20.340  0.00  0.00    +0.000 A 
ATOM     26  C   UNL     1      -2.371  13.329  20.983  0.00  0.00    +0.000 A 
ATOM     27  C   UNL     1      -2.608  13.195  22.343  0.00  0.00    +0.000 A 
ATOM     28  C   UNL     1      -1.984  12.173  23.053  0.00  0.00    +0.000 A 
ATOM     29  C   UNL     1      -1.128  11.270  22.405  0.00  0.00    +0.000 A 
ATOM     30 CL   UNL     1      -0.497   9.993  23.391  0.00  0.00    +0.000 Cl
ENDBRANCH  21  24
ENDBRANCH  17  18
ENDBRANCH  14  16
TORSDOF 3
ENDMDL
MODEL 9
REMARK VINA RESULT:      -8.6      2.473      4.259
REMARK  Name = 
REMARK  4 active torsions:
REMARK  status: ('A' for Active; 'I' for Inactive)
REMARK    1  A    between atoms: C_1  and  C_2
REMARK    2  A    between atoms: C_14  and  C_15
REMARK    3  A    between atoms: C_16  and  C_17
REMARK    4  A    between atoms: C_20  and  C_21
REMARK                            x       y       z     vdW  Elec       q    Type
REMARK                         _______ _______ _______ _____ _____    ______ ____
ROOT
ATOM      1  C   UNL     1       0.132   2.855  18.425  0.00  0.00    +0.000 C 
ATOM      2  C   UNL     1       1.264   3.514  19.199  0.00  0.00    +0.000 C 
ATOM      3  O   UNL     1       1.380   2.955  20.507  0.00  0.00    +0.000 OA
ATOM      4  C   UNL     1       2.692   2.995  20.877  0.00  0.00    +0.000 C 
ATOM      5  O   UNL     1       3.077   2.979  22.034  0.00  0.00    +0.000 OA
ATOM      6  C   UNL     1       3.562   2.912  19.652  0.00  0.00    +0.000 C 
ATOM      7  C   UNL     1       4.898   3.632  19.767  0.00  0.00    +0.000 C 
ATOM      8  C   UNL     1       5.490   3.960  18.389  0.00  0.00    +0.000 C 
ATOM      9  C   UNL     1       6.890   4.595  18.526  0.00  0.00    +0.000 C 
ATOM     10  C   UNL     1       7.438   5.182  17.217  0.00  0.00    +0.000 C 
ATOM     11  C   UNL     1       6.430   6.048  16.469  0.00  0.00    +0.000 C 
ATOM     12  C   UNL     1       5.102   5.321  16.302  0.00  0.00    +0.000 C 
ATOM     13  C   UNL     1       4.559   4.947  17.690  0.00  0.00    +0.000 C 
ATOM     14  C   UNL     1       3.076   4.529  17.623  0.00  0.00    +0.000 C 
ATOM     15  C   UNL     1       2.636   3.352  18.527  0.00  0.00    +0.000 C 
ENDROOT
BRANCH  14  16
ATOM     16  C   UNL     1       2.324   5.808  17.894  0.00  0.00    +0.000 C 
ATOM     17  C   UNL     1       2.802   6.840  18.597  0.00  0.00    +0.000 C 
BRANCH  17  18
ATOM     18  C   UNL     1       1.976   8.010  18.893  0.00  0.00    +0.000 A 
ATOM     19  C   UNL     1       1.635   8.890  17.885  0.00  0.00    +0.000 A 
ATOM     20  C   UNL     1       0.860   9.999  18.211  0.00  0.00    +0.000 A 
ATOM     21  C   UNL     1       0.455  10.242  19.535  0.00  0.00    +0.000 A 
ATOM     22  C   UNL     1       0.875   9.298  20.469  0.00  0.00    +0.000 A 
ATOM     23  N   UNL     1       1.605   8.197  20.179  0.00  0.00    +0.000 NA
BRANCH  21  24
ATOM     24  C   UNL     1      -0.301  11.464  19.893  0.00  0.00    +0.000 A 
ATOM     25  C   UNL     1      -1.706  11.451  19.733  0.00  0.00    +0.000 A 
ATOM     26  C   UNL     1      -2.499  12.549  20.062  0.00  0.00    +0.000 A 
ATOM     27  C   UNL     1      -1.908  13.712  20.533  0.00  0.00    +0.000 A 
ATOM     28  C   UNL     1      -0.526  13.767  20.688  0.00  0.00    +0.000 A 
ATOM     29  C   UNL     1       0.274  12.656  20.387  0.00  0.00    +0.000 A 
ATOM     30 CL   UNL     1       1.965  12.835  20.718  0.00  0.00    +0.000 Cl
ENDBRANCH  21  24
ENDBRANCH  17  18
ENDBRANCH  14  16
TORSDOF 3
ENDMDL
