MODEL 1
REMARK VINA RESULT:      -7.4      0.000      0.000
REMARK  Name = 
REMARK  15 active torsions:
REMARK  status: ('A' for Active; 'I' for Inactive)
REMARK    1  A    between atoms: C_1  and  O_2
REMARK    2  A    between atoms: O_2  and  C_3
REMARK    3  A    between atoms: C_5  and  O_6
REMARK    4  A    between atoms: O_6  and  C_7
REMARK    5  A    between atoms: C_9  and  C_10
REMARK    6  A    between atoms: C_10  and  C_11
REMARK    7  A    between atoms: C_11  and  C_12
REMARK    8  A    between atoms: C_11  and  C_15
REMARK    9  A    between atoms: C_12  and  O_14
REMARK   10  A    between atoms: C_15  and  C_16
REMARK   11  A    between atoms: C_15  and  O_17
REMARK   12  A    between atoms: C_15  and  C_26
REMARK   13  A    between atoms: O_17  and  C_18
REMARK   14  A    between atoms: C_21  and  S_22
REMARK   15  A    between atoms: S_22  and  C_23
REMARK                            x       y       z     vdW  Elec       q    Type
REMARK                         _______ _______ _______ _____ _____    ______ ____
ROOT
ATOM      1  C   UNL     1       4.375   5.823  17.302  0.00  0.00    +0.000 C 
ATOM      2  C   UNL     1       4.114   6.992  16.308  0.00  0.00    +0.000 C 
ENDROOT
BRANCH   1   3
ATOM      3  C   UNL     1       5.700   6.229  17.996  0.00  0.00    +0.000 A 
ATOM      4  C   UNL     1       6.570   7.200  17.476  0.00  0.00    +0.000 A 
ATOM      5  C   UNL     1       7.865   7.338  17.989  0.00  0.00    +0.000 A 
ATOM      6  C   UNL     1       8.303   6.525  19.033  0.00  0.00    +0.000 A 
ATOM      7  C   UNL     1       7.426   5.624  19.623  0.00  0.00    +0.000 A 
ATOM      8  C   UNL     1       6.124   5.510  19.140  0.00  0.00    +0.000 A 
ENDBRANCH   1   3
BRANCH   1   9
ATOM      9  C   UNL     1       4.384   4.493  16.463  0.00  0.00    +0.000 C 
BRANCH   9  10
ATOM     10  C   UNL     1       3.582   3.403  17.170  0.00  0.00    +0.000 C 
ATOM     11  O   UNL     1       2.421   3.112  16.927  0.00  0.00    +0.000 OA
BRANCH  10  12
ATOM     12  O   UNL     1       4.277   2.767  18.145  0.00  0.00    +0.000 OA
ATOM     13  H   UNL     1       5.249   2.781  18.010  0.00  0.00    +0.000 HD
ENDBRANCH  10  12
ENDBRANCH   9  10
BRANCH   9  14
ATOM     14  C   UNL     1       5.765   3.895  16.158  0.00  0.00    +0.000 C 
BRANCH  14  19
ATOM     15  C   UNL     1       7.654   5.072  13.287  0.00  0.00    +0.000 A 
ATOM     16  C   UNL     1       7.179   4.313  12.243  0.00  0.00    +0.000 A 
ATOM     17  C   UNL     1       6.150   3.452  12.552  0.00  0.00    +0.000 A 
ATOM     18  N   UNL     1       5.646   3.338  13.792  0.00  0.00    +0.000 NA
ATOM     19  C   UNL     1       6.202   4.105  14.739  0.00  0.00    +0.000 A 
ATOM     20  N   UNL     1       7.172   4.999  14.532  0.00  0.00    +0.000 NA
BRANCH  15  22
ATOM     21  C   UNL     1       8.582   6.585  11.762  0.00  0.00    +0.000 C 
ATOM     22  O   UNL     1       8.709   5.923  13.022  0.00  0.00    +0.000 OA
ENDBRANCH  15  22
BRANCH  17  23
ATOM     23  O   UNL     1       5.533   2.592  11.697  0.00  0.00    +0.000 OA
ATOM     24  C   UNL     1       6.285   1.486  11.231  0.00  0.00    +0.000 C 
ENDBRANCH  17  23
ENDBRANCH  14  19
ENDBRANCH   9  14
ENDBRANCH   1   9
BRANCH   1  25
ATOM     25  O   UNL     1       3.259   5.827  18.237  0.00  0.00    +0.000 OA
BRANCH  25  26
ATOM     26  C   UNL     1       2.618   6.971  18.644  0.00  0.00    +0.000 A 
ATOM     27  C   UNL     1       2.326   8.093  17.864  0.00  0.00    +0.000 A 
ATOM     28  C   UNL     1       1.644   9.187  18.380  0.00  0.00    +0.000 A 
ATOM     29  C   UNL     1       1.223   9.192  19.703  0.00  0.00    +0.000 A 
ATOM     30  C   UNL     1       1.539   8.094  20.510  0.00  0.00    +0.000 A 
ATOM     31  C   UNL     1       2.211   6.987  19.980  0.00  0.00    +0.000 A 
BRANCH  29  32
ATOM     32  S   UNL     1       0.368  10.649  20.268  0.00  0.00    +0.000 S 
ATOM     33  C   UNL     1       0.332  10.351  22.049  0.00  0.00    +0.000 C 
ENDBRANCH  29  32
ENDBRANCH  25  26
ENDBRANCH   1  25
TORSDOF 11
ENDMDL
MODEL 2
REMARK VINA RESULT:      -7.4      0.724      1.329
REMARK  Name = 
REMARK  15 active torsions:
REMARK  status: ('A' for Active; 'I' for Inactive)
REMARK    1  A    between atoms: C_1  and  O_2
REMARK    2  A    between atoms: O_2  and  C_3
REMARK    3  A    between atoms: C_5  and  O_6
REMARK    4  A    between atoms: O_6  and  C_7
REMARK    5  A    between atoms: C_9  and  C_10
REMARK    6  A    between atoms: C_10  and  C_11
REMARK    7  A    between atoms: C_11  and  C_12
REMARK    8  A    between atoms: C_11  and  C_15
REMARK    9  A    between atoms: C_12  and  O_14
REMARK   10  A    between atoms: C_15  and  C_16
REMARK   11  A    between atoms: C_15  and  O_17
REMARK   12  A    between atoms: C_15  and  C_26
REMARK   13  A    between atoms: O_17  and  C_18
REMARK   14  A    between atoms: C_21  and  S_22
REMARK   15  A    between atoms: S_22  and  C_23
REMARK                            x       y       z     vdW  Elec       q    Type
REMARK                         _______ _______ _______ _____ _____    ______ ____
ROOT
ATOM      1  C   UNL     1       4.540   5.751  17.372  0.00  0.00    +0.000 C 
ATOM      2  C   UNL     1       4.201   6.950  16.438  0.00  0.00    +0.000 C 
ENDROOT
BRANCH   1   3
ATOM      3  C   UNL     1       5.980   6.066  17.852  0.00  0.00    +0.000 A 
ATOM      4  C   UNL     1       6.595   5.391  18.918  0.00  0.00    +0.000 A 
ATOM      5  C   UNL     1       7.777   5.887  19.481  0.00  0.00    +0.000 A 
ATOM      6  C   UNL     1       8.368   7.045  18.981  0.00  0.00    +0.000 A 
ATOM      7  C   UNL     1       7.826   7.673  17.866  0.00  0.00    +0.000 A 
ATOM      8  C   UNL     1       6.670   7.161  17.280  0.00  0.00    +0.000 A 
ENDBRANCH   1   3
BRANCH   1   9
ATOM      9  C   UNL     1       4.335   4.436  16.534  0.00  0.00    +0.000 C 
BRANCH   9  10
ATOM     10  C   UNL     1       3.476   3.435  17.303  0.00  0.00    +0.000 C 
ATOM     11  O   UNL     1       3.905   2.555  18.034  0.00  0.00    +0.000 OA
BRANCH  10  12
ATOM     12  O   UNL     1       2.146   3.587  17.091  0.00  0.00    +0.000 OA
ATOM     13  H   UNL     1       1.680   2.746  16.891  0.00  0.00    +0.000 HD
ENDBRANCH  10  12
ENDBRANCH   9  10
BRANCH   9  14
ATOM     14  C   UNL     1       5.613   3.692  16.119  0.00  0.00    +0.000 C 
BRANCH  14  19
ATOM     15  C   UNL     1       7.497   5.022  13.313  0.00  0.00    +0.000 A 
ATOM     16  C   UNL     1       6.998   4.343  12.225  0.00  0.00    +0.000 A 
ATOM     17  C   UNL     1       5.955   3.483  12.488  0.00  0.00    +0.000 A 
ATOM     18  N   UNL     1       5.461   3.297  13.723  0.00  0.00    +0.000 NA
ATOM     19  C   UNL     1       6.040   3.989  14.713  0.00  0.00    +0.000 A 
ATOM     20  N   UNL     1       7.025   4.876  14.555  0.00  0.00    +0.000 NA
BRANCH  15  22
ATOM     21  C   UNL     1       8.551   6.452  11.789  0.00  0.00    +0.000 C 
ATOM     22  O   UNL     1       8.566   5.869  13.094  0.00  0.00    +0.000 OA
ENDBRANCH  15  22
BRANCH  17  23
ATOM     23  O   UNL     1       5.314   2.693  11.584  0.00  0.00    +0.000 OA
ATOM     24  C   UNL     1       4.051   3.132  11.117  0.00  0.00    +0.000 C 
ENDBRANCH  17  23
ENDBRANCH  14  19
ENDBRANCH   9  14
ENDBRANCH   1   9
BRANCH   1  25
ATOM     25  O   UNL     1       3.586   5.809  18.470  0.00  0.00    +0.000 OA
BRANCH  25  26
ATOM     26  C   UNL     1       2.837   6.921  18.764  0.00  0.00    +0.000 A 
ATOM     27  C   UNL     1       2.533   7.980  17.904  0.00  0.00    +0.000 A 
ATOM     28  C   UNL     1       1.738   9.046  18.305  0.00  0.00    +0.000 A 
ATOM     29  C   UNL     1       1.211   9.084  19.589  0.00  0.00    +0.000 A 
ATOM     30  C   UNL     1       1.534   8.052  20.477  0.00  0.00    +0.000 A 
ATOM     31  C   UNL     1       2.322   6.972  20.061  0.00  0.00    +0.000 A 
BRANCH  29  32
ATOM     32  S   UNL     1       0.215  10.500  20.006  0.00  0.00    +0.000 S 
ATOM     33  C   UNL     1      -0.836  10.618  18.542  0.00  0.00    +0.000 C 
ENDBRANCH  29  32
ENDBRANCH  25  26
ENDBRANCH   1  25
TORSDOF 11
ENDMDL
MODEL 3
REMARK VINA RESULT:      -7.1      0.516      2.054
REMARK  Name = 
REMARK  15 active torsions:
REMARK  status: ('A' for Active; 'I' for Inactive)
REMARK    1  A    between atoms: C_1  and  O_2
REMARK    2  A    between atoms: O_2  and  C_3
REMARK    3  A    between atoms: C_5  and  O_6
REMARK    4  A    between atoms: O_6  and  C_7
REMARK    5  A    between atoms: C_9  and  C_10
REMARK    6  A    between atoms: C_10  and  C_11
REMARK    7  A    between atoms: C_11  and  C_12
REMARK    8  A    between atoms: C_11  and  C_15
REMARK    9  A    between atoms: C_12  and  O_14
REMARK   10  A    between atoms: C_15  and  C_16
REMARK   11  A    between atoms: C_15  and  O_17
REMARK   12  A    between atoms: C_15  and  C_26
REMARK   13  A    between atoms: O_17  and  C_18
REMARK   14  A    between atoms: C_21  and  S_22
REMARK   15  A    between atoms: S_22  and  C_23
REMARK                            x       y       z     vdW  Elec       q    Type
REMARK                         _______ _______ _______ _____ _____    ______ ____
ROOT
ATOM      1  C   UNL     1       4.441   5.749  17.325  0.00  0.00    +0.000 C 
ATOM      2  C   UNL     1       4.057   6.921  16.375  0.00  0.00    +0.000 C 
ENDROOT
BRANCH   1   3
ATOM      3  C   UNL     1       5.754   6.238  17.987  0.00  0.00    +0.000 A 
ATOM      4  C   UNL     1       6.549   7.261  17.446  0.00  0.00    +0.000 A 
ATOM      5  C   UNL     1       7.844   7.480  17.927  0.00  0.00    +0.000 A 
ATOM      6  C   UNL     1       8.358   6.698  18.960  0.00  0.00    +0.000 A 
ATOM      7  C   UNL     1       7.554   5.745  19.571  0.00  0.00    +0.000 A 
ATOM      8  C   UNL     1       6.249   5.549  19.120  0.00  0.00    +0.000 A 
ENDBRANCH   1   3
BRANCH   1   9
ATOM      9  C   UNL     1       4.522   4.447  16.447  0.00  0.00    +0.000 C 
BRANCH   9  10
ATOM     10  C   UNL     1       3.678   3.331  17.058  0.00  0.00    +0.000 C 
ATOM     11  O   UNL     1       2.526   3.068  16.749  0.00  0.00    +0.000 OA
BRANCH  10  12
ATOM     12  O   UNL     1       4.322   2.634  18.027  0.00  0.00    +0.000 OA
ATOM     13  H   UNL     1       5.277   2.847  18.097  0.00  0.00    +0.000 HD
ENDBRANCH  10  12
ENDBRANCH   9  10
BRANCH   9  14
ATOM     14  C   UNL     1       5.927   3.866  16.228  0.00  0.00    +0.000 C 
BRANCH  14  19
ATOM     15  C   UNL     1       6.086   3.416  12.627  0.00  0.00    +0.000 A 
ATOM     16  C   UNL     1       7.037   4.323  12.220  0.00  0.00    +0.000 A 
ATOM     17  C   UNL     1       7.659   5.025  13.227  0.00  0.00    +0.000 A 
ATOM     18  N   UNL     1       7.355   4.857  14.525  0.00  0.00    +0.000 NA
ATOM     19  C   UNL     1       6.394   3.967  14.807  0.00  0.00    +0.000 A 
ATOM     20  N   UNL     1       5.763   3.209  13.907  0.00  0.00    +0.000 NA
BRANCH  15  22
ATOM     21  C   UNL     1       4.107   3.233  11.390  0.00  0.00    +0.000 C 
ATOM     22  O   UNL     1       5.415   2.717  11.642  0.00  0.00    +0.000 OA
ENDBRANCH  15  22
BRANCH  17  23
ATOM     23  O   UNL     1       8.612   5.983  13.073  0.00  0.00    +0.000 OA
ATOM     24  C   UNL     1       8.647   6.674  11.837  0.00  0.00    +0.000 C 
ENDBRANCH  17  23
ENDBRANCH  14  19
ENDBRANCH   9  14
ENDBRANCH   1   9
BRANCH   1  25
ATOM     25  O   UNL     1       3.361   5.642  18.296  0.00  0.00    +0.000 OA
BRANCH  25  26
ATOM     26  C   UNL     1       2.694   6.727  18.807  0.00  0.00    +0.000 A 
ATOM     27  C   UNL     1       2.447   7.942  18.162  0.00  0.00    +0.000 A 
ATOM     28  C   UNL     1       1.732   8.964  18.772  0.00  0.00    +0.000 A 
ATOM     29  C   UNL     1       1.231   8.801  20.057  0.00  0.00    +0.000 A 
ATOM     30  C   UNL     1       1.499   7.606  20.734  0.00  0.00    +0.000 A 
ATOM     31  C   UNL     1       2.206   6.573  20.106  0.00  0.00    +0.000 A 
BRANCH  29  32
ATOM     32  S   UNL     1       0.339  10.177  20.752  0.00  0.00    +0.000 S 
ATOM     33  C   UNL     1       0.435   9.789  22.513  0.00  0.00    +0.000 C 
ENDBRANCH  29  32
ENDBRANCH  25  26
ENDBRANCH   1  25
TORSDOF 11
ENDMDL
MODEL 4
REMARK VINA RESULT:      -7.1      0.692      1.289
REMARK  Name = 
REMARK  15 active torsions:
REMARK  status: ('A' for Active; 'I' for Inactive)
REMARK    1  A    between atoms: C_1  and  O_2
REMARK    2  A    between atoms: O_2  and  C_3
REMARK    3  A    between atoms: C_5  and  O_6
REMARK    4  A    between atoms: O_6  and  C_7
REMARK    5  A    between atoms: C_9  and  C_10
REMARK    6  A    between atoms: C_10  and  C_11
REMARK    7  A    between atoms: C_11  and  C_12
REMARK    8  A    between atoms: C_11  and  C_15
REMARK    9  A    between atoms: C_12  and  O_14
REMARK   10  A    between atoms: C_15  and  C_16
REMARK   11  A    between atoms: C_15  and  O_17
REMARK   12  A    between atoms: C_15  and  C_26
REMARK   13  A    between atoms: O_17  and  C_18
REMARK   14  A    between atoms: C_21  and  S_22
REMARK   15  A    between atoms: S_22  and  C_23
REMARK                            x       y       z     vdW  Elec       q    Type
REMARK                         _______ _______ _______ _____ _____    ______ ____
ROOT
ATOM      1  C   UNL     1       4.265   5.749  17.418  0.00  0.00    +0.000 C 
ATOM      2  C   UNL     1       3.919   6.940  16.476  0.00  0.00    +0.000 C 
ENDROOT
BRANCH   1   3
ATOM      3  C   UNL     1       5.610   6.175  18.058  0.00  0.00    +0.000 A 
ATOM      4  C   UNL     1       6.439   7.166  17.510  0.00  0.00    +0.000 A 
ATOM      5  C   UNL     1       7.752   7.324  17.968  0.00  0.00    +0.000 A 
ATOM      6  C   UNL     1       8.250   6.512  18.985  0.00  0.00    +0.000 A 
ATOM      7  C   UNL     1       7.415   5.590  19.605  0.00  0.00    +0.000 A 
ATOM      8  C   UNL     1       6.095   5.456  19.176  0.00  0.00    +0.000 A 
ENDBRANCH   1   3
BRANCH   1   9
ATOM      9  C   UNL     1       4.270   4.447  16.536  0.00  0.00    +0.000 C 
BRANCH   9  10
ATOM     10  C   UNL     1       3.461   3.339  17.206  0.00  0.00    +0.000 C 
ATOM     11  O   UNL     1       3.931   2.416  17.853  0.00  0.00    +0.000 OA
BRANCH  10  12
ATOM     12  O   UNL     1       2.124   3.448  17.006  0.00  0.00    +0.000 OA
ATOM     13  H   UNL     1       1.872   4.200  16.428  0.00  0.00    +0.000 HD
ENDBRANCH  10  12
ENDBRANCH   9  10
BRANCH   9  14
ATOM     14  C   UNL     1       5.649   3.852  16.218  0.00  0.00    +0.000 C 
BRANCH  14  19
ATOM     15  C   UNL     1       7.563   5.077  13.384  0.00  0.00    +0.000 A 
ATOM     16  C   UNL     1       7.067   4.367  12.315  0.00  0.00    +0.000 A 
ATOM     17  C   UNL     1       6.017   3.522  12.598  0.00  0.00    +0.000 A 
ATOM     18  N   UNL     1       5.512   3.380  13.834  0.00  0.00    +0.000 NA
ATOM     19  C   UNL     1       6.089   4.100  14.806  0.00  0.00    +0.000 A 
ATOM     20  N   UNL     1       7.081   4.975  14.626  0.00  0.00    +0.000 NA
BRANCH  15  22
ATOM     21  C   UNL     1       8.619   6.478  11.834  0.00  0.00    +0.000 C 
ATOM     22  O   UNL     1       8.639   5.909  13.146  0.00  0.00    +0.000 OA
ENDBRANCH  15  22
BRANCH  17  23
ATOM     23  O   UNL     1       5.377   2.708  11.716  0.00  0.00    +0.000 OA
ATOM     24  C   UNL     1       4.118   3.137  11.229  0.00  0.00    +0.000 C 
ENDBRANCH  17  23
ENDBRANCH  14  19
ENDBRANCH   9  14
ENDBRANCH   1   9
BRANCH   1  25
ATOM     25  O   UNL     1       3.198   5.690  18.407  0.00  0.00    +0.000 OA
BRANCH  25  26
ATOM     26  C   UNL     1       2.559   6.802  18.898  0.00  0.00    +0.000 A 
ATOM     27  C   UNL     1       2.197   7.046  20.225  0.00  0.00    +0.000 A 
ATOM     28  C   UNL     1       1.577   8.227  20.611  0.00  0.00    +0.000 A 
ATOM     29  C   UNL     1       1.301   9.214  19.674  0.00  0.00    +0.000 A 
ATOM     30  C   UNL     1       1.621   8.973  18.334  0.00  0.00    +0.000 A 
ATOM     31  C   UNL     1       2.262   7.788  17.954  0.00  0.00    +0.000 A 
BRANCH  29  32
ATOM     32  S   UNL     1       0.491  10.684  20.271  0.00  0.00    +0.000 S 
ATOM     33  C   UNL     1      -0.167  11.358  18.730  0.00  0.00    +0.000 C 
ENDBRANCH  29  32
ENDBRANCH  25  26
ENDBRANCH   1  25
TORSDOF 11
ENDMDL
MODEL 5
REMARK VINA RESULT:      -7.0      1.839      3.927
REMARK  Name = 
REMARK  15 active torsions:
REMARK  status: ('A' for Active; 'I' for Inactive)
REMARK    1  A    between atoms: C_1  and  O_2
REMARK    2  A    between atoms: O_2  and  C_3
REMARK    3  A    between atoms: C_5  and  O_6
REMARK    4  A    between atoms: O_6  and  C_7
REMARK    5  A    between atoms: C_9  and  C_10
REMARK    6  A    between atoms: C_10  and  C_11
REMARK    7  A    between atoms: C_11  and  C_12
REMARK    8  A    between atoms: C_11  and  C_15
REMARK    9  A    between atoms: C_12  and  O_14
REMARK   10  A    between atoms: C_15  and  C_16
REMARK   11  A    between atoms: C_15  and  O_17
REMARK   12  A    between atoms: C_15  and  C_26
REMARK   13  A    between atoms: O_17  and  C_18
REMARK   14  A    between atoms: C_21  and  S_22
REMARK   15  A    between atoms: S_22  and  C_23
REMARK                            x       y       z     vdW  Elec       q    Type
REMARK                         _______ _______ _______ _____ _____    ______ ____
ROOT
ATOM      1  C   UNL     1       3.381   5.538  18.396  0.00  0.00    +0.000 C 
ATOM      2  C   UNL     1       4.071   6.072  19.686  0.00  0.00    +0.000 C 
ENDROOT
BRANCH   1   3
ATOM      3  C   UNL     1       2.331   4.535  18.938  0.00  0.00    +0.000 A 
ATOM      4  C   UNL     1       2.053   4.383  20.306  0.00  0.00    +0.000 A 
ATOM      5  C   UNL     1       1.303   3.292  20.758  0.00  0.00    +0.000 A 
ATOM      6  C   UNL     1       0.809   2.350  19.858  0.00  0.00    +0.000 A 
ATOM      7  C   UNL     1       0.993   2.534  18.494  0.00  0.00    +0.000 A 
ATOM      8  C   UNL     1       1.708   3.640  18.036  0.00  0.00    +0.000 A 
ENDBRANCH   1   3
BRANCH   1   9
ATOM      9  C   UNL     1       4.513   4.960  17.470  0.00  0.00    +0.000 C 
BRANCH   9  10
ATOM     10  C   UNL     1       5.649   4.375  18.306  0.00  0.00    +0.000 C 
ATOM     11  O   UNL     1       6.715   4.928  18.531  0.00  0.00    +0.000 OA
BRANCH  10  12
ATOM     12  O   UNL     1       5.385   3.135  18.786  0.00  0.00    +0.000 OA
ATOM     13  H   UNL     1       5.132   3.125  19.734  0.00  0.00    +0.000 HD
ENDBRANCH  10  12
ENDBRANCH   9  10
BRANCH   9  14
ATOM     14  C   UNL     1       5.156   5.952  16.489  0.00  0.00    +0.000 C 
BRANCH  14  19
ATOM     15  C   UNL     1       5.520   3.967  13.469  0.00  0.00    +0.000 A 
ATOM     16  C   UNL     1       6.778   4.284  13.012  0.00  0.00    +0.000 A 
ATOM     17  C   UNL     1       7.506   5.134  13.814  0.00  0.00    +0.000 A 
ATOM     18  N   UNL     1       7.024   5.641  14.960  0.00  0.00    +0.000 NA
ATOM     19  C   UNL     1       5.777   5.288  15.297  0.00  0.00    +0.000 A 
ATOM     20  N   UNL     1       5.008   4.438  14.610  0.00  0.00    +0.000 NA
BRANCH  15  22
ATOM     21  C   UNL     1       5.508   2.475  11.666  0.00  0.00    +0.000 C 
ATOM     22  O   UNL     1       4.747   3.143  12.675  0.00  0.00    +0.000 OA
ENDBRANCH  15  22
BRANCH  17  23
ATOM     23  O   UNL     1       8.758   5.603  13.565  0.00  0.00    +0.000 OA
ATOM     24  C   UNL     1       8.980   6.236  12.318  0.00  0.00    +0.000 C 
ENDBRANCH  17  23
ENDBRANCH  14  19
ENDBRANCH   9  14
ENDBRANCH   1   9
BRANCH   1  25
ATOM     25  O   UNL     1       2.747   6.688  17.768  0.00  0.00    +0.000 OA
BRANCH  25  26
ATOM     26  C   UNL     1       2.183   7.721  18.476  0.00  0.00    +0.000 A 
ATOM     27  C   UNL     1       1.798   7.707  19.819  0.00  0.00    +0.000 A 
ATOM     28  C   UNL     1       1.261   8.827  20.440  0.00  0.00    +0.000 A 
ATOM     29  C   UNL     1       1.096  10.011  19.732  0.00  0.00    +0.000 A 
ATOM     30  C   UNL     1       1.440  10.034  18.376  0.00  0.00    +0.000 A 
ATOM     31  C   UNL     1       1.997   8.906  17.761  0.00  0.00    +0.000 A 
BRANCH  29  32
ATOM     32  S   UNL     1       0.387  11.384  20.618  0.00  0.00    +0.000 S 
ATOM     33  C   UNL     1       1.649  12.648  20.348  0.00  0.00    +0.000 C 
ENDBRANCH  29  32
ENDBRANCH  25  26
ENDBRANCH   1  25
TORSDOF 11
ENDMDL
MODEL 6
REMARK VINA RESULT:      -6.9      1.655      3.810
REMARK  Name = 
REMARK  15 active torsions:
REMARK  status: ('A' for Active; 'I' for Inactive)
REMARK    1  A    between atoms: C_1  and  O_2
REMARK    2  A    between atoms: O_2  and  C_3
REMARK    3  A    between atoms: C_5  and  O_6
REMARK    4  A    between atoms: O_6  and  C_7
REMARK    5  A    between atoms: C_9  and  C_10
REMARK    6  A    between atoms: C_10  and  C_11
REMARK    7  A    between atoms: C_11  and  C_12
REMARK    8  A    between atoms: C_11  and  C_15
REMARK    9  A    between atoms: C_12  and  O_14
REMARK   10  A    between atoms: C_15  and  C_16
REMARK   11  A    between atoms: C_15  and  O_17
REMARK   12  A    between atoms: C_15  and  C_26
REMARK   13  A    between atoms: O_17  and  C_18
REMARK   14  A    between atoms: C_21  and  S_22
REMARK   15  A    between atoms: S_22  and  C_23
REMARK                            x       y       z     vdW  Elec       q    Type
REMARK                         _______ _______ _______ _____ _____    ______ ____
ROOT
ATOM      1  C   UNL     1       4.020   5.382  18.093  0.00  0.00    +0.000 C 
ATOM      2  C   UNL     1       4.818   5.849  19.345  0.00  0.00    +0.000 C 
ENDROOT
BRANCH   1   3
ATOM      3  C   UNL     1       3.096   4.269  18.648  0.00  0.00    +0.000 A 
ATOM      4  C   UNL     1       3.344   3.602  19.859  0.00  0.00    +0.000 A 
ATOM      5  C   UNL     1       2.641   2.436  20.181  0.00  0.00    +0.000 A 
ATOM      6  C   UNL     1       1.674   1.929  19.314  0.00  0.00    +0.000 A 
ATOM      7  C   UNL     1       1.349   2.626  18.158  0.00  0.00    +0.000 A 
ATOM      8  C   UNL     1       2.021   3.809  17.851  0.00  0.00    +0.000 A 
ENDBRANCH   1   3
BRANCH   1   9
ATOM      9  C   UNL     1       5.072   4.963  17.002  0.00  0.00    +0.000 C 
BRANCH   9  10
ATOM     10  C   UNL     1       6.494   5.213  17.500  0.00  0.00    +0.000 C 
ATOM     11  O   UNL     1       7.059   6.295  17.503  0.00  0.00    +0.000 OA
BRANCH  10  12
ATOM     12  O   UNL     1       7.119   4.092  17.938  0.00  0.00    +0.000 OA
ATOM     13  H   UNL     1       6.541   3.300  17.957  0.00  0.00    +0.000 HD
ENDBRANCH  10  12
ENDBRANCH   9  10
BRANCH   9  14
ATOM     14  C   UNL     1       4.953   5.666  15.642  0.00  0.00    +0.000 C 
BRANCH  14  19
ATOM     15  C   UNL     1       5.899   3.571  12.829  0.00  0.00    +0.000 A 
ATOM     16  C   UNL     1       7.146   4.033  12.475  0.00  0.00    +0.000 A 
ATOM     17  C   UNL     1       7.664   5.024  13.278  0.00  0.00    +0.000 A 
ATOM     18  N   UNL     1       6.999   5.527  14.330  0.00  0.00    +0.000 NA
ATOM     19  C   UNL     1       5.781   5.024  14.569  0.00  0.00    +0.000 A 
ATOM     20  N   UNL     1       5.210   4.035  13.876  0.00  0.00    +0.000 NA
BRANCH  15  22
ATOM     21  C   UNL     1       4.188   3.072  11.312  0.00  0.00    +0.000 C 
ATOM     22  O   UNL     1       5.332   2.600  12.027  0.00  0.00    +0.000 OA
ENDBRANCH  15  22
BRANCH  17  23
ATOM     23  O   UNL     1       8.862   5.648  13.117  0.00  0.00    +0.000 OA
ATOM     24  C   UNL     1       8.966   6.600  12.074  0.00  0.00    +0.000 C 
ENDBRANCH  17  23
ENDBRANCH  14  19
ENDBRANCH   9  14
ENDBRANCH   1   9
BRANCH   1  25
ATOM     25  O   UNL     1       3.255   6.537  17.644  0.00  0.00    +0.000 OA
BRANCH  25  26
ATOM     26  C   UNL     1       2.534   7.341  18.492  0.00  0.00    +0.000 A 
ATOM     27  C   UNL     1       2.230   7.091  19.832  0.00  0.00    +0.000 A 
ATOM     28  C   UNL     1       1.513   7.996  20.604  0.00  0.00    +0.000 A 
ATOM     29  C   UNL     1       1.078   9.195  20.055  0.00  0.00    +0.000 A 
ATOM     30  C   UNL     1       1.339   9.448  18.704  0.00  0.00    +0.000 A 
ATOM     31  C   UNL     1       2.077   8.539  17.937  0.00  0.00    +0.000 A 
BRANCH  29  32
ATOM     32  S   UNL     1       0.156  10.280  21.126  0.00  0.00    +0.000 S 
ATOM     33  C   UNL     1      -0.286   9.144  22.459  0.00  0.00    +0.000 C 
ENDBRANCH  29  32
ENDBRANCH  25  26
ENDBRANCH   1  25
TORSDOF 11
ENDMDL
MODEL 7
REMARK VINA RESULT:      -6.7      1.719      3.777
REMARK  Name = 
REMARK  15 active torsions:
REMARK  status: ('A' for Active; 'I' for Inactive)
REMARK    1  A    between atoms: C_1  and  O_2
REMARK    2  A    between atoms: O_2  and  C_3
REMARK    3  A    between atoms: C_5  and  O_6
REMARK    4  A    between atoms: O_6  and  C_7
REMARK    5  A    between atoms: C_9  and  C_10
REMARK    6  A    between atoms: C_10  and  C_11
REMARK    7  A    between atoms: C_11  and  C_12
REMARK    8  A    between atoms: C_11  and  C_15
REMARK    9  A    between atoms: C_12  and  O_14
REMARK   10  A    between atoms: C_15  and  C_16
REMARK   11  A    between atoms: C_15  and  O_17
REMARK   12  A    between atoms: C_15  and  C_26
REMARK   13  A    between atoms: O_17  and  C_18
REMARK   14  A    between atoms: C_21  and  S_22
REMARK   15  A    between atoms: S_22  and  C_23
REMARK                            x       y       z     vdW  Elec       q    Type
REMARK                         _______ _______ _______ _____ _____    ______ ____
ROOT
ATOM      1  C   UNL     1       4.587   5.002  17.800  0.00  0.00    +0.000 C 
ATOM      2  C   UNL     1       5.457   5.389  19.031  0.00  0.00    +0.000 C 
ENDROOT
BRANCH   1   3
ATOM      3  C   UNL     1       3.740   3.812  18.317  0.00  0.00    +0.000 A 
ATOM      4  C   UNL     1       2.608   3.328  17.643  0.00  0.00    +0.000 A 
ATOM      5  C   UNL     1       1.732   2.441  18.278  0.00  0.00    +0.000 A 
ATOM      6  C   UNL     1       1.979   2.012  19.581  0.00  0.00    +0.000 A 
ATOM      7  C   UNL     1       3.143   2.405  20.229  0.00  0.00    +0.000 A 
ATOM      8  C   UNL     1       4.037   3.260  19.586  0.00  0.00    +0.000 A 
ENDBRANCH   1   3
BRANCH   1   9
ATOM      9  C   UNL     1       5.571   4.717  16.607  0.00  0.00    +0.000 C 
BRANCH   9  10
ATOM     10  C   UNL     1       6.990   5.154  16.962  0.00  0.00    +0.000 C 
ATOM     11  O   UNL     1       7.381   6.311  17.007  0.00  0.00    +0.000 OA
BRANCH  10  12
ATOM     12  O   UNL     1       7.828   4.119  17.216  0.00  0.00    +0.000 OA
ATOM     13  H   UNL     1       8.519   3.995  16.531  0.00  0.00    +0.000 HD
ENDBRANCH  10  12
ENDBRANCH   9  10
BRANCH   9  14
ATOM     14  C   UNL     1       5.226   5.390  15.270  0.00  0.00    +0.000 C 
BRANCH  14  19
ATOM     15  C   UNL     1       5.979   3.267  12.420  0.00  0.00    +0.000 A 
ATOM     16  C   UNL     1       7.087   3.852  11.853  0.00  0.00    +0.000 A 
ATOM     17  C   UNL     1       7.596   4.941  12.525  0.00  0.00    +0.000 A 
ATOM     18  N   UNL     1       7.044   5.420  13.652  0.00  0.00    +0.000 NA
ATOM     19  C   UNL     1       5.951   4.790  14.102  0.00  0.00    +0.000 A 
ATOM     20  N   UNL     1       5.408   3.704  13.546  0.00  0.00    +0.000 NA
BRANCH  15  22
ATOM     21  C   UNL     1       6.402   1.329  11.178  0.00  0.00    +0.000 C 
ATOM     22  O   UNL     1       5.420   2.193  11.755  0.00  0.00    +0.000 OA
ENDBRANCH  15  22
BRANCH  17  23
ATOM     23  O   UNL     1       8.667   5.692  12.152  0.00  0.00    +0.000 OA
ATOM     24  C   UNL     1       9.501   6.192  13.181  0.00  0.00    +0.000 C 
ENDBRANCH  17  23
ENDBRANCH  14  19
ENDBRANCH   9  14
ENDBRANCH   1   9
BRANCH   1  25
ATOM     25  O   UNL     1       3.756   6.162  17.508  0.00  0.00    +0.000 OA
BRANCH  25  26
ATOM     26  C   UNL     1       2.982   6.794  18.450  0.00  0.00    +0.000 A 
ATOM     27  C   UNL     1       2.578   6.282  19.686  0.00  0.00    +0.000 A 
ATOM     28  C   UNL     1       1.814   7.027  20.574  0.00  0.00    +0.000 A 
ATOM     29  C   UNL     1       1.430   8.323  20.254  0.00  0.00    +0.000 A 
ATOM     30  C   UNL     1       1.792   8.840  19.006  0.00  0.00    +0.000 A 
ATOM     31  C   UNL     1       2.578   8.089  18.122  0.00  0.00    +0.000 A 
BRANCH  29  32
ATOM     32  S   UNL     1       0.441   9.187  21.457  0.00  0.00    +0.000 S 
ATOM     33  C   UNL     1      -0.464  10.332  20.392  0.00  0.00    +0.000 C 
ENDBRANCH  29  32
ENDBRANCH  25  26
ENDBRANCH   1  25
TORSDOF 11
ENDMDL
MODEL 8
REMARK VINA RESULT:      -6.7      0.278      2.220
REMARK  Name = 
REMARK  15 active torsions:
REMARK  status: ('A' for Active; 'I' for Inactive)
REMARK    1  A    between atoms: C_1  and  O_2
REMARK    2  A    between atoms: O_2  and  C_3
REMARK    3  A    between atoms: C_5  and  O_6
REMARK    4  A    between atoms: O_6  and  C_7
REMARK    5  A    between atoms: C_9  and  C_10
REMARK    6  A    between atoms: C_10  and  C_11
REMARK    7  A    between atoms: C_11  and  C_12
REMARK    8  A    between atoms: C_11  and  C_15
REMARK    9  A    between atoms: C_12  and  O_14
REMARK   10  A    between atoms: C_15  and  C_16
REMARK   11  A    between atoms: C_15  and  O_17
REMARK   12  A    between atoms: C_15  and  C_26
REMARK   13  A    between atoms: O_17  and  C_18
REMARK   14  A    between atoms: C_21  and  S_22
REMARK   15  A    between atoms: S_22  and  C_23
REMARK                            x       y       z     vdW  Elec       q    Type
REMARK                         _______ _______ _______ _____ _____    ______ ____
ROOT
ATOM      1  C   UNL     1       4.412   5.806  17.232  0.00  0.00    +0.000 C 
ATOM      2  C   UNL     1       4.122   6.977  16.249  0.00  0.00    +0.000 C 
ENDROOT
BRANCH   1   3
ATOM      3  C   UNL     1       5.712   6.250  17.949  0.00  0.00    +0.000 A 
ATOM      4  C   UNL     1       6.545   7.269  17.461  0.00  0.00    +0.000 A 
ATOM      5  C   UNL     1       7.828   7.448  17.990  0.00  0.00    +0.000 A 
ATOM      6  C   UNL     1       8.290   6.630  19.019  0.00  0.00    +0.000 A 
ATOM      7  C   UNL     1       7.447   5.679  19.579  0.00  0.00    +0.000 A 
ATOM      8  C   UNL     1       6.154   5.522  19.079  0.00  0.00    +0.000 A 
ENDBRANCH   1   3
BRANCH   1   9
ATOM      9  C   UNL     1       4.479   4.488  16.377  0.00  0.00    +0.000 C 
BRANCH   9  10
ATOM     10  C   UNL     1       3.644   3.384  17.021  0.00  0.00    +0.000 C 
ATOM     11  O   UNL     1       2.488   3.115  16.732  0.00  0.00    +0.000 OA
BRANCH  10  12
ATOM     12  O   UNL     1       4.300   2.706  17.994  0.00  0.00    +0.000 OA
ATOM     13  H   UNL     1       5.163   3.104  18.239  0.00  0.00    +0.000 HD
ENDBRANCH  10  12
ENDBRANCH   9  10
BRANCH   9  14
ATOM     14  C   UNL     1       5.880   3.901  16.148  0.00  0.00    +0.000 C 
BRANCH  14  19
ATOM     15  C   UNL     1       5.993   3.363  12.557  0.00  0.00    +0.000 A 
ATOM     16  C   UNL     1       6.924   4.273  12.114  0.00  0.00    +0.000 A 
ATOM     17  C   UNL     1       7.551   5.010  13.093  0.00  0.00    +0.000 A 
ATOM     18  N   UNL     1       7.267   4.871  14.399  0.00  0.00    +0.000 NA
ATOM     19  C   UNL     1       6.324   3.974  14.717  0.00  0.00    +0.000 A 
ATOM     20  N   UNL     1       5.692   3.183  13.847  0.00  0.00    +0.000 NA
BRANCH  15  22
ATOM     21  C   UNL     1       6.008   1.431  11.236  0.00  0.00    +0.000 C 
ATOM     22  O   UNL     1       5.319   2.629  11.600  0.00  0.00    +0.000 OA
ENDBRANCH  15  22
BRANCH  17  23
ATOM     23  O   UNL     1       8.487   5.978  12.901  0.00  0.00    +0.000 OA
ATOM     24  C   UNL     1       8.506   6.624  11.641  0.00  0.00    +0.000 C 
ENDBRANCH  17  23
ENDBRANCH  14  19
ENDBRANCH   9  14
ENDBRANCH   1   9
BRANCH   1  25
ATOM     25  O   UNL     1       3.284   5.759  18.152  0.00  0.00    +0.000 OA
BRANCH  25  26
ATOM     26  C   UNL     1       2.646   6.879  18.624  0.00  0.00    +0.000 A 
ATOM     27  C   UNL     1       2.328   7.168  19.953  0.00  0.00    +0.000 A 
ATOM     28  C   UNL     1       1.703   8.353  20.318  0.00  0.00    +0.000 A 
ATOM     29  C   UNL     1       1.379   9.300  19.355  0.00  0.00    +0.000 A 
ATOM     30  C   UNL     1       1.654   9.014  18.014  0.00  0.00    +0.000 A 
ATOM     31  C   UNL     1       2.300   7.824  17.656  0.00  0.00    +0.000 A 
BRANCH  29  32
ATOM     32  S   UNL     1       0.568  10.780  19.927  0.00  0.00    +0.000 S 
ATOM     33  C   UNL     1      -0.339  10.141  21.352  0.00  0.00    +0.000 C 
ENDBRANCH  29  32
ENDBRANCH  25  26
ENDBRANCH   1  25
TORSDOF 11
ENDMDL
MODEL 9
REMARK VINA RESULT:      -6.7      4.303      8.020
REMARK  Name = 
REMARK  15 active torsions:
REMARK  status: ('A' for Active; 'I' for Inactive)
REMARK    1  A    between atoms: C_1  and  O_2
REMARK    2  A    between atoms: O_2  and  C_3
REMARK    3  A    between atoms: C_5  and  O_6
REMARK    4  A    between atoms: O_6  and  C_7
REMARK    5  A    between atoms: C_9  and  C_10
REMARK    6  A    between atoms: C_10  and  C_11
REMARK    7  A    between atoms: C_11  and  C_12
REMARK    8  A    between atoms: C_11  and  C_15
REMARK    9  A    between atoms: C_12  and  O_14
REMARK   10  A    between atoms: C_15  and  C_16
REMARK   11  A    between atoms: C_15  and  O_17
REMARK   12  A    between atoms: C_15  and  C_26
REMARK   13  A    between atoms: O_17  and  C_18
REMARK   14  A    between atoms: C_21  and  S_22
REMARK   15  A    between atoms: S_22  and  C_23
REMARK                            x       y       z     vdW  Elec       q    Type
REMARK                         _______ _______ _______ _____ _____    ______ ____
ROOT
ATOM      1  C   UNL     1       0.038  10.906  19.119  0.00  0.00    +0.000 C 
ATOM      2  C   UNL     1      -0.157  12.436  18.908  0.00  0.00    +0.000 C 
ENDROOT
BRANCH   1   3
ATOM      3  C   UNL     1      -0.419  10.684  20.583  0.00  0.00    +0.000 A 
ATOM      4  C   UNL     1      -0.763  11.737  21.446  0.00  0.00    +0.000 A 
ATOM      5  C   UNL     1      -0.908  11.508  22.819  0.00  0.00    +0.000 A 
ATOM      6  C   UNL     1      -0.730  10.231  23.347  0.00  0.00    +0.000 A 
ATOM      7  C   UNL     1      -0.483   9.159  22.498  0.00  0.00    +0.000 A 
ATOM      8  C   UNL     1      -0.375   9.377  21.125  0.00  0.00    +0.000 A 
ENDBRANCH   1   3
BRANCH   1   9
ATOM      9  C   UNL     1       1.538  10.578  18.779  0.00  0.00    +0.000 C 
BRANCH   9  10
ATOM     10  C   UNL     1       2.285  11.842  18.361  0.00  0.00    +0.000 C 
ATOM     11  O   UNL     1       2.503  12.803  19.082  0.00  0.00    +0.000 OA
BRANCH  10  12
ATOM     12  O   UNL     1       2.690  11.828  17.067  0.00  0.00    +0.000 OA
ATOM     13  H   UNL     1       2.985  10.946  16.755  0.00  0.00    +0.000 HD
ENDBRANCH  10  12
ENDBRANCH   9  10
BRANCH   9  14
ATOM     14  C   UNL     1       1.769   9.543  17.668  0.00  0.00    +0.000 C 
BRANCH  14  19
ATOM     15  C   UNL     1       2.446   6.555  19.619  0.00  0.00    +0.000 A 
ATOM     16  C   UNL     1       3.428   5.907  18.906  0.00  0.00    +0.000 A 
ATOM     17  C   UNL     1       3.887   6.569  17.790  0.00  0.00    +0.000 A 
ATOM     18  N   UNL     1       3.405   7.761  17.402  0.00  0.00    +0.000 NA
ATOM     19  C   UNL     1       2.431   8.289  18.155  0.00  0.00    +0.000 A 
ATOM     20  N   UNL     1       1.948   7.747  19.276  0.00  0.00    +0.000 NA
BRANCH  15  22
ATOM     21  C   UNL     1       1.348   4.643  20.406  0.00  0.00    +0.000 C 
ATOM     22  O   UNL     1       1.935   5.906  20.727  0.00  0.00    +0.000 OA
ENDBRANCH  15  22
BRANCH  17  23
ATOM     23  O   UNL     1       4.834   6.123  16.920  0.00  0.00    +0.000 OA
ATOM     24  C   UNL     1       6.161   6.580  17.113  0.00  0.00    +0.000 C 
ENDBRANCH  17  23
ENDBRANCH  14  19
ENDBRANCH   9  14
ENDBRANCH   1   9
BRANCH   1  25
ATOM     25  O   UNL     1      -0.853  10.248  18.175  0.00  0.00    +0.000 OA
BRANCH  25  26
ATOM     26  C   UNL     1      -2.081  10.749  17.820  0.00  0.00    +0.000 A 
ATOM     27  C   UNL     1      -2.599  10.867  16.528  0.00  0.00    +0.000 A 
ATOM     28  C   UNL     1      -3.873  11.366  16.290  0.00  0.00    +0.000 A 
ATOM     29  C   UNL     1      -4.680  11.761  17.349  0.00  0.00    +0.000 A 
ATOM     30  C   UNL     1      -4.166  11.686  18.647  0.00  0.00    +0.000 A 
ATOM     31  C   UNL     1      -2.888  11.166  18.881  0.00  0.00    +0.000 A 
BRANCH  29  32
ATOM     32  S   UNL     1      -6.291  12.399  16.935  0.00  0.00    +0.000 S 
ATOM     33  C   UNL     1      -7.203  12.024  18.448  0.00  0.00    +0.000 C 
ENDBRANCH  29  32
ENDBRANCH  25  26
ENDBRANCH   1  25
TORSDOF 11
ENDMDL
