MODEL 1
REMARK VINA RESULT:      -6.9      0.000      0.000
REMARK  Name = 
REMARK  6 active torsions:
REMARK  status: ('A' for Active; 'I' for Inactive)
REMARK    1  A    between atoms: C_1  and  S_2
REMARK    2  A    between atoms: S_2  and  N_3
REMARK    3  A    between atoms: C_6  and  C_7
REMARK    4  A    between atoms: C_13  and  O_15
REMARK    5  A    between atoms: O_15  and  C_16
REMARK    6  A    between atoms: C_16  and  C_17
REMARK                            x       y       z     vdW  Elec       q    Type
REMARK                         _______ _______ _______ _____ _____    ______ ____
ROOT
ATOM      1  N   UNL     1      -0.791  11.491  21.430  0.00  0.00    +0.000 N 
ATOM      2  C   UNL     1      -0.328  10.550  22.372  0.00  0.00    +0.000 C 
ATOM      3  O   UNL     1      -0.687  10.435  23.538  0.00  0.00    +0.000 OA
ATOM      4  C   UNL     1       0.728   9.642  21.696  0.00  0.00    +0.000 C 
ATOM      5  C   UNL     1       0.219   8.219  21.669  0.00  0.00    +0.000 C 
ATOM      6  C   UNL     1       0.986  10.451  20.430  0.00  0.00    +0.000 C 
ATOM      7  C   UNL     1      -0.345  11.119  20.130  0.00  0.00    +0.000 C 
ATOM      8  C   UNL     1       0.093  12.160  19.107  0.00  0.00    +0.000 C 
ATOM      9  C   UNL     1       1.157  11.386  18.295  0.00  0.00    +0.000 C 
ATOM     10  N   UNL     1       1.477  10.198  19.097  0.00  0.00    +0.000 N 
ATOM     11  C   UNL     1       1.880   9.054  18.447  0.00  0.00    +0.000 C 
ATOM     12  O   UNL     1       2.168   9.046  17.258  0.00  0.00    +0.000 OA
ENDROOT
BRANCH   1  14
ATOM     13  C   UNL     1      -1.484  13.809  22.566  0.00  0.00    +0.000 C 
ATOM     14  S   UNL     1      -2.187  12.416  21.648  0.00  0.00    +0.000 S 
ENDBRANCH   1  14
BRANCH  11  15
ATOM     15  O   UNL     1       1.831   7.949  19.219  0.00  0.00    +0.000 OA
BRANCH  15  16
ATOM     16  C   UNL     1       2.710   6.886  18.812  0.00  0.00    +0.000 C 
BRANCH  16  17
ATOM     17  C   UNL     1       2.129   5.525  19.093  0.00  0.00    +0.000 A 
ATOM     18  C   UNL     1       1.793   5.148  20.401  0.00  0.00    +0.000 A 
ATOM     19  C   UNL     1       1.220   3.900  20.654  0.00  0.00    +0.000 A 
ATOM     20  C   UNL     1       0.982   3.014  19.604  0.00  0.00    +0.000 A 
ATOM     21  C   UNL     1       1.313   3.378  18.299  0.00  0.00    +0.000 A 
ATOM     22  C   UNL     1       1.888   4.626  18.045  0.00  0.00    +0.000 A 
ENDBRANCH  16  17
ENDBRANCH  15  16
ENDBRANCH  11  15
TORSDOF 4
ENDMDL
MODEL 2
REMARK VINA RESULT:      -6.9      3.720      5.983
REMARK  Name = 
REMARK  6 active torsions:
REMARK  status: ('A' for Active; 'I' for Inactive)
REMARK    1  A    between atoms: C_1  and  S_2
REMARK    2  A    between atoms: S_2  and  N_3
REMARK    3  A    between atoms: C_6  and  C_7
REMARK    4  A    between atoms: C_13  and  O_15
REMARK    5  A    between atoms: O_15  and  C_16
REMARK    6  A    between atoms: C_16  and  C_17
REMARK                            x       y       z     vdW  Elec       q    Type
REMARK                         _______ _______ _______ _____ _____    ______ ____
ROOT
ATOM      1  N   UNL     1       1.705   7.493  20.091  0.00  0.00    +0.000 N 
ATOM      2  C   UNL     1       1.904   8.154  18.862  0.00  0.00    +0.000 C 
ATOM      3  O   UNL     1       1.743   9.347  18.631  0.00  0.00    +0.000 OA
ATOM      4  C   UNL     1       2.383   7.124  17.810  0.00  0.00    +0.000 C 
ATOM      5  C   UNL     1       3.778   7.488  17.354  0.00  0.00    +0.000 C 
ATOM      6  C   UNL     1       2.070   5.833  18.558  0.00  0.00    +0.000 C 
ATOM      7  C   UNL     1       2.266   6.186  20.023  0.00  0.00    +0.000 C 
ATOM      8  C   UNL     1       1.592   4.992  20.687  0.00  0.00    +0.000 C 
ATOM      9  C   UNL     1       2.010   3.828  19.758  0.00  0.00    +0.000 C 
ATOM     10  N   UNL     1       2.526   4.465  18.538  0.00  0.00    +0.000 N 
ATOM     11  C   UNL     1       3.492   3.808  17.812  0.00  0.00    +0.000 C 
ATOM     12  O   UNL     1       3.795   2.642  18.031  0.00  0.00    +0.000 OA
ENDROOT
BRANCH   1  14
ATOM     13  C   UNL     1      -0.252   8.573  21.556  0.00  0.00    +0.000 C 
ATOM     14  S   UNL     1       1.537   8.301  21.564  0.00  0.00    +0.000 S 
ENDBRANCH   1  14
BRANCH  11  15
ATOM     15  O   UNL     1       4.126   4.596  16.919  0.00  0.00    +0.000 OA
BRANCH  15  16
ATOM     16  C   UNL     1       5.503   4.258  16.683  0.00  0.00    +0.000 C 
BRANCH  16  17
ATOM     17  C   UNL     1       6.450   5.207  17.370  0.00  0.00    +0.000 A 
ATOM     18  C   UNL     1       6.852   6.395  16.742  0.00  0.00    +0.000 A 
ATOM     19  C   UNL     1       7.701   7.290  17.396  0.00  0.00    +0.000 A 
ATOM     20  C   UNL     1       8.160   7.007  18.681  0.00  0.00    +0.000 A 
ATOM     21  C   UNL     1       7.768   5.828  19.315  0.00  0.00    +0.000 A 
ATOM     22  C   UNL     1       6.920   4.930  18.661  0.00  0.00    +0.000 A 
ENDBRANCH  16  17
ENDBRANCH  15  16
ENDBRANCH  11  15
TORSDOF 4
ENDMDL
MODEL 3
REMARK VINA RESULT:      -6.8      0.253      1.056
REMARK  Name = 
REMARK  6 active torsions:
REMARK  status: ('A' for Active; 'I' for Inactive)
REMARK    1  A    between atoms: C_1  and  S_2
REMARK    2  A    between atoms: S_2  and  N_3
REMARK    3  A    between atoms: C_6  and  C_7
REMARK    4  A    between atoms: C_13  and  O_15
REMARK    5  A    between atoms: O_15  and  C_16
REMARK    6  A    between atoms: C_16  and  C_17
REMARK                            x       y       z     vdW  Elec       q    Type
REMARK                         _______ _______ _______ _____ _____    ______ ____
ROOT
ATOM      1  N   UNL     1      -0.919  11.693  21.291  0.00  0.00    +0.000 N 
ATOM      2  C   UNL     1      -0.547  10.778  22.297  0.00  0.00    +0.000 C 
ATOM      3  O   UNL     1      -0.971  10.730  23.445  0.00  0.00    +0.000 OA
ATOM      4  C   UNL     1       0.506   9.800  21.720  0.00  0.00    +0.000 C 
ATOM      5  C   UNL     1      -0.060   8.398  21.726  0.00  0.00    +0.000 C 
ATOM      6  C   UNL     1       0.864  10.540  20.436  0.00  0.00    +0.000 C 
ATOM      7  C   UNL     1      -0.421  11.246  20.035  0.00  0.00    +0.000 C 
ATOM      8  C   UNL     1       0.114  12.222  18.994  0.00  0.00    +0.000 C 
ATOM      9  C   UNL     1       1.186  11.370  18.275  0.00  0.00    +0.000 C 
ATOM     10  N   UNL     1       1.414  10.208  19.145  0.00  0.00    +0.000 N 
ATOM     11  C   UNL     1       1.804   9.021  18.568  0.00  0.00    +0.000 C 
ATOM     12  O   UNL     1       2.153   8.948  17.397  0.00  0.00    +0.000 OA
ENDROOT
BRANCH   1  14
ATOM     13  C   UNL     1      -1.579  14.078  22.300  0.00  0.00    +0.000 C 
ATOM     14  S   UNL     1      -2.285  12.680  21.393  0.00  0.00    +0.000 S 
ENDBRANCH   1  14
BRANCH  11  15
ATOM     15  O   UNL     1       1.667   7.955  19.382  0.00  0.00    +0.000 OA
BRANCH  15  16
ATOM     16  C   UNL     1       2.659   6.928  19.207  0.00  0.00    +0.000 C 
BRANCH  16  17
ATOM     17  C   UNL     1       2.068   5.545  19.279  0.00  0.00    +0.000 A 
ATOM     18  C   UNL     1       1.932   4.764  18.123  0.00  0.00    +0.000 A 
ATOM     19  C   UNL     1       1.417   3.468  18.198  0.00  0.00    +0.000 A 
ATOM     20  C   UNL     1       1.028   2.941  19.428  0.00  0.00    +0.000 A 
ATOM     21  C   UNL     1       1.156   3.708  20.585  0.00  0.00    +0.000 A 
ATOM     22  C   UNL     1       1.670   5.006  20.511  0.00  0.00    +0.000 A 
ENDBRANCH  16  17
ENDBRANCH  15  16
ENDBRANCH  11  15
TORSDOF 4
ENDMDL
MODEL 4
REMARK VINA RESULT:      -6.8      3.707      5.895
REMARK  Name = 
REMARK  6 active torsions:
REMARK  status: ('A' for Active; 'I' for Inactive)
REMARK    1  A    between atoms: C_1  and  S_2
REMARK    2  A    between atoms: S_2  and  N_3
REMARK    3  A    between atoms: C_6  and  C_7
REMARK    4  A    between atoms: C_13  and  O_15
REMARK    5  A    between atoms: O_15  and  C_16
REMARK    6  A    between atoms: C_16  and  C_17
REMARK                            x       y       z     vdW  Elec       q    Type
REMARK                         _______ _______ _______ _____ _____    ______ ____
ROOT
ATOM      1  N   UNL     1       1.658   7.514  20.122  0.00  0.00    +0.000 N 
ATOM      2  C   UNL     1       1.837   8.184  18.896  0.00  0.00    +0.000 C 
ATOM      3  O   UNL     1       1.658   9.376  18.672  0.00  0.00    +0.000 OA
ATOM      4  C   UNL     1       2.322   7.166  17.834  0.00  0.00    +0.000 C 
ATOM      5  C   UNL     1       3.708   7.552  17.369  0.00  0.00    +0.000 C 
ATOM      6  C   UNL     1       2.032   5.867  18.578  0.00  0.00    +0.000 C 
ATOM      7  C   UNL     1       2.236   6.216  20.043  0.00  0.00    +0.000 C 
ATOM      8  C   UNL     1       1.584   5.009  20.706  0.00  0.00    +0.000 C 
ATOM      9  C   UNL     1       2.011   3.856  19.768  0.00  0.00    +0.000 C 
ATOM     10  N   UNL     1       2.507   4.505  18.547  0.00  0.00    +0.000 N 
ATOM     11  C   UNL     1       3.476   3.866  17.810  0.00  0.00    +0.000 C 
ATOM     12  O   UNL     1       3.797   2.703  18.021  0.00  0.00    +0.000 OA
ENDROOT
BRANCH   1  14
ATOM     13  C   UNL     1      -0.270   8.724  21.524  0.00  0.00    +0.000 C 
ATOM     14  S   UNL     1       1.491   8.312  21.602  0.00  0.00    +0.000 S 
ENDBRANCH   1  14
BRANCH  11  15
ATOM     15  O   UNL     1       4.092   4.667  16.916  0.00  0.00    +0.000 OA
BRANCH  15  16
ATOM     16  C   UNL     1       5.472   4.349  16.666  0.00  0.00    +0.000 C 
BRANCH  16  17
ATOM     17  C   UNL     1       6.412   5.289  17.374  0.00  0.00    +0.000 A 
ATOM     18  C   UNL     1       6.940   4.959  18.630  0.00  0.00    +0.000 A 
ATOM     19  C   UNL     1       7.840   5.815  19.268  0.00  0.00    +0.000 A 
ATOM     20  C   UNL     1       8.216   7.012  18.661  0.00  0.00    +0.000 A 
ATOM     21  C   UNL     1       7.696   7.352  17.413  0.00  0.00    +0.000 A 
ATOM     22  C   UNL     1       6.794   6.497  16.774  0.00  0.00    +0.000 A 
ENDBRANCH  16  17
ENDBRANCH  15  16
ENDBRANCH  11  15
TORSDOF 4
ENDMDL
MODEL 5
REMARK VINA RESULT:      -6.4      5.256      7.545
REMARK  Name = 
REMARK  6 active torsions:
REMARK  status: ('A' for Active; 'I' for Inactive)
REMARK    1  A    between atoms: C_1  and  S_2
REMARK    2  A    between atoms: S_2  and  N_3
REMARK    3  A    between atoms: C_6  and  C_7
REMARK    4  A    between atoms: C_13  and  O_15
REMARK    5  A    between atoms: O_15  and  C_16
REMARK    6  A    between atoms: C_16  and  C_17
REMARK                            x       y       z     vdW  Elec       q    Type
REMARK                         _______ _______ _______ _____ _____    ______ ____
ROOT
ATOM      1  N   UNL     1       2.452   4.381  19.799  0.00  0.00    +0.000 N 
ATOM      2  C   UNL     1       3.557   3.526  19.980  0.00  0.00    +0.000 C 
ATOM      3  O   UNL     1       3.617   2.539  20.704  0.00  0.00    +0.000 OA
ATOM      4  C   UNL     1       4.725   4.023  19.093  0.00  0.00    +0.000 C 
ATOM      5  C   UNL     1       5.052   2.968  18.061  0.00  0.00    +0.000 C 
ATOM      6  C   UNL     1       4.193   5.403  18.722  0.00  0.00    +0.000 C 
ATOM      7  C   UNL     1       2.685   5.228  18.680  0.00  0.00    +0.000 C 
ATOM      8  C   UNL     1       2.239   6.685  18.673  0.00  0.00    +0.000 C 
ATOM      9  C   UNL     1       3.308   7.345  17.771  0.00  0.00    +0.000 C 
ATOM     10  N   UNL     1       4.393   6.361  17.663  0.00  0.00    +0.000 N 
ATOM     11  C   UNL     1       5.160   6.351  16.521  0.00  0.00    +0.000 C 
ATOM     12  O   UNL     1       5.101   7.245  15.686  0.00  0.00    +0.000 OA
ENDROOT
BRANCH   1  14
ATOM     13  C   UNL     1       0.509   2.682  19.101  0.00  0.00    +0.000 C 
ATOM     14  S   UNL     1       0.885   3.991  20.295  0.00  0.00    +0.000 S 
ENDBRANCH   1  14
BRANCH  11  15
ATOM     15  O   UNL     1       5.893   5.229  16.373  0.00  0.00    +0.000 OA
BRANCH  15  16
ATOM     16  C   UNL     1       7.054   5.369  15.536  0.00  0.00    +0.000 C 
BRANCH  16  17
ATOM     17  C   UNL     1       6.861   4.739  14.181  0.00  0.00    +0.000 A 
ATOM     18  C   UNL     1       5.793   3.861  13.948  0.00  0.00    +0.000 A 
ATOM     19  C   UNL     1       5.595   3.306  12.682  0.00  0.00    +0.000 A 
ATOM     20  C   UNL     1       6.465   3.618  11.638  0.00  0.00    +0.000 A 
ATOM     21  C   UNL     1       7.532   4.488  11.859  0.00  0.00    +0.000 A 
ATOM     22  C   UNL     1       7.732   5.043  13.126  0.00  0.00    +0.000 A 
ENDBRANCH  16  17
ENDBRANCH  15  16
ENDBRANCH  11  15
TORSDOF 4
ENDMDL
MODEL 6
REMARK VINA RESULT:      -6.4      3.793      5.955
REMARK  Name = 
REMARK  6 active torsions:
REMARK  status: ('A' for Active; 'I' for Inactive)
REMARK    1  A    between atoms: C_1  and  S_2
REMARK    2  A    between atoms: S_2  and  N_3
REMARK    3  A    between atoms: C_6  and  C_7
REMARK    4  A    between atoms: C_13  and  O_15
REMARK    5  A    between atoms: O_15  and  C_16
REMARK    6  A    between atoms: C_16  and  C_17
REMARK                            x       y       z     vdW  Elec       q    Type
REMARK                         _______ _______ _______ _____ _____    ______ ____
ROOT
ATOM      1  N   UNL     1       1.698   8.189  19.437  0.00  0.00    +0.000 N 
ATOM      2  C   UNL     1       2.172   8.283  18.114  0.00  0.00    +0.000 C 
ATOM      3  O   UNL     1       2.122   9.263  17.380  0.00  0.00    +0.000 OA
ATOM      4  C   UNL     1       2.797   6.926  17.707  0.00  0.00    +0.000 C 
ATOM      5  C   UNL     1       4.271   7.117  17.434  0.00  0.00    +0.000 C 
ATOM      6  C   UNL     1       2.274   6.055  18.844  0.00  0.00    +0.000 C 
ATOM      7  C   UNL     1       2.192   6.995  20.034  0.00  0.00    +0.000 C 
ATOM      8  C   UNL     1       1.338   6.163  20.984  0.00  0.00    +0.000 C 
ATOM      9  C   UNL     1       1.872   4.734  20.729  0.00  0.00    +0.000 C 
ATOM     10  N   UNL     1       2.652   4.821  19.488  0.00  0.00    +0.000 N 
ATOM     11  C   UNL     1       3.709   3.957  19.313  0.00  0.00    +0.000 C 
ATOM     12  O   UNL     1       3.901   3.002  20.054  0.00  0.00    +0.000 OA
ENDROOT
BRANCH   1  14
ATOM     13  C   UNL     1      -0.351   9.888  19.678  0.00  0.00    +0.000 C 
ATOM     14  S   UNL     1       1.282   9.531  20.373  0.00  0.00    +0.000 S 
ENDBRANCH   1  14
BRANCH  11  15
ATOM     15  O   UNL     1       4.548   4.323  18.322  0.00  0.00    +0.000 OA
BRANCH  15  16
ATOM     16  C   UNL     1       4.540   3.460  17.172  0.00  0.00    +0.000 C 
BRANCH  16  17
ATOM     17  C   UNL     1       5.481   3.936  16.096  0.00  0.00    +0.000 A 
ATOM     18  C   UNL     1       5.149   3.790  14.741  0.00  0.00    +0.000 A 
ATOM     19  C   UNL     1       6.006   4.265  13.746  0.00  0.00    +0.000 A 
ATOM     20  C   UNL     1       7.205   4.885  14.094  0.00  0.00    +0.000 A 
ATOM     21  C   UNL     1       7.546   5.034  15.437  0.00  0.00    +0.000 A 
ATOM     22  C   UNL     1       6.691   4.558  16.434  0.00  0.00    +0.000 A 
ENDBRANCH  16  17
ENDBRANCH  15  16
ENDBRANCH  11  15
TORSDOF 4
ENDMDL
MODEL 7
REMARK VINA RESULT:      -6.4      4.265      6.273
REMARK  Name = 
REMARK  6 active torsions:
REMARK  status: ('A' for Active; 'I' for Inactive)
REMARK    1  A    between atoms: C_1  and  S_2
REMARK    2  A    between atoms: S_2  and  N_3
REMARK    3  A    between atoms: C_6  and  C_7
REMARK    4  A    between atoms: C_13  and  O_15
REMARK    5  A    between atoms: O_15  and  C_16
REMARK    6  A    between atoms: C_16  and  C_17
REMARK                            x       y       z     vdW  Elec       q    Type
REMARK                         _______ _______ _______ _____ _____    ______ ____
ROOT
ATOM      1  N   UNL     1       1.787   7.615  19.948  0.00  0.00    +0.000 N 
ATOM      2  C   UNL     1       2.047   8.260  18.722  0.00  0.00    +0.000 C 
ATOM      3  O   UNL     1       1.905   9.451  18.469  0.00  0.00    +0.000 OA
ATOM      4  C   UNL     1       2.569   7.215  17.706  0.00  0.00    +0.000 C 
ATOM      5  C   UNL     1       3.986   7.566  17.312  0.00  0.00    +0.000 C 
ATOM      6  C   UNL     1       2.213   5.935  18.453  0.00  0.00    +0.000 C 
ATOM      7  C   UNL     1       2.342   6.304  19.921  0.00  0.00    +0.000 C 
ATOM      8  C   UNL     1       1.631   5.122  20.567  0.00  0.00    +0.000 C 
ATOM      9  C   UNL     1       2.085   3.945  19.673  0.00  0.00    +0.000 C 
ATOM     10  N   UNL     1       2.661   4.564  18.471  0.00  0.00    +0.000 N 
ATOM     11  C   UNL     1       3.656   3.893  17.799  0.00  0.00    +0.000 C 
ATOM     12  O   UNL     1       3.941   2.728  18.045  0.00  0.00    +0.000 OA
ENDROOT
BRANCH   1  14
ATOM     13  C   UNL     1      -0.254   8.499  21.430  0.00  0.00    +0.000 C 
ATOM     14  S   UNL     1       1.556   8.441  21.402  0.00  0.00    +0.000 S 
ENDBRANCH   1  14
BRANCH  11  15
ATOM     15  O   UNL     1       4.336   4.667  16.928  0.00  0.00    +0.000 OA
BRANCH  15  16
ATOM     16  C   UNL     1       5.711   4.295  16.731  0.00  0.00    +0.000 C 
BRANCH  16  17
ATOM     17  C   UNL     1       6.109   4.329  15.279  0.00  0.00    +0.000 A 
ATOM     18  C   UNL     1       7.258   5.021  14.869  0.00  0.00    +0.000 A 
ATOM     19  C   UNL     1       7.645   5.021  13.527  0.00  0.00    +0.000 A 
ATOM     20  C   UNL     1       6.887   4.333  12.581  0.00  0.00    +0.000 A 
ATOM     21  C   UNL     1       5.742   3.643  12.976  0.00  0.00    +0.000 A 
ATOM     22  C   UNL     1       5.352   3.644  14.318  0.00  0.00    +0.000 A 
ENDBRANCH  16  17
ENDBRANCH  15  16
ENDBRANCH  11  15
TORSDOF 4
ENDMDL
MODEL 8
REMARK VINA RESULT:      -6.4      3.679      5.714
REMARK  Name = 
REMARK  6 active torsions:
REMARK  status: ('A' for Active; 'I' for Inactive)
REMARK    1  A    between atoms: C_1  and  S_2
REMARK    2  A    between atoms: S_2  and  N_3
REMARK    3  A    between atoms: C_6  and  C_7
REMARK    4  A    between atoms: C_13  and  O_15
REMARK    5  A    between atoms: O_15  and  C_16
REMARK    6  A    between atoms: C_16  and  C_17
REMARK                            x       y       z     vdW  Elec       q    Type
REMARK                         _______ _______ _______ _____ _____    ______ ____
ROOT
ATOM      1  N   UNL     1       1.626   8.475  19.411  0.00  0.00    +0.000 N 
ATOM      2  C   UNL     1       2.105   8.532  18.087  0.00  0.00    +0.000 C 
ATOM      3  O   UNL     1       2.073   9.496  17.331  0.00  0.00    +0.000 OA
ATOM      4  C   UNL     1       2.709   7.156  17.713  0.00  0.00    +0.000 C 
ATOM      5  C   UNL     1       4.188   7.318  17.441  0.00  0.00    +0.000 C 
ATOM      6  C   UNL     1       2.168   6.319  18.867  0.00  0.00    +0.000 C 
ATOM      7  C   UNL     1       2.098   7.287  20.036  0.00  0.00    +0.000 C 
ATOM      8  C   UNL     1       1.228   6.491  21.001  0.00  0.00    +0.000 C 
ATOM      9  C   UNL     1       1.740   5.048  20.780  0.00  0.00    +0.000 C 
ATOM     10  N   UNL     1       2.525   5.095  19.540  0.00  0.00    +0.000 N 
ATOM     11  C   UNL     1       3.568   4.210  19.388  0.00  0.00    +0.000 C 
ATOM     12  O   UNL     1       3.742   3.268  20.151  0.00  0.00    +0.000 OA
ENDROOT
BRANCH   1  14
ATOM     13  C   UNL     1      -0.466  10.108  19.734  0.00  0.00    +0.000 C 
ATOM     14  S   UNL     1       1.228   9.845  20.315  0.00  0.00    +0.000 S 
ENDBRANCH   1  14
BRANCH  11  15
ATOM     15  O   UNL     1       4.416   4.540  18.393  0.00  0.00    +0.000 OA
BRANCH  15  16
ATOM     16  C   UNL     1       4.448   3.615  17.292  0.00  0.00    +0.000 C 
BRANCH  16  17
ATOM     17  C   UNL     1       5.403   4.048  16.210  0.00  0.00    +0.000 A 
ATOM     18  C   UNL     1       6.637   4.627  16.537  0.00  0.00    +0.000 A 
ATOM     19  C   UNL     1       7.536   4.994  15.533  0.00  0.00    +0.000 A 
ATOM     20  C   UNL     1       7.209   4.790  14.194  0.00  0.00    +0.000 A 
ATOM     21  C   UNL     1       5.984   4.217  13.857  0.00  0.00    +0.000 A 
ATOM     22  C   UNL     1       5.082   3.851  14.860  0.00  0.00    +0.000 A 
ENDBRANCH  16  17
ENDBRANCH  15  16
ENDBRANCH  11  15
TORSDOF 4
ENDMDL
MODEL 9
REMARK VINA RESULT:      -6.3      4.019      7.735
REMARK  Name = 
REMARK  6 active torsions:
REMARK  status: ('A' for Active; 'I' for Inactive)
REMARK    1  A    between atoms: C_1  and  S_2
REMARK    2  A    between atoms: S_2  and  N_3
REMARK    3  A    between atoms: C_6  and  C_7
REMARK    4  A    between atoms: C_13  and  O_15
REMARK    5  A    between atoms: O_15  and  C_16
REMARK    6  A    between atoms: C_16  and  C_17
REMARK                            x       y       z     vdW  Elec       q    Type
REMARK                         _______ _______ _______ _____ _____    ______ ____
ROOT
ATOM      1  N   UNL     1       4.915   5.033  16.590  0.00  0.00    +0.000 N 
ATOM      2  C   UNL     1       5.034   6.425  16.777  0.00  0.00    +0.000 C 
ATOM      3  O   UNL     1       5.650   7.215  16.071  0.00  0.00    +0.000 OA
ATOM      4  C   UNL     1       4.237   6.831  18.041  0.00  0.00    +0.000 C 
ATOM      5  C   UNL     1       3.108   7.755  17.644  0.00  0.00    +0.000 C 
ATOM      6  C   UNL     1       4.001   5.452  18.646  0.00  0.00    +0.000 C 
ATOM      7  C   UNL     1       3.898   4.524  17.447  0.00  0.00    +0.000 C 
ATOM      8  C   UNL     1       4.035   3.171  18.133  0.00  0.00    +0.000 C 
ATOM      9  C   UNL     1       3.238   3.390  19.440  0.00  0.00    +0.000 C 
ATOM     10  N   UNL     1       3.055   4.844  19.550  0.00  0.00    +0.000 N 
ATOM     11  C   UNL     1       1.940   5.319  20.201  0.00  0.00    +0.000 C 
ATOM     12  O   UNL     1       1.204   4.590  20.853  0.00  0.00    +0.000 OA
ENDROOT
BRANCH   1  14
ATOM     13  C   UNL     1       7.115   4.499  15.170  0.00  0.00    +0.000 C 
ATOM     14  S   UNL     1       5.322   4.251  15.150  0.00  0.00    +0.000 S 
ENDBRANCH   1  14
BRANCH  11  15
ATOM     15  O   UNL     1       1.694   6.624  19.966  0.00  0.00    +0.000 OA
BRANCH  15  16
ATOM     16  C   UNL     1       1.910   7.494  21.092  0.00  0.00    +0.000 C 
BRANCH  16  17
ATOM     17  C   UNL     1       0.991   8.686  21.076  0.00  0.00    +0.000 A 
ATOM     18  C   UNL     1       0.376   9.130  22.256  0.00  0.00    +0.000 A 
ATOM     19  C   UNL     1      -0.447  10.258  22.246  0.00  0.00    +0.000 A 
ATOM     20  C   UNL     1      -0.668  10.951  21.057  0.00  0.00    +0.000 A 
ATOM     21  C   UNL     1      -0.064  10.519  19.878  0.00  0.00    +0.000 A 
ATOM     22  C   UNL     1       0.759   9.389  19.885  0.00  0.00    +0.000 A 
ENDBRANCH  16  17
ENDBRANCH  15  16
ENDBRANCH  11  15
TORSDOF 4
ENDMDL
