MODEL 1
REMARK VINA RESULT:      -8.3      0.000      0.000
REMARK  Name = 
REMARK  7 active torsions:
REMARK  status: ('A' for Active; 'I' for Inactive)
REMARK    1  A    between atoms: C_1  and  N_2
REMARK    2  A    between atoms: C_6  and  C_7
REMARK    3  A    between atoms: C_7  and  N_8
REMARK    4  A    between atoms: C_7  and  C_18
REMARK    5  A    between atoms: C_9  and  C_11
REMARK    6  A    between atoms: C_11  and  C_12
REMARK    7  A    between atoms: C_12  and  O_13
REMARK                            x       y       z     vdW  Elec       q    Type
REMARK                         _______ _______ _______ _____ _____    ______ ____
ROOT
ATOM      1  C   UNL     1       3.081   6.538  19.112  0.00  0.00    +0.000 C 
ENDROOT
BRANCH   1   2
ATOM      2  C   UNL     1       2.288   5.242  19.069  0.00  0.00    +0.000 A 
ATOM      3  C   UNL     1       1.932   4.696  17.818  0.00  0.00    +0.000 A 
ATOM      4  C   UNL     1       1.259   3.475  17.735  0.00  0.00    +0.000 A 
ATOM      5  C   UNL     1       0.911   2.805  18.899  0.00  0.00    +0.000 A 
ATOM      6  F   UNL     1       0.275   1.628  18.814  0.00  0.00    +0.000 F 
ATOM      7  C   UNL     1       1.222   3.330  20.145  0.00  0.00    +0.000 A 
ATOM      8  C   UNL     1       1.907   4.543  20.221  0.00  0.00    +0.000 A 
ATOM      9  F   UNL     1       2.195   5.033  21.435  0.00  0.00    +0.000 F 
ENDBRANCH   1   2
BRANCH   1  15
ATOM     10  C   UNL     1       1.313   8.121  21.164  0.00  0.00    +0.000 C 
ATOM     11  N   UNL     1       1.568   8.499  19.794  0.00  0.00    +0.000 N 
ATOM     12  C   UNL     1       1.156   9.678  19.234  0.00  0.00    +0.000 A 
ATOM     13  C   UNL     1       1.530   9.599  17.916  0.00  0.00    +0.000 A 
ATOM     14  N   UNL     1       2.197   8.427  17.671  0.00  0.00    +0.000 NA
ATOM     15  C   UNL     1       2.261   7.787  18.831  0.00  0.00    +0.000 A 
ENDBRANCH   1  15
BRANCH   1  16
ATOM     16  N   UNL     1       4.227   6.519  18.214  0.00  0.00    +0.000 N 
ATOM     17  C   UNL     1       5.353   5.770  18.460  0.00  0.00    +0.000 C 
ATOM     18  O   UNL     1       5.456   5.003  19.410  0.00  0.00    +0.000 OA
ATOM     19  H   UNL     1       4.215   7.222  17.480  0.00  0.00    +0.000 HD
BRANCH  17  20
ATOM     20  C   UNL     1       6.459   5.964  17.430  0.00  0.00    +0.000 C 
BRANCH  20  21
ATOM     21  C   UNL     1       6.070   5.588  15.989  0.00  0.00    +0.000 C 
ATOM     22  C   UNL     1       5.206   4.333  15.831  0.00  0.00    +0.000 C 
ATOM     23  C   UNL     1       5.422   3.890  14.377  0.00  0.00    +0.000 C 
ATOM     24  C   UNL     1       6.758   4.486  13.940  0.00  0.00    +0.000 C 
ATOM     25  C   UNL     1       7.309   5.216  15.162  0.00  0.00    +0.000 C 
BRANCH  21  26
ATOM     26  O   UNL     1       5.432   6.692  15.342  0.00  0.00    +0.000 OA
ATOM     27  H   UNL     1       4.537   6.762  15.733  0.00  0.00    +0.000 HD
ENDBRANCH  21  26
ENDBRANCH  20  21
ENDBRANCH  17  20
ENDBRANCH   1  16
TORSDOF 6
ENDMDL
MODEL 2
REMARK VINA RESULT:      -8.0      0.741      1.070
REMARK  Name = 
REMARK  7 active torsions:
REMARK  status: ('A' for Active; 'I' for Inactive)
REMARK    1  A    between atoms: C_1  and  N_2
REMARK    2  A    between atoms: C_6  and  C_7
REMARK    3  A    between atoms: C_7  and  N_8
REMARK    4  A    between atoms: C_7  and  C_18
REMARK    5  A    between atoms: C_9  and  C_11
REMARK    6  A    between atoms: C_11  and  C_12
REMARK    7  A    between atoms: C_12  and  O_13
REMARK                            x       y       z     vdW  Elec       q    Type
REMARK                         _______ _______ _______ _____ _____    ______ ____
ROOT
ATOM      1  C   UNL     1       3.041   6.592  19.085  0.00  0.00    +0.000 C 
ENDROOT
BRANCH   1   2
ATOM      2  C   UNL     1       2.269   5.283  19.075  0.00  0.00    +0.000 A 
ATOM      3  C   UNL     1       1.886   4.721  17.840  0.00  0.00    +0.000 A 
ATOM      4  C   UNL     1       1.231   3.488  17.786  0.00  0.00    +0.000 A 
ATOM      5  C   UNL     1       0.930   2.821  18.965  0.00  0.00    +0.000 A 
ATOM      6  F   UNL     1       0.313   1.633  18.908  0.00  0.00    +0.000 F 
ATOM      7  C   UNL     1       1.270   3.361  20.197  0.00  0.00    +0.000 A 
ATOM      8  C   UNL     1       1.935   4.587  20.244  0.00  0.00    +0.000 A 
ATOM      9  F   UNL     1       2.251   5.090  21.445  0.00  0.00    +0.000 F 
ENDBRANCH   1   2
BRANCH   1  15
ATOM     10  C   UNL     1       1.345   8.138  21.225  0.00  0.00    +0.000 C 
ATOM     11  N   UNL     1       1.528   8.525  19.846  0.00  0.00    +0.000 N 
ATOM     12  C   UNL     1       1.069   9.697  19.310  0.00  0.00    +0.000 A 
ATOM     13  C   UNL     1       1.381   9.629  17.976  0.00  0.00    +0.000 A 
ATOM     14  N   UNL     1       2.056   8.469  17.695  0.00  0.00    +0.000 NA
ATOM     15  C   UNL     1       2.186   7.827  18.849  0.00  0.00    +0.000 A 
ENDBRANCH   1  15
BRANCH   1  16
ATOM     16  N   UNL     1       4.142   6.596  18.133  0.00  0.00    +0.000 N 
ATOM     17  C   UNL     1       5.337   5.963  18.375  0.00  0.00    +0.000 C 
ATOM     18  O   UNL     1       5.548   5.283  19.373  0.00  0.00    +0.000 OA
ATOM     19  H   UNL     1       4.037   7.236  17.350  0.00  0.00    +0.000 HD
BRANCH  17  20
ATOM     20  C   UNL     1       6.375   6.164  17.278  0.00  0.00    +0.000 C 
BRANCH  20  21
ATOM     21  C   UNL     1       6.408   5.056  16.211  0.00  0.00    +0.000 C 
ATOM     22  C   UNL     1       7.471   5.206  15.118  0.00  0.00    +0.000 C 
ATOM     23  C   UNL     1       6.958   4.347  13.954  0.00  0.00    +0.000 C 
ATOM     24  C   UNL     1       5.449   4.219  14.145  0.00  0.00    +0.000 C 
ATOM     25  C   UNL     1       5.114   5.046  15.384  0.00  0.00    +0.000 C 
BRANCH  21  26
ATOM     26  O   UNL     1       6.538   3.774  16.830  0.00  0.00    +0.000 OA
ATOM     27  H   UNL     1       7.462   3.487  16.683  0.00  0.00    +0.000 HD
ENDBRANCH  21  26
ENDBRANCH  20  21
ENDBRANCH  17  20
ENDBRANCH   1  16
TORSDOF 6
ENDMDL
MODEL 3
REMARK VINA RESULT:      -7.6      1.403      1.876
REMARK  Name = 
REMARK  7 active torsions:
REMARK  status: ('A' for Active; 'I' for Inactive)
REMARK    1  A    between atoms: C_1  and  N_2
REMARK    2  A    between atoms: C_6  and  C_7
REMARK    3  A    between atoms: C_7  and  N_8
REMARK    4  A    between atoms: C_7  and  C_18
REMARK    5  A    between atoms: C_9  and  C_11
REMARK    6  A    between atoms: C_11  and  C_12
REMARK    7  A    between atoms: C_12  and  O_13
REMARK                            x       y       z     vdW  Elec       q    Type
REMARK                         _______ _______ _______ _____ _____    ______ ____
ROOT
ATOM      1  C   UNL     1       3.198   6.248  19.444  0.00  0.00    +0.000 C 
ENDROOT
BRANCH   1   2
ATOM      2  C   UNL     1       2.444   4.947  19.224  0.00  0.00    +0.000 A 
ATOM      3  C   UNL     1       1.798   4.334  20.318  0.00  0.00    +0.000 A 
ATOM      4  C   UNL     1       1.042   3.172  20.145  0.00  0.00    +0.000 A 
ATOM      5  C   UNL     1       0.948   2.599  18.885  0.00  0.00    +0.000 A 
ATOM      6  F   UNL     1       0.213   1.491  18.722  0.00  0.00    +0.000 F 
ATOM      7  C   UNL     1       1.595   3.162  17.794  0.00  0.00    +0.000 A 
ATOM      8  C   UNL     1       2.337   4.330  17.971  0.00  0.00    +0.000 A 
ATOM      9  F   UNL     1       2.955   4.856  16.904  0.00  0.00    +0.000 F 
ENDBRANCH   1   2
BRANCH   1  15
ATOM     10  C   UNL     1       1.186   7.991  21.103  0.00  0.00    +0.000 C 
ATOM     11  N   UNL     1       1.652   8.275  19.766  0.00  0.00    +0.000 N 
ATOM     12  C   UNL     1       1.359   9.421  19.078  0.00  0.00    +0.000 A 
ATOM     13  C   UNL     1       1.924   9.250  17.839  0.00  0.00    +0.000 A 
ATOM     14  N   UNL     1       2.589   8.053  17.771  0.00  0.00    +0.000 NA
ATOM     15  C   UNL     1       2.462   7.489  18.965  0.00  0.00    +0.000 A 
ENDBRANCH   1  15
BRANCH   1  16
ATOM     16  N   UNL     1       4.524   6.230  18.843  0.00  0.00    +0.000 N 
ATOM     17  C   UNL     1       5.514   5.368  19.250  0.00  0.00    +0.000 C 
ATOM     18  O   UNL     1       5.341   4.497  20.094  0.00  0.00    +0.000 OA
ATOM     19  H   UNL     1       4.729   7.006  18.219  0.00  0.00    +0.000 HD
BRANCH  17  20
ATOM     20  C   UNL     1       6.845   5.579  18.539  0.00  0.00    +0.000 C 
BRANCH  20  21
ATOM     21  C   UNL     1       6.968   4.870  17.179  0.00  0.00    +0.000 C 
ATOM     22  C   UNL     1       6.926   5.774  15.942  0.00  0.00    +0.000 C 
ATOM     23  C   UNL     1       6.523   4.843  14.791  0.00  0.00    +0.000 C 
ATOM     24  C   UNL     1       5.808   3.654  15.429  0.00  0.00    +0.000 C 
ATOM     25  C   UNL     1       5.768   3.946  16.927  0.00  0.00    +0.000 C 
BRANCH  21  26
ATOM     26  O   UNL     1       8.150   4.066  17.142  0.00  0.00    +0.000 OA
ATOM     27  H   UNL     1       8.371   3.856  18.073  0.00  0.00    +0.000 HD
ENDBRANCH  21  26
ENDBRANCH  20  21
ENDBRANCH  17  20
ENDBRANCH   1  16
TORSDOF 6
ENDMDL
MODEL 4
REMARK VINA RESULT:      -7.5      0.933      1.353
REMARK  Name = 
REMARK  7 active torsions:
REMARK  status: ('A' for Active; 'I' for Inactive)
REMARK    1  A    between atoms: C_1  and  N_2
REMARK    2  A    between atoms: C_6  and  C_7
REMARK    3  A    between atoms: C_7  and  N_8
REMARK    4  A    between atoms: C_7  and  C_18
REMARK    5  A    between atoms: C_9  and  C_11
REMARK    6  A    between atoms: C_11  and  C_12
REMARK    7  A    between atoms: C_12  and  O_13
REMARK                            x       y       z     vdW  Elec       q    Type
REMARK                         _______ _______ _______ _____ _____    ______ ____
ROOT
ATOM      1  C   UNL     1       3.142   6.556  19.274  0.00  0.00    +0.000 C 
ENDROOT
BRANCH   1   2
ATOM      2  C   UNL     1       2.377   5.245  19.335  0.00  0.00    +0.000 A 
ATOM      3  C   UNL     1       1.943   4.761  20.586  0.00  0.00    +0.000 A 
ATOM      4  C   UNL     1       1.182   3.593  20.678  0.00  0.00    +0.000 A 
ATOM      5  C   UNL     1       0.873   2.885  19.525  0.00  0.00    +0.000 A 
ATOM      6  F   UNL     1       0.133   1.772  19.617  0.00  0.00    +0.000 F 
ATOM      7  C   UNL     1       1.309   3.321  18.282  0.00  0.00    +0.000 A 
ATOM      8  C   UNL     1       2.057   4.495  18.196  0.00  0.00    +0.000 A 
ATOM      9  F   UNL     1       2.470   4.896  16.985  0.00  0.00    +0.000 F 
ENDBRANCH   1   2
BRANCH   1  15
ATOM     10  C   UNL     1       1.318   8.233  21.198  0.00  0.00    +0.000 C 
ATOM     11  N   UNL     1       1.576   8.522  19.807  0.00  0.00    +0.000 N 
ATOM     12  C   UNL     1       1.140   9.648  19.164  0.00  0.00    +0.000 A 
ATOM     13  C   UNL     1       1.528   9.488  17.857  0.00  0.00    +0.000 A 
ATOM     14  N   UNL     1       2.225   8.319  17.699  0.00  0.00    +0.000 NA
ATOM     15  C   UNL     1       2.294   7.762  18.901  0.00  0.00    +0.000 A 
ENDBRANCH   1  15
BRANCH   1  16
ATOM     16  N   UNL     1       4.285   6.492  18.373  0.00  0.00    +0.000 N 
ATOM     17  C   UNL     1       5.439   5.814  18.683  0.00  0.00    +0.000 C 
ATOM     18  O   UNL     1       5.575   5.149  19.703  0.00  0.00    +0.000 OA
ATOM     19  H   UNL     1       4.243   7.118  17.573  0.00  0.00    +0.000 HD
BRANCH  17  20
ATOM     20  C   UNL     1       6.533   5.947  17.631  0.00  0.00    +0.000 C 
BRANCH  20  21
ATOM     21  C   UNL     1       6.104   5.562  16.204  0.00  0.00    +0.000 C 
ATOM     22  C   UNL     1       5.374   4.223  16.059  0.00  0.00    +0.000 C 
ATOM     23  C   UNL     1       5.551   3.839  14.583  0.00  0.00    +0.000 C 
ATOM     24  C   UNL     1       6.787   4.588  14.089  0.00  0.00    +0.000 C 
ATOM     25  C   UNL     1       7.326   5.347  15.299  0.00  0.00    +0.000 C 
BRANCH  21  26
ATOM     26  O   UNL     1       5.313   6.603  15.625  0.00  0.00    +0.000 OA
ATOM     27  H   UNL     1       4.666   6.872  16.309  0.00  0.00    +0.000 HD
ENDBRANCH  21  26
ENDBRANCH  20  21
ENDBRANCH  17  20
ENDBRANCH   1  16
TORSDOF 6
ENDMDL
MODEL 5
REMARK VINA RESULT:      -7.3      0.683      1.279
REMARK  Name = 
REMARK  7 active torsions:
REMARK  status: ('A' for Active; 'I' for Inactive)
REMARK    1  A    between atoms: C_1  and  N_2
REMARK    2  A    between atoms: C_6  and  C_7
REMARK    3  A    between atoms: C_7  and  N_8
REMARK    4  A    between atoms: C_7  and  C_18
REMARK    5  A    between atoms: C_9  and  C_11
REMARK    6  A    between atoms: C_11  and  C_12
REMARK    7  A    between atoms: C_12  and  O_13
REMARK                            x       y       z     vdW  Elec       q    Type
REMARK                         _______ _______ _______ _____ _____    ______ ____
ROOT
ATOM      1  C   UNL     1       3.140   6.121  19.751  0.00  0.00    +0.000 C 
ENDROOT
BRANCH   1   2
ATOM      2  C   UNL     1       2.300   4.891  19.450  0.00  0.00    +0.000 A 
ATOM      3  C   UNL     1       1.970   4.596  18.111  0.00  0.00    +0.000 A 
ATOM      4  C   UNL     1       1.254   3.440  17.788  0.00  0.00    +0.000 A 
ATOM      5  C   UNL     1       0.838   2.587  18.800  0.00  0.00    +0.000 A 
ATOM      6  F   UNL     1       0.162   1.475  18.484  0.00  0.00    +0.000 F 
ATOM      7  C   UNL     1       1.124   2.865  20.129  0.00  0.00    +0.000 A 
ATOM      8  C   UNL     1       1.851   4.013  20.445  0.00  0.00    +0.000 A 
ATOM      9  F   UNL     1       2.113   4.262  21.735  0.00  0.00    +0.000 F 
ENDBRANCH   1   2
BRANCH   1  15
ATOM     10  C   UNL     1       2.679   8.239  17.484  0.00  0.00    +0.000 C 
ATOM     11  N   UNL     1       2.098   8.271  18.805  0.00  0.00    +0.000 N 
ATOM     12  C   UNL     1       1.164   9.184  19.211  0.00  0.00    +0.000 A 
ATOM     13  C   UNL     1       0.946   8.910  20.538  0.00  0.00    +0.000 A 
ATOM     14  N   UNL     1       1.687   7.827  20.936  0.00  0.00    +0.000 NA
ATOM     15  C   UNL     1       2.346   7.413  19.862  0.00  0.00    +0.000 A 
ENDBRANCH   1  15
BRANCH   1  16
ATOM     16  N   UNL     1       4.212   6.313  18.785  0.00  0.00    +0.000 N 
ATOM     17  C   UNL     1       5.358   5.554  18.785  0.00  0.00    +0.000 C 
ATOM     18  O   UNL     1       5.539   4.609  19.544  0.00  0.00    +0.000 OA
ATOM     19  H   UNL     1       4.139   7.151  18.216  0.00  0.00    +0.000 HD
BRANCH  17  20
ATOM     20  C   UNL     1       6.379   5.980  17.737  0.00  0.00    +0.000 C 
BRANCH  20  21
ATOM     21  C   UNL     1       5.994   5.640  16.287  0.00  0.00    +0.000 C 
ATOM     22  C   UNL     1       5.129   4.390  16.095  0.00  0.00    +0.000 C 
ATOM     23  C   UNL     1       5.349   3.983  14.632  0.00  0.00    +0.000 C 
ATOM     24  C   UNL     1       6.687   4.587  14.213  0.00  0.00    +0.000 C 
ATOM     25  C   UNL     1       7.235   5.286  15.454  0.00  0.00    +0.000 C 
BRANCH  21  26
ATOM     26  O   UNL     1       5.360   6.760  15.665  0.00  0.00    +0.000 OA
ATOM     27  H   UNL     1       6.039   7.462  15.598  0.00  0.00    +0.000 HD
ENDBRANCH  21  26
ENDBRANCH  20  21
ENDBRANCH  17  20
ENDBRANCH   1  16
TORSDOF 6
ENDMDL
MODEL 6
REMARK VINA RESULT:      -7.1      0.973      1.666
REMARK  Name = 
REMARK  7 active torsions:
REMARK  status: ('A' for Active; 'I' for Inactive)
REMARK    1  A    between atoms: C_1  and  N_2
REMARK    2  A    between atoms: C_6  and  C_7
REMARK    3  A    between atoms: C_7  and  N_8
REMARK    4  A    between atoms: C_7  and  C_18
REMARK    5  A    between atoms: C_9  and  C_11
REMARK    6  A    between atoms: C_11  and  C_12
REMARK    7  A    between atoms: C_12  and  O_13
REMARK                            x       y       z     vdW  Elec       q    Type
REMARK                         _______ _______ _______ _____ _____    ______ ____
ROOT
ATOM      1  C   UNL     1       3.065   6.220  19.710  0.00  0.00    +0.000 C 
ENDROOT
BRANCH   1   2
ATOM      2  C   UNL     1       2.243   4.970  19.447  0.00  0.00    +0.000 A 
ATOM      3  C   UNL     1       1.909   4.633  18.119  0.00  0.00    +0.000 A 
ATOM      4  C   UNL     1       1.210   3.458  17.832  0.00  0.00    +0.000 A 
ATOM      5  C   UNL     1       0.814   2.626  18.870  0.00  0.00    +0.000 A 
ATOM      6  F   UNL     1       0.153   1.495  18.588  0.00  0.00    +0.000 F 
ATOM      7  C   UNL     1       1.103   2.944  20.189  0.00  0.00    +0.000 A 
ATOM      8  C   UNL     1       1.814   4.112  20.468  0.00  0.00    +0.000 A 
ATOM      9  F   UNL     1       2.080   4.400  21.750  0.00  0.00    +0.000 F 
ENDBRANCH   1   2
BRANCH   1  15
ATOM     10  C   UNL     1       2.498   8.432  17.559  0.00  0.00    +0.000 C 
ATOM     11  N   UNL     1       1.948   8.386  18.893  0.00  0.00    +0.000 N 
ATOM     12  C   UNL     1       1.002   9.255  19.365  0.00  0.00    +0.000 A 
ATOM     13  C   UNL     1       0.824   8.911  20.681  0.00  0.00    +0.000 A 
ATOM     14  N   UNL     1       1.600   7.830  21.009  0.00  0.00    +0.000 NA
ATOM     15  C   UNL     1       2.243   7.485  19.901  0.00  0.00    +0.000 A 
ENDBRANCH   1  15
BRANCH   1  16
ATOM     16  N   UNL     1       4.058   6.461  18.673  0.00  0.00    +0.000 N 
ATOM     17  C   UNL     1       5.272   5.818  18.641  0.00  0.00    +0.000 C 
ATOM     18  O   UNL     1       5.588   4.939  19.434  0.00  0.00    +0.000 OA
ATOM     19  H   UNL     1       3.870   7.256  18.068  0.00  0.00    +0.000 HD
BRANCH  17  20
ATOM     20  C   UNL     1       6.186   6.283  17.514  0.00  0.00    +0.000 C 
BRANCH  20  21
ATOM     21  C   UNL     1       6.508   5.207  16.461  0.00  0.00    +0.000 C 
ATOM     22  C   UNL     1       7.186   5.702  15.179  0.00  0.00    +0.000 C 
ATOM     23  C   UNL     1       6.901   4.610  14.139  0.00  0.00    +0.000 C 
ATOM     24  C   UNL     1       5.658   3.867  14.625  0.00  0.00    +0.000 C 
ATOM     25  C   UNL     1       5.224   4.575  15.906  0.00  0.00    +0.000 C 
BRANCH  21  26
ATOM     26  O   UNL     1       7.291   4.162  17.042  0.00  0.00    +0.000 OA
ATOM     27  H   UNL     1       7.083   3.347  16.539  0.00  0.00    +0.000 HD
ENDBRANCH  21  26
ENDBRANCH  20  21
ENDBRANCH  17  20
ENDBRANCH   1  16
TORSDOF 6
ENDMDL
MODEL 7
REMARK VINA RESULT:      -7.1      3.410      6.501
REMARK  Name = 
REMARK  7 active torsions:
REMARK  status: ('A' for Active; 'I' for Inactive)
REMARK    1  A    between atoms: C_1  and  N_2
REMARK    2  A    between atoms: C_6  and  C_7
REMARK    3  A    between atoms: C_7  and  N_8
REMARK    4  A    between atoms: C_7  and  C_18
REMARK    5  A    between atoms: C_9  and  C_11
REMARK    6  A    between atoms: C_11  and  C_12
REMARK    7  A    between atoms: C_12  and  O_13
REMARK                            x       y       z     vdW  Elec       q    Type
REMARK                         _______ _______ _______ _____ _____    ______ ____
ROOT
ATOM      1  C   UNL     1       5.618   5.851  16.344  0.00  0.00    +0.000 C 
ENDROOT
BRANCH   1   2
ATOM      2  C   UNL     1       5.942   5.083  15.074  0.00  0.00    +0.000 A 
ATOM      3  C   UNL     1       4.966   4.231  14.517  0.00  0.00    +0.000 A 
ATOM      4  C   UNL     1       5.203   3.558  13.317  0.00  0.00    +0.000 A 
ATOM      5  C   UNL     1       6.426   3.707  12.678  0.00  0.00    +0.000 A 
ATOM      6  F   UNL     1       6.644   3.067  11.521  0.00  0.00    +0.000 F 
ATOM      7  C   UNL     1       7.417   4.515  13.216  0.00  0.00    +0.000 A 
ATOM      8  C   UNL     1       7.169   5.196  14.408  0.00  0.00    +0.000 A 
ATOM      9  F   UNL     1       8.142   5.969  14.909  0.00  0.00    +0.000 F 
ENDBRANCH   1   2
BRANCH   1  15
ATOM     10  C   UNL     1       7.558   8.072  17.412  0.00  0.00    +0.000 C 
ATOM     11  N   UNL     1       7.421   6.738  17.946  0.00  0.00    +0.000 N 
ATOM     12  C   UNL     1       8.049   6.295  19.078  0.00  0.00    +0.000 A 
ATOM     13  C   UNL     1       7.713   4.969  19.180  0.00  0.00    +0.000 A 
ATOM     14  N   UNL     1       6.864   4.605  18.167  0.00  0.00    +0.000 NA
ATOM     15  C   UNL     1       6.650   5.701  17.451  0.00  0.00    +0.000 A 
ENDBRANCH   1  15
BRANCH   1  16
ATOM     16  N   UNL     1       4.307   5.512  16.880  0.00  0.00    +0.000 N 
ATOM     17  C   UNL     1       3.549   6.399  17.607  0.00  0.00    +0.000 C 
ATOM     18  O   UNL     1       3.876   7.563  17.799  0.00  0.00    +0.000 OA
ATOM     19  H   UNL     1       4.057   4.528  16.828  0.00  0.00    +0.000 HD
BRANCH  17  20
ATOM     20  C   UNL     1       2.248   5.807  18.136  0.00  0.00    +0.000 C 
BRANCH  20  21
ATOM     21  C   UNL     1       2.422   4.583  19.051  0.00  0.00    +0.000 C 
ATOM     22  C   UNL     1       1.903   3.251  18.500  0.00  0.00    +0.000 C 
ATOM     23  C   UNL     1       1.694   2.369  19.739  0.00  0.00    +0.000 C 
ATOM     24  C   UNL     1       1.527   3.322  20.921  0.00  0.00    +0.000 C 
ATOM     25  C   UNL     1       1.592   4.730  20.335  0.00  0.00    +0.000 C 
BRANCH  21  26
ATOM     26  O   UNL     1       3.792   4.440  19.434  0.00  0.00    +0.000 OA
ATOM     27  H   UNL     1       3.789   4.084  20.347  0.00  0.00    +0.000 HD
ENDBRANCH  21  26
ENDBRANCH  20  21
ENDBRANCH  17  20
ENDBRANCH   1  16
TORSDOF 6
ENDMDL
MODEL 8
REMARK VINA RESULT:      -7.1      2.992      6.752
REMARK  Name = 
REMARK  7 active torsions:
REMARK  status: ('A' for Active; 'I' for Inactive)
REMARK    1  A    between atoms: C_1  and  N_2
REMARK    2  A    between atoms: C_6  and  C_7
REMARK    3  A    between atoms: C_7  and  N_8
REMARK    4  A    between atoms: C_7  and  C_18
REMARK    5  A    between atoms: C_9  and  C_11
REMARK    6  A    between atoms: C_11  and  C_12
REMARK    7  A    between atoms: C_12  and  O_13
REMARK                            x       y       z     vdW  Elec       q    Type
REMARK                         _______ _______ _______ _____ _____    ______ ____
ROOT
ATOM      1  C   UNL     1       3.761   5.078  18.971  0.00  0.00    +0.000 C 
ENDROOT
BRANCH   1   2
ATOM      2  C   UNL     1       4.846   5.038  17.908  0.00  0.00    +0.000 A 
ATOM      3  C   UNL     1       4.512   4.629  16.601  0.00  0.00    +0.000 A 
ATOM      4  C   UNL     1       5.467   4.640  15.581  0.00  0.00    +0.000 A 
ATOM      5  C   UNL     1       6.767   5.033  15.864  0.00  0.00    +0.000 A 
ATOM      6  F   UNL     1       7.675   5.052  14.880  0.00  0.00    +0.000 F 
ATOM      7  C   UNL     1       7.133   5.415  17.147  0.00  0.00    +0.000 A 
ATOM      8  C   UNL     1       6.172   5.414  18.158  0.00  0.00    +0.000 A 
ATOM      9  F   UNL     1       6.549   5.785  19.390  0.00  0.00    +0.000 F 
ENDBRANCH   1   2
BRANCH   1  15
ATOM     10  C   UNL     1       4.067   2.173  20.115  0.00  0.00    +0.000 C 
ATOM     11  N   UNL     1       2.892   2.713  19.474  0.00  0.00    +0.000 N 
ATOM     12  C   UNL     1       1.697   2.052  19.381  0.00  0.00    +0.000 A 
ATOM     13  C   UNL     1       0.889   2.876  18.639  0.00  0.00    +0.000 A 
ATOM     14  N   UNL     1       1.544   4.037  18.318  0.00  0.00    +0.000 NA
ATOM     15  C   UNL     1       2.745   3.951  18.874  0.00  0.00    +0.000 A 
ENDBRANCH   1  15
BRANCH   1  16
ATOM     16  N   UNL     1       3.050   6.348  18.993  0.00  0.00    +0.000 N 
ATOM     17  C   UNL     1       2.234   6.726  20.033  0.00  0.00    +0.000 C 
ATOM     18  O   UNL     1       2.097   6.064  21.055  0.00  0.00    +0.000 OA
ATOM     19  H   UNL     1       3.058   6.866  18.119  0.00  0.00    +0.000 HD
BRANCH  17  20
ATOM     20  C   UNL     1       1.528   8.057  19.809  0.00  0.00    +0.000 C 
BRANCH  20  21
ATOM     21  C   UNL     1       1.082   8.774  21.096  0.00  0.00    +0.000 C 
ATOM     22  C   UNL     1      -0.261   8.330  21.684  0.00  0.00    +0.000 C 
ATOM     23  C   UNL     1      -0.708   9.502  22.568  0.00  0.00    +0.000 C 
ATOM     24  C   UNL     1       0.017  10.739  22.042  0.00  0.00    +0.000 C 
ATOM     25  C   UNL     1       0.827  10.266  20.837  0.00  0.00    +0.000 C 
BRANCH  21  26
ATOM     26  O   UNL     1       2.098   8.675  22.097  0.00  0.00    +0.000 OA
ATOM     27  H   UNL     1       1.635   8.536  22.949  0.00  0.00    +0.000 HD
ENDBRANCH  21  26
ENDBRANCH  20  21
ENDBRANCH  17  20
ENDBRANCH   1  16
TORSDOF 6
ENDMDL
MODEL 9
REMARK VINA RESULT:      -7.0      2.204      5.932
REMARK  Name = 
REMARK  7 active torsions:
REMARK  status: ('A' for Active; 'I' for Inactive)
REMARK    1  A    between atoms: C_1  and  N_2
REMARK    2  A    between atoms: C_6  and  C_7
REMARK    3  A    between atoms: C_7  and  N_8
REMARK    4  A    between atoms: C_7  and  C_18
REMARK    5  A    between atoms: C_9  and  C_11
REMARK    6  A    between atoms: C_11  and  C_12
REMARK    7  A    between atoms: C_12  and  O_13
REMARK                            x       y       z     vdW  Elec       q    Type
REMARK                         _______ _______ _______ _____ _____    ______ ____
ROOT
ATOM      1  C   UNL     1       3.779   5.620  17.841  0.00  0.00    +0.000 C 
ENDROOT
BRANCH   1   2
ATOM      2  C   UNL     1       2.960   4.788  18.812  0.00  0.00    +0.000 A 
ATOM      3  C   UNL     1       2.930   5.152  20.174  0.00  0.00    +0.000 A 
ATOM      4  C   UNL     1       2.137   4.451  21.086  0.00  0.00    +0.000 A 
ATOM      5  C   UNL     1       1.392   3.364  20.651  0.00  0.00    +0.000 A 
ATOM      6  F   UNL     1       0.625   2.702  21.528  0.00  0.00    +0.000 F 
ATOM      7  C   UNL     1       1.422   2.964  19.323  0.00  0.00    +0.000 A 
ATOM      8  C   UNL     1       2.205   3.677  18.414  0.00  0.00    +0.000 A 
ATOM      9  F   UNL     1       2.220   3.271  17.137  0.00  0.00    +0.000 F 
ENDBRANCH   1   2
BRANCH   1  15
ATOM     10  C   UNL     1       5.310   4.184  15.510  0.00  0.00    +0.000 C 
ATOM     11  N   UNL     1       5.904   4.715  16.714  0.00  0.00    +0.000 N 
ATOM     12  C   UNL     1       7.251   4.762  16.950  0.00  0.00    +0.000 A 
ATOM     13  C   UNL     1       7.375   5.257  18.223  0.00  0.00    +0.000 A 
ATOM     14  N   UNL     1       6.145   5.554  18.750  0.00  0.00    +0.000 NA
ATOM     15  C   UNL     1       5.259   5.269  17.805  0.00  0.00    +0.000 A 
ENDBRANCH   1  15
BRANCH   1  16
ATOM     16  N   UNL     1       3.644   7.050  18.081  0.00  0.00    +0.000 N 
ATOM     17  C   UNL     1       2.486   7.742  17.821  0.00  0.00    +0.000 C 
ATOM     18  O   UNL     1       1.453   7.204  17.438  0.00  0.00    +0.000 OA
ATOM     19  H   UNL     1       4.509   7.539  18.295  0.00  0.00    +0.000 HD
BRANCH  17  20
ATOM     20  C   UNL     1       2.594   9.241  18.071  0.00  0.00    +0.000 C 
BRANCH  20  21
ATOM     21  C   UNL     1       1.296   9.908  18.561  0.00  0.00    +0.000 C 
ATOM     22  C   UNL     1       1.375  11.413  18.837  0.00  0.00    +0.000 C 
ATOM     23  C   UNL     1       0.202  11.698  19.784  0.00  0.00    +0.000 C 
ATOM     24  C   UNL     1      -0.135  10.373  20.464  0.00  0.00    +0.000 C 
ATOM     25  C   UNL     1       0.880   9.363  19.935  0.00  0.00    +0.000 C 
BRANCH  21  26
ATOM     26  O   UNL     1       0.227   9.645  17.648  0.00  0.00    +0.000 OA
ATOM     27  H   UNL     1       0.513   9.995  16.779  0.00  0.00    +0.000 HD
ENDBRANCH  21  26
ENDBRANCH  20  21
ENDBRANCH  17  20
ENDBRANCH   1  16
TORSDOF 6
ENDMDL
