MODEL 1
REMARK VINA RESULT:      -8.1      0.000      0.000
REMARK  Name = 
REMARK  12 active torsions:
REMARK  status: ('A' for Active; 'I' for Inactive)
REMARK    1  A    between atoms: C_1  and  C_2
REMARK    2  A    between atoms: C_2  and  C_3
REMARK    3  A    between atoms: C_4  and  C_5
REMARK    4  A    between atoms: C_5  and  C_7
REMARK    5  A    between atoms: C_9  and  C_10
REMARK    6  A    between atoms: C_12  and  C_13
REMARK    7  A    between atoms: N_15  and  C_16
REMARK    8  A    between atoms: C_16  and  O_17
REMARK    9  A    between atoms: O_17  and  C_18
REMARK   10  A    between atoms: C_18  and  C_19
REMARK   11  A    between atoms: C_19  and  C_20
REMARK   12  A    between atoms: N_29  and  O_30
REMARK                            x       y       z     vdW  Elec       q    Type
REMARK                         _______ _______ _______ _____ _____    ______ ____
ROOT
ATOM      1  C   UNL     1      -1.087  11.914  21.117  0.00  0.00    +0.000 A 
ATOM      2  C   UNL     1      -0.686  11.321  19.961  0.00  0.00    +0.000 A 
ATOM      3  N   UNL     1       0.047  10.112  19.998  0.00  0.00    +0.000 N 
ATOM      4  C   UNL     1       0.613   9.648  21.189  0.00  0.00    +0.000 A 
ATOM      5  O   UNL     1       1.361   8.673  21.278  0.00  0.00    +0.000 OA
ATOM      6  N   UNL     1       0.232  10.306  22.333  0.00  0.00    +0.000 N 
ATOM      7  C   UNL     1      -0.734  11.267  22.422  0.00  0.00    +0.000 A 
ATOM      8  O   UNL     1      -1.279  11.616  23.468  0.00  0.00    +0.000 OA
ENDROOT
BRANCH   1  10
ATOM      9  C   UNL     1      -0.943  14.427  21.458  0.00  0.00    +0.000 C 
ATOM     10  C   UNL     1      -1.855  13.210  21.321  0.00  0.00    +0.000 C 
ENDBRANCH   1  10
BRANCH   2  11
ATOM     11  C   UNL     1      -1.163  11.982  18.661  0.00  0.00    +0.000 C 
ATOM     12  O   UNL     1      -0.556  12.943  18.190  0.00  0.00    +0.000 OA
BRANCH  11  13
ATOM     13  C   UNL     1      -2.401  11.572  17.934  0.00  0.00    +0.000 A 
ATOM     14  C   UNL     1      -2.249  11.007  16.652  0.00  0.00    +0.000 A 
ATOM     15  C   UNL     1      -3.362  10.748  15.841  0.00  0.00    +0.000 A 
ATOM     16  C   UNL     1      -3.217  10.142  14.474  0.00  0.00    +0.000 C 
ATOM     17  C   UNL     1      -4.635  11.080  16.316  0.00  0.00    +0.000 A 
ATOM     18  C   UNL     1      -4.806  11.615  17.600  0.00  0.00    +0.000 A 
ATOM     19  C   UNL     1      -6.172  12.027  18.071  0.00  0.00    +0.000 C 
ATOM     20  C   UNL     1      -3.689  11.804  18.430  0.00  0.00    +0.000 A 
ENDBRANCH  11  13
ENDBRANCH   2  11
BRANCH   6  21
ATOM     21  O   UNL     1       0.612   9.676  23.546  0.00  0.00    +0.000 OA
ATOM     22  H   UNL     1       0.195   8.794  23.453  0.00  0.00    +0.000 HD
ENDBRANCH   6  21
BRANCH   3  23
ATOM     23  C   UNL     1       0.390   9.332  18.812  0.00  0.00    +0.000 C 
BRANCH  23  24
ATOM     24  O   UNL     1       1.782   9.312  18.505  0.00  0.00    +0.000 OA
BRANCH  24  25
ATOM     25  C   UNL     1       2.247   8.200  17.751  0.00  0.00    +0.000 C 
BRANCH  25  26
ATOM     26  C   UNL     1       3.163   7.277  18.548  0.00  0.00    +0.000 C 
BRANCH  26  27
ATOM     27  C   UNL     1       2.960   5.840  18.164  0.00  0.00    +0.000 A 
ATOM     28  C   UNL     1       3.976   5.143  17.492  0.00  0.00    +0.000 A 
ATOM     29  C   UNL     1       3.790   3.813  17.126  0.00  0.00    +0.000 A 
ATOM     30  C   UNL     1       2.590   3.185  17.437  0.00  0.00    +0.000 A 
ATOM     31  F   UNL     1       2.414   1.899  17.105  0.00  0.00    +0.000 F 
ATOM     32  C   UNL     1       1.566   3.868  18.086  0.00  0.00    +0.000 A 
ATOM     33  C   UNL     1       1.748   5.199  18.447  0.00  0.00    +0.000 A 
ENDBRANCH  26  27
ENDBRANCH  25  26
ENDBRANCH  24  25
ENDBRANCH  23  24
ENDBRANCH   3  23
TORSDOF 9
ENDMDL
MODEL 2
REMARK VINA RESULT:      -8.0      0.304      1.540
REMARK  Name = 
REMARK  12 active torsions:
REMARK  status: ('A' for Active; 'I' for Inactive)
REMARK    1  A    between atoms: C_1  and  C_2
REMARK    2  A    between atoms: C_2  and  C_3
REMARK    3  A    between atoms: C_4  and  C_5
REMARK    4  A    between atoms: C_5  and  C_7
REMARK    5  A    between atoms: C_9  and  C_10
REMARK    6  A    between atoms: C_12  and  C_13
REMARK    7  A    between atoms: N_15  and  C_16
REMARK    8  A    between atoms: C_16  and  O_17
REMARK    9  A    between atoms: O_17  and  C_18
REMARK   10  A    between atoms: C_18  and  C_19
REMARK   11  A    between atoms: C_19  and  C_20
REMARK   12  A    between atoms: N_29  and  O_30
REMARK                            x       y       z     vdW  Elec       q    Type
REMARK                         _______ _______ _______ _____ _____    ______ ____
ROOT
ATOM      1  C   UNL     1      -0.972  12.023  21.107  0.00  0.00    +0.000 A 
ATOM      2  C   UNL     1      -0.584  11.455  19.934  0.00  0.00    +0.000 A 
ATOM      3  N   UNL     1       0.111  10.223  19.935  0.00  0.00    +0.000 N 
ATOM      4  C   UNL     1       0.657   9.703  21.112  0.00  0.00    +0.000 A 
ATOM      5  O   UNL     1       1.374   8.704  21.173  0.00  0.00    +0.000 OA
ATOM      6  N   UNL     1       0.291  10.336  22.275  0.00  0.00    +0.000 N 
ATOM      7  C   UNL     1      -0.645  11.323  22.392  0.00  0.00    +0.000 A 
ATOM      8  O   UNL     1      -1.184  11.655  23.446  0.00  0.00    +0.000 OA
ENDROOT
BRANCH   1  10
ATOM      9  C   UNL     1      -0.753  14.520  21.514  0.00  0.00    +0.000 C 
ATOM     10  C   UNL     1      -1.701  13.334  21.350  0.00  0.00    +0.000 C 
ENDBRANCH   1  10
BRANCH   2  11
ATOM     11  C   UNL     1      -1.034  12.171  18.654  0.00  0.00    +0.000 C 
ATOM     12  O   UNL     1      -0.447  13.181  18.264  0.00  0.00    +0.000 OA
BRANCH  11  13
ATOM     13  C   UNL     1      -2.225  11.758  17.853  0.00  0.00    +0.000 A 
ATOM     14  C   UNL     1      -3.476  11.742  18.503  0.00  0.00    +0.000 A 
ATOM     15  C   UNL     1      -4.609  11.211  17.873  0.00  0.00    +0.000 A 
ATOM     16  C   UNL     1      -5.950  11.192  18.550  0.00  0.00    +0.000 C 
ATOM     17  C   UNL     1      -4.478  10.674  16.588  0.00  0.00    +0.000 A 
ATOM     18  C   UNL     1      -3.248  10.708  15.917  0.00  0.00    +0.000 A 
ATOM     19  C   UNL     1      -3.107  10.069  14.565  0.00  0.00    +0.000 C 
ATOM     20  C   UNL     1      -2.136  11.306  16.532  0.00  0.00    +0.000 A 
ENDBRANCH  11  13
ENDBRANCH   2  11
BRANCH   6  21
ATOM     21  O   UNL     1       0.646   9.657  23.468  0.00  0.00    +0.000 OA
ATOM     22  H   UNL     1       1.005  10.387  24.016  0.00  0.00    +0.000 HD
ENDBRANCH   6  21
BRANCH   3  23
ATOM     23  C   UNL     1       0.436   9.471  18.726  0.00  0.00    +0.000 C 
BRANCH  23  24
ATOM     24  O   UNL     1       1.830   9.394  18.439  0.00  0.00    +0.000 OA
BRANCH  24  25
ATOM     25  C   UNL     1       2.244   8.325  17.598  0.00  0.00    +0.000 C 
BRANCH  25  26
ATOM     26  C   UNL     1       3.330   7.456  18.224  0.00  0.00    +0.000 C 
BRANCH  26  27
ATOM     27  C   UNL     1       3.083   5.999  17.964  0.00  0.00    +0.000 A 
ATOM     28  C   UNL     1       4.142   5.166  17.572  0.00  0.00    +0.000 A 
ATOM     29  C   UNL     1       3.916   3.816  17.322  0.00  0.00    +0.000 A 
ATOM     30  C   UNL     1       2.633   3.303  17.469  0.00  0.00    +0.000 A 
ATOM     31  F   UNL     1       2.415   2.000  17.249  0.00  0.00    +0.000 F 
ATOM     32  C   UNL     1       1.569   4.120  17.839  0.00  0.00    +0.000 A 
ATOM     33  C   UNL     1       1.791   5.471  18.083  0.00  0.00    +0.000 A 
ENDBRANCH  26  27
ENDBRANCH  25  26
ENDBRANCH  24  25
ENDBRANCH  23  24
ENDBRANCH   3  23
TORSDOF 9
ENDMDL
MODEL 3
REMARK VINA RESULT:      -7.8      1.575      1.838
REMARK  Name = 
REMARK  12 active torsions:
REMARK  status: ('A' for Active; 'I' for Inactive)
REMARK    1  A    between atoms: C_1  and  C_2
REMARK    2  A    between atoms: C_2  and  C_3
REMARK    3  A    between atoms: C_4  and  C_5
REMARK    4  A    between atoms: C_5  and  C_7
REMARK    5  A    between atoms: C_9  and  C_10
REMARK    6  A    between atoms: C_12  and  C_13
REMARK    7  A    between atoms: N_15  and  C_16
REMARK    8  A    between atoms: C_16  and  O_17
REMARK    9  A    between atoms: O_17  and  C_18
REMARK   10  A    between atoms: C_18  and  C_19
REMARK   11  A    between atoms: C_19  and  C_20
REMARK   12  A    between atoms: N_29  and  O_30
REMARK                            x       y       z     vdW  Elec       q    Type
REMARK                         _______ _______ _______ _____ _____    ______ ____
ROOT
ATOM      1  C   UNL     1      -1.202  11.919  21.201  0.00  0.00    +0.000 A 
ATOM      2  C   UNL     1      -0.728  11.358  20.056  0.00  0.00    +0.000 A 
ATOM      3  N   UNL     1       0.041  10.172  20.110  0.00  0.00    +0.000 N 
ATOM      4  C   UNL     1       0.565   9.706  21.319  0.00  0.00    +0.000 A 
ATOM      5  O   UNL     1       1.340   8.755  21.429  0.00  0.00    +0.000 OA
ATOM      6  N   UNL     1       0.110  10.333  22.454  0.00  0.00    +0.000 N 
ATOM      7  C   UNL     1      -0.889  11.262  22.511  0.00  0.00    +0.000 A 
ATOM      8  O   UNL     1      -1.494  11.576  23.535  0.00  0.00    +0.000 OA
ENDROOT
BRANCH   1  10
ATOM      9  C   UNL     1      -1.156  14.439  21.517  0.00  0.00    +0.000 C 
ATOM     10  C   UNL     1      -2.021  13.186  21.388  0.00  0.00    +0.000 C 
ENDBRANCH   1  10
BRANCH   2  11
ATOM     11  C   UNL     1      -1.165  12.025  18.745  0.00  0.00    +0.000 C 
ATOM     12  O   UNL     1      -0.554  12.999  18.307  0.00  0.00    +0.000 OA
BRANCH  11  13
ATOM     13  C   UNL     1      -2.368  11.604  17.968  0.00  0.00    +0.000 A 
ATOM     14  C   UNL     1      -2.158  11.025  16.700  0.00  0.00    +0.000 A 
ATOM     15  C   UNL     1      -3.232  10.755  15.843  0.00  0.00    +0.000 A 
ATOM     16  C   UNL     1      -3.024  10.134  14.490  0.00  0.00    +0.000 C 
ATOM     17  C   UNL     1      -4.526  11.089  16.255  0.00  0.00    +0.000 A 
ATOM     18  C   UNL     1      -4.756  11.638  17.524  0.00  0.00    +0.000 A 
ATOM     19  C   UNL     1      -6.142  12.053  17.929  0.00  0.00    +0.000 C 
ATOM     20  C   UNL     1      -3.677  11.839  18.402  0.00  0.00    +0.000 A 
ENDBRANCH  11  13
ENDBRANCH   2  11
BRANCH   6  21
ATOM     21  O   UNL     1       0.453   9.696  23.673  0.00  0.00    +0.000 OA
ATOM     22  H   UNL     1      -0.401   9.712  24.155  0.00  0.00    +0.000 HD
ENDBRANCH   6  21
BRANCH   3  23
ATOM     23  C   UNL     1       0.465   9.423  18.930  0.00  0.00    +0.000 C 
BRANCH  23  24
ATOM     24  O   UNL     1       1.874   9.226  18.834  0.00  0.00    +0.000 OA
BRANCH  24  25
ATOM     25  C   UNL     1       2.325   8.404  17.766  0.00  0.00    +0.000 C 
BRANCH  25  26
ATOM     26  C   UNL     1       2.437   6.932  18.149  0.00  0.00    +0.000 C 
BRANCH  26  27
ATOM     27  C   UNL     1       3.866   6.472  18.145  0.00  0.00    +0.000 A 
ATOM     28  C   UNL     1       4.723   6.855  17.102  0.00  0.00    +0.000 A 
ATOM     29  C   UNL     1       6.047   6.425  17.090  0.00  0.00    +0.000 A 
ATOM     30  C   UNL     1       6.509   5.618  18.123  0.00  0.00    +0.000 A 
ATOM     31  F   UNL     1       7.788   5.218  18.126  0.00  0.00    +0.000 F 
ATOM     32  C   UNL     1       5.666   5.215  19.154  0.00  0.00    +0.000 A 
ATOM     33  C   UNL     1       4.341   5.638  19.165  0.00  0.00    +0.000 A 
ENDBRANCH  26  27
ENDBRANCH  25  26
ENDBRANCH  24  25
ENDBRANCH  23  24
ENDBRANCH   3  23
TORSDOF 9
ENDMDL
MODEL 4
REMARK VINA RESULT:      -7.7      2.008      2.610
REMARK  Name = 
REMARK  12 active torsions:
REMARK  status: ('A' for Active; 'I' for Inactive)
REMARK    1  A    between atoms: C_1  and  C_2
REMARK    2  A    between atoms: C_2  and  C_3
REMARK    3  A    between atoms: C_4  and  C_5
REMARK    4  A    between atoms: C_5  and  C_7
REMARK    5  A    between atoms: C_9  and  C_10
REMARK    6  A    between atoms: C_12  and  C_13
REMARK    7  A    between atoms: N_15  and  C_16
REMARK    8  A    between atoms: C_16  and  O_17
REMARK    9  A    between atoms: O_17  and  C_18
REMARK   10  A    between atoms: C_18  and  C_19
REMARK   11  A    between atoms: C_19  and  C_20
REMARK   12  A    between atoms: N_29  and  O_30
REMARK                            x       y       z     vdW  Elec       q    Type
REMARK                         _______ _______ _______ _____ _____    ______ ____
ROOT
ATOM      1  C   UNL     1       0.046  12.482  20.399  0.00  0.00    +0.000 A 
ATOM      2  C   UNL     1       0.210  11.530  19.442  0.00  0.00    +0.000 A 
ATOM      3  N   UNL     1       1.398  11.488  18.675  0.00  0.00    +0.000 N 
ATOM      4  C   UNL     1       2.295  12.560  18.676  0.00  0.00    +0.000 A 
ATOM      5  O   UNL     1       3.284  12.649  17.947  0.00  0.00    +0.000 OA
ATOM      6  N   UNL     1       2.068  13.534  19.617  0.00  0.00    +0.000 N 
ATOM      7  C   UNL     1       1.141  13.482  20.618  0.00  0.00    +0.000 A 
ATOM      8  O   UNL     1       1.155  14.193  21.622  0.00  0.00    +0.000 OA
ENDROOT
BRANCH   1  10
ATOM      9  C   UNL     1      -1.099  11.879  22.584  0.00  0.00    +0.000 C 
ATOM     10  C   UNL     1      -1.138  12.733  21.319  0.00  0.00    +0.000 C 
ENDBRANCH   1  10
BRANCH   2  11
ATOM     11  C   UNL     1      -0.904  10.480  19.335  0.00  0.00    +0.000 C 
ATOM     12  O   UNL     1      -0.828   9.423  19.962  0.00  0.00    +0.000 OA
BRANCH  11  13
ATOM     13  C   UNL     1      -2.087  10.622  18.436  0.00  0.00    +0.000 A 
ATOM     14  C   UNL     1      -1.951  10.186  17.103  0.00  0.00    +0.000 A 
ATOM     15  C   UNL     1      -2.954  10.434  16.156  0.00  0.00    +0.000 A 
ATOM     16  C   UNL     1      -2.826   9.969  14.733  0.00  0.00    +0.000 C 
ATOM     17  C   UNL     1      -4.092  11.144  16.549  0.00  0.00    +0.000 A 
ATOM     18  C   UNL     1      -4.257  11.560  17.877  0.00  0.00    +0.000 A 
ATOM     19  C   UNL     1      -5.453  12.380  18.271  0.00  0.00    +0.000 C 
ATOM     20  C   UNL     1      -3.276  11.244  18.833  0.00  0.00    +0.000 A 
ENDBRANCH  11  13
ENDBRANCH   2  11
BRANCH   6  21
ATOM     21  O   UNL     1       3.114  14.479  19.772  0.00  0.00    +0.000 OA
ATOM     22  H   UNL     1       3.478  14.233  20.649  0.00  0.00    +0.000 HD
ENDBRANCH   6  21
BRANCH   3  23
ATOM     23  C   UNL     1       1.721  10.420  17.733  0.00  0.00    +0.000 C 
BRANCH  23  24
ATOM     24  O   UNL     1       2.584   9.414  18.259  0.00  0.00    +0.000 OA
BRANCH  24  25
ATOM     25  C   UNL     1       2.100   8.079  18.211  0.00  0.00    +0.000 C 
BRANCH  25  26
ATOM     26  C   UNL     1       2.411   7.282  19.474  0.00  0.00    +0.000 C 
BRANCH  26  27
ATOM     27  C   UNL     1       2.013   5.843  19.326  0.00  0.00    +0.000 A 
ATOM     28  C   UNL     1       2.041   5.234  18.062  0.00  0.00    +0.000 A 
ATOM     29  C   UNL     1       1.665   3.901  17.918  0.00  0.00    +0.000 A 
ATOM     30  C   UNL     1       1.267   3.183  19.039  0.00  0.00    +0.000 A 
ATOM     31  F   UNL     1       0.923   1.894  18.908  0.00  0.00    +0.000 F 
ATOM     32  C   UNL     1       1.216   3.778  20.296  0.00  0.00    +0.000 A 
ATOM     33  C   UNL     1       1.585   5.111  20.441  0.00  0.00    +0.000 A 
ENDBRANCH  26  27
ENDBRANCH  25  26
ENDBRANCH  24  25
ENDBRANCH  23  24
ENDBRANCH   3  23
TORSDOF 9
ENDMDL
MODEL 5
REMARK VINA RESULT:      -7.7      1.454      2.164
REMARK  Name = 
REMARK  12 active torsions:
REMARK  status: ('A' for Active; 'I' for Inactive)
REMARK    1  A    between atoms: C_1  and  C_2
REMARK    2  A    between atoms: C_2  and  C_3
REMARK    3  A    between atoms: C_4  and  C_5
REMARK    4  A    between atoms: C_5  and  C_7
REMARK    5  A    between atoms: C_9  and  C_10
REMARK    6  A    between atoms: C_12  and  C_13
REMARK    7  A    between atoms: N_15  and  C_16
REMARK    8  A    between atoms: C_16  and  O_17
REMARK    9  A    between atoms: O_17  and  C_18
REMARK   10  A    between atoms: C_18  and  C_19
REMARK   11  A    between atoms: C_19  and  C_20
REMARK   12  A    between atoms: N_29  and  O_30
REMARK                            x       y       z     vdW  Elec       q    Type
REMARK                         _______ _______ _______ _____ _____    ______ ____
ROOT
ATOM      1  C   UNL     1      -1.206  12.127  21.212  0.00  0.00    +0.000 A 
ATOM      2  C   UNL     1      -0.794  11.556  20.049  0.00  0.00    +0.000 A 
ATOM      3  N   UNL     1      -0.104  10.321  20.066  0.00  0.00    +0.000 N 
ATOM      4  C   UNL     1       0.414   9.801  21.256  0.00  0.00    +0.000 A 
ATOM      5  O   UNL     1       1.126   8.799  21.333  0.00  0.00    +0.000 OA
ATOM      6  N   UNL     1       0.025  10.436  22.410  0.00  0.00    +0.000 N 
ATOM      7  C   UNL     1      -0.909  11.427  22.505  0.00  0.00    +0.000 A 
ATOM      8  O   UNL     1      -1.470  11.762  23.547  0.00  0.00    +0.000 OA
ENDROOT
BRANCH   1  10
ATOM      9  C   UNL     1      -0.985  14.623  21.625  0.00  0.00    +0.000 C 
ATOM     10  C   UNL     1      -1.935  13.441  21.438  0.00  0.00    +0.000 C 
ENDBRANCH   1  10
BRANCH   2  11
ATOM     11  C   UNL     1      -1.214  12.273  18.759  0.00  0.00    +0.000 C 
ATOM     12  O   UNL     1      -0.642  13.303  18.403  0.00  0.00    +0.000 OA
BRANCH  11  13
ATOM     13  C   UNL     1      -2.358  11.832  17.906  0.00  0.00    +0.000 A 
ATOM     14  C   UNL     1      -3.639  11.809  18.493  0.00  0.00    +0.000 A 
ATOM     15  C   UNL     1      -4.733  11.255  17.815  0.00  0.00    +0.000 A 
ATOM     16  C   UNL     1      -6.106  11.228  18.425  0.00  0.00    +0.000 C 
ATOM     17  C   UNL     1      -4.532  10.702  16.547  0.00  0.00    +0.000 A 
ATOM     18  C   UNL     1      -3.271  10.743  15.937  0.00  0.00    +0.000 A 
ATOM     19  C   UNL     1      -3.054  10.086  14.603  0.00  0.00    +0.000 C 
ATOM     20  C   UNL     1      -2.198  11.364  16.598  0.00  0.00    +0.000 A 
ENDBRANCH  11  13
ENDBRANCH   2  11
BRANCH   6  21
ATOM     21  O   UNL     1       0.352   9.757  23.611  0.00  0.00    +0.000 OA
ATOM     22  H   UNL     1       0.597   8.868  23.279  0.00  0.00    +0.000 HD
ENDBRANCH   6  21
BRANCH   3  23
ATOM     23  C   UNL     1       0.244   9.566  18.865  0.00  0.00    +0.000 C 
BRANCH  23  24
ATOM     24  O   UNL     1       1.351  10.096  18.139  0.00  0.00    +0.000 OA
BRANCH  24  25
ATOM     25  C   UNL     1       2.503   9.268  18.050  0.00  0.00    +0.000 C 
BRANCH  25  26
ATOM     26  C   UNL     1       2.171   7.809  17.756  0.00  0.00    +0.000 C 
BRANCH  26  27
ATOM     27  C   UNL     1       3.361   6.922  17.976  0.00  0.00    +0.000 A 
ATOM     28  C   UNL     1       4.386   6.872  17.019  0.00  0.00    +0.000 A 
ATOM     29  C   UNL     1       5.488   6.045  17.214  0.00  0.00    +0.000 A 
ATOM     30  C   UNL     1       5.563   5.274  18.367  0.00  0.00    +0.000 A 
ATOM     31  F   UNL     1       6.632   4.491  18.570  0.00  0.00    +0.000 F 
ATOM     32  C   UNL     1       4.546   5.298  19.317  0.00  0.00    +0.000 A 
ATOM     33  C   UNL     1       3.440   6.119  19.121  0.00  0.00    +0.000 A 
ENDBRANCH  26  27
ENDBRANCH  25  26
ENDBRANCH  24  25
ENDBRANCH  23  24
ENDBRANCH   3  23
TORSDOF 9
ENDMDL
MODEL 6
REMARK VINA RESULT:      -7.7      2.389      4.226
REMARK  Name = 
REMARK  12 active torsions:
REMARK  status: ('A' for Active; 'I' for Inactive)
REMARK    1  A    between atoms: C_1  and  C_2
REMARK    2  A    between atoms: C_2  and  C_3
REMARK    3  A    between atoms: C_4  and  C_5
REMARK    4  A    between atoms: C_5  and  C_7
REMARK    5  A    between atoms: C_9  and  C_10
REMARK    6  A    between atoms: C_12  and  C_13
REMARK    7  A    between atoms: N_15  and  C_16
REMARK    8  A    between atoms: C_16  and  O_17
REMARK    9  A    between atoms: O_17  and  C_18
REMARK   10  A    between atoms: C_18  and  C_19
REMARK   11  A    between atoms: C_19  and  C_20
REMARK   12  A    between atoms: N_29  and  O_30
REMARK                            x       y       z     vdW  Elec       q    Type
REMARK                         _______ _______ _______ _____ _____    ______ ____
ROOT
ATOM      1  C   UNL     1       0.802  13.220  20.352  0.00  0.00    +0.000 A 
ATOM      2  C   UNL     1       0.369  11.971  20.672  0.00  0.00    +0.000 A 
ATOM      3  N   UNL     1       0.792  10.855  19.913  0.00  0.00    +0.000 N 
ATOM      4  C   UNL     1       1.420  11.020  18.675  0.00  0.00    +0.000 A 
ATOM      5  O   UNL     1       1.706  10.103  17.904  0.00  0.00    +0.000 OA
ATOM      6  N   UNL     1       1.792  12.303  18.356  0.00  0.00    +0.000 N 
ATOM      7  C   UNL     1       1.725  13.388  19.183  0.00  0.00    +0.000 A 
ATOM      8  O   UNL     1       2.338  14.439  19.008  0.00  0.00    +0.000 OA
ENDROOT
BRANCH   1  10
ATOM      9  C   UNL     1       1.494  14.976  22.052  0.00  0.00    +0.000 C 
ATOM     10  C   UNL     1       0.469  14.553  21.002  0.00  0.00    +0.000 C 
ENDBRANCH   1  10
BRANCH   2  11
ATOM     11  C   UNL     1      -0.493  11.857  21.936  0.00  0.00    +0.000 C 
ATOM     12  O   UNL     1      -0.036  11.350  22.960  0.00  0.00    +0.000 OA
BRANCH  11  13
ATOM     13  C   UNL     1      -1.927  12.270  21.995  0.00  0.00    +0.000 A 
ATOM     14  C   UNL     1      -2.548  12.297  23.260  0.00  0.00    +0.000 A 
ATOM     15  C   UNL     1      -3.927  12.513  23.382  0.00  0.00    +0.000 A 
ATOM     16  C   UNL     1      -4.602  12.549  24.724  0.00  0.00    +0.000 C 
ATOM     17  C   UNL     1      -4.689  12.683  22.223  0.00  0.00    +0.000 A 
ATOM     18  C   UNL     1      -4.083  12.689  20.959  0.00  0.00    +0.000 A 
ATOM     19  C   UNL     1      -4.922  12.807  19.718  0.00  0.00    +0.000 C 
ATOM     20  C   UNL     1      -2.690  12.541  20.854  0.00  0.00    +0.000 A 
ENDBRANCH  11  13
ENDBRANCH   2  11
BRANCH   6  21
ATOM     21  O   UNL     1       2.640  12.421  17.225  0.00  0.00    +0.000 OA
ATOM     22  H   UNL     1       2.025  12.779  16.550  0.00  0.00    +0.000 HD
ENDBRANCH   6  21
BRANCH   3  23
ATOM     23  C   UNL     1       0.498   9.469  20.270  0.00  0.00    +0.000 C 
BRANCH  23  24
ATOM     24  O   UNL     1       1.371   8.918  21.253  0.00  0.00    +0.000 OA
BRANCH  24  25
ATOM     25  C   UNL     1       1.614   7.520  21.168  0.00  0.00    +0.000 C 
BRANCH  25  26
ATOM     26  C   UNL     1       2.210   7.095  19.830  0.00  0.00    +0.000 C 
BRANCH  26  27
ATOM     27  C   UNL     1       1.857   5.674  19.500  0.00  0.00    +0.000 A 
ATOM     28  C   UNL     1       2.050   5.187  18.199  0.00  0.00    +0.000 A 
ATOM     29  C   UNL     1       1.717   3.872  17.886  0.00  0.00    +0.000 A 
ATOM     30  C   UNL     1       1.196   3.049  18.878  0.00  0.00    +0.000 A 
ATOM     31  F   UNL     1       0.892   1.777  18.587  0.00  0.00    +0.000 F 
ATOM     32  C   UNL     1       0.981   3.523  20.169  0.00  0.00    +0.000 A 
ATOM     33  C   UNL     1       1.307   4.839  20.481  0.00  0.00    +0.000 A 
ENDBRANCH  26  27
ENDBRANCH  25  26
ENDBRANCH  24  25
ENDBRANCH  23  24
ENDBRANCH   3  23
TORSDOF 9
ENDMDL
MODEL 7
REMARK VINA RESULT:      -7.6      1.031      1.361
REMARK  Name = 
REMARK  12 active torsions:
REMARK  status: ('A' for Active; 'I' for Inactive)
REMARK    1  A    between atoms: C_1  and  C_2
REMARK    2  A    between atoms: C_2  and  C_3
REMARK    3  A    between atoms: C_4  and  C_5
REMARK    4  A    between atoms: C_5  and  C_7
REMARK    5  A    between atoms: C_9  and  C_10
REMARK    6  A    between atoms: C_12  and  C_13
REMARK    7  A    between atoms: N_15  and  C_16
REMARK    8  A    between atoms: C_16  and  O_17
REMARK    9  A    between atoms: O_17  and  C_18
REMARK   10  A    between atoms: C_18  and  C_19
REMARK   11  A    between atoms: C_19  and  C_20
REMARK   12  A    between atoms: N_29  and  O_30
REMARK                            x       y       z     vdW  Elec       q    Type
REMARK                         _______ _______ _______ _____ _____    ______ ____
ROOT
ATOM      1  C   UNL     1      -1.165  11.862  21.196  0.00  0.00    +0.000 A 
ATOM      2  C   UNL     1      -0.698  11.257  20.071  0.00  0.00    +0.000 A 
ATOM      3  N   UNL     1       0.052  10.062  20.165  0.00  0.00    +0.000 N 
ATOM      4  C   UNL     1       0.567   9.627  21.389  0.00  0.00    +0.000 A 
ATOM      5  O   UNL     1       1.327   8.668  21.531  0.00  0.00    +0.000 OA
ATOM      6  N   UNL     1       0.120  10.297  22.502  0.00  0.00    +0.000 N 
ATOM      7  C   UNL     1      -0.865  11.242  22.528  0.00  0.00    +0.000 A 
ATOM      8  O   UNL     1      -1.466  11.599  23.540  0.00  0.00    +0.000 OA
ENDROOT
BRANCH   1  10
ATOM      9  C   UNL     1      -3.444  12.898  21.625  0.00  0.00    +0.000 C 
ATOM     10  C   UNL     1      -1.964  13.147  21.341  0.00  0.00    +0.000 C 
ENDBRANCH   1  10
BRANCH   2  11
ATOM     11  C   UNL     1      -1.123  11.888  18.739  0.00  0.00    +0.000 C 
ATOM     12  O   UNL     1      -0.501  12.843  18.274  0.00  0.00    +0.000 OA
BRANCH  11  13
ATOM     13  C   UNL     1      -2.326  11.455  17.968  0.00  0.00    +0.000 A 
ATOM     14  C   UNL     1      -2.121  10.928  16.677  0.00  0.00    +0.000 A 
ATOM     15  C   UNL     1      -3.202  10.653  15.830  0.00  0.00    +0.000 A 
ATOM     16  C   UNL     1      -3.000  10.086  14.453  0.00  0.00    +0.000 C 
ATOM     17  C   UNL     1      -4.498  10.930  16.277  0.00  0.00    +0.000 A 
ATOM     18  C   UNL     1      -4.722  11.426  17.569  0.00  0.00    +0.000 A 
ATOM     19  C   UNL     1      -6.113  11.781  18.012  0.00  0.00    +0.000 C 
ATOM     20  C   UNL     1      -3.633  11.631  18.434  0.00  0.00    +0.000 A 
ENDBRANCH  11  13
ENDBRANCH   2  11
BRANCH   6  21
ATOM     21  O   UNL     1       0.452   9.695  23.742  0.00  0.00    +0.000 OA
ATOM     22  H   UNL     1       0.594  10.479  24.314  0.00  0.00    +0.000 HD
ENDBRANCH   6  21
BRANCH   3  23
ATOM     23  C   UNL     1       0.466   9.268  19.011  0.00  0.00    +0.000 C 
BRANCH  23  24
ATOM     24  O   UNL     1       1.703   9.676  18.431  0.00  0.00    +0.000 OA
BRANCH  24  25
ATOM     25  C   UNL     1       2.680   8.660  18.249  0.00  0.00    +0.000 C 
BRANCH  25  26
ATOM     26  C   UNL     1       2.126   7.409  17.575  0.00  0.00    +0.000 C 
BRANCH  26  27
ATOM     27  C   UNL     1       2.501   6.167  18.331  0.00  0.00    +0.000 A 
ATOM     28  C   UNL     1       2.363   6.127  19.726  0.00  0.00    +0.000 A 
ATOM     29  C   UNL     1       2.717   4.981  20.433  0.00  0.00    +0.000 A 
ATOM     30  C   UNL     1       3.203   3.879  19.740  0.00  0.00    +0.000 A 
ATOM     31  F   UNL     1       3.526   2.767  20.413  0.00  0.00    +0.000 F 
ATOM     32  C   UNL     1       3.363   3.910  18.357  0.00  0.00    +0.000 A 
ATOM     33  C   UNL     1       3.016   5.057  17.650  0.00  0.00    +0.000 A 
ENDBRANCH  26  27
ENDBRANCH  25  26
ENDBRANCH  24  25
ENDBRANCH  23  24
ENDBRANCH   3  23
TORSDOF 9
ENDMDL
MODEL 8
REMARK VINA RESULT:      -7.6      1.955      2.975
REMARK  Name = 
REMARK  12 active torsions:
REMARK  status: ('A' for Active; 'I' for Inactive)
REMARK    1  A    between atoms: C_1  and  C_2
REMARK    2  A    between atoms: C_2  and  C_3
REMARK    3  A    between atoms: C_4  and  C_5
REMARK    4  A    between atoms: C_5  and  C_7
REMARK    5  A    between atoms: C_9  and  C_10
REMARK    6  A    between atoms: C_12  and  C_13
REMARK    7  A    between atoms: N_15  and  C_16
REMARK    8  A    between atoms: C_16  and  O_17
REMARK    9  A    between atoms: O_17  and  C_18
REMARK   10  A    between atoms: C_18  and  C_19
REMARK   11  A    between atoms: C_19  and  C_20
REMARK   12  A    between atoms: N_29  and  O_30
REMARK                            x       y       z     vdW  Elec       q    Type
REMARK                         _______ _______ _______ _____ _____    ______ ____
ROOT
ATOM      1  C   UNL     1       0.204  13.482  19.061  0.00  0.00    +0.000 A 
ATOM      2  C   UNL     1      -0.115  12.159  19.060  0.00  0.00    +0.000 A 
ATOM      3  N   UNL     1       0.860  11.193  18.719  0.00  0.00    +0.000 N 
ATOM      4  C   UNL     1       2.064  11.564  18.115  0.00  0.00    +0.000 A 
ATOM      5  O   UNL     1       2.906  10.776  17.681  0.00  0.00    +0.000 OA
ATOM      6  N   UNL     1       2.329  12.912  18.080  0.00  0.00    +0.000 N 
ATOM      7  C   UNL     1       1.598  13.890  18.690  0.00  0.00    +0.000 A 
ATOM      8  O   UNL     1       2.004  15.028  18.917  0.00  0.00    +0.000 OA
ENDROOT
BRANCH   1  10
ATOM      9  C   UNL     1      -0.740  15.007  20.859  0.00  0.00    +0.000 C 
ATOM     10  C   UNL     1      -0.672  14.686  19.368  0.00  0.00    +0.000 C 
ENDBRANCH   1  10
BRANCH   2  11
ATOM     11  C   UNL     1      -1.527  11.804  19.542  0.00  0.00    +0.000 C 
ATOM     12  O   UNL     1      -1.755  11.641  20.741  0.00  0.00    +0.000 OA
BRANCH  11  13
ATOM     13  C   UNL     1      -2.676  11.563  18.620  0.00  0.00    +0.000 A 
ATOM     14  C   UNL     1      -2.390  11.040  17.342  0.00  0.00    +0.000 A 
ATOM     15  C   UNL     1      -3.388  10.940  16.364  0.00  0.00    +0.000 A 
ATOM     16  C   UNL     1      -3.100  10.380  14.999  0.00  0.00    +0.000 C 
ATOM     17  C   UNL     1      -4.677  11.389  16.666  0.00  0.00    +0.000 A 
ATOM     18  C   UNL     1      -4.986  11.884  17.940  0.00  0.00    +0.000 A 
ATOM     19  C   UNL     1      -6.358  12.424  18.230  0.00  0.00    +0.000 C 
ATOM     20  C   UNL     1      -3.993  11.914  18.934  0.00  0.00    +0.000 A 
ENDBRANCH  11  13
ENDBRANCH   2  11
BRANCH   6  21
ATOM     21  O   UNL     1       3.650  13.257  17.695  0.00  0.00    +0.000 OA
ATOM     22  H   UNL     1       3.967  12.419  17.294  0.00  0.00    +0.000 HD
ENDBRANCH   6  21
BRANCH   3  23
ATOM     23  C   UNL     1       0.651   9.752  18.832  0.00  0.00    +0.000 C 
BRANCH  23  24
ATOM     24  O   UNL     1       0.661   9.260  20.170  0.00  0.00    +0.000 OA
BRANCH  24  25
ATOM     25  C   UNL     1       1.640   8.276  20.474  0.00  0.00    +0.000 C 
BRANCH  25  26
ATOM     26  C   UNL     1       2.222   7.605  19.233  0.00  0.00    +0.000 C 
BRANCH  26  27
ATOM     27  C   UNL     1       2.010   6.120  19.263  0.00  0.00    +0.000 A 
ATOM     28  C   UNL     1       1.641   5.488  20.461  0.00  0.00    +0.000 A 
ATOM     29  C   UNL     1       1.451   4.109  20.496  0.00  0.00    +0.000 A 
ATOM     30  C   UNL     1       1.628   3.370  19.333  0.00  0.00    +0.000 A 
ATOM     31  F   UNL     1       1.428   2.045  19.358  0.00  0.00    +0.000 F 
ATOM     32  C   UNL     1       2.013   3.979  18.142  0.00  0.00    +0.000 A 
ATOM     33  C   UNL     1       2.209   5.355  18.107  0.00  0.00    +0.000 A 
ENDBRANCH  26  27
ENDBRANCH  25  26
ENDBRANCH  24  25
ENDBRANCH  23  24
ENDBRANCH   3  23
TORSDOF 9
ENDMDL
MODEL 9
REMARK VINA RESULT:      -7.5      2.403      4.101
REMARK  Name = 
REMARK  12 active torsions:
REMARK  status: ('A' for Active; 'I' for Inactive)
REMARK    1  A    between atoms: C_1  and  C_2
REMARK    2  A    between atoms: C_2  and  C_3
REMARK    3  A    between atoms: C_4  and  C_5
REMARK    4  A    between atoms: C_5  and  C_7
REMARK    5  A    between atoms: C_9  and  C_10
REMARK    6  A    between atoms: C_12  and  C_13
REMARK    7  A    between atoms: N_15  and  C_16
REMARK    8  A    between atoms: C_16  and  O_17
REMARK    9  A    between atoms: O_17  and  C_18
REMARK   10  A    between atoms: C_18  and  C_19
REMARK   11  A    between atoms: C_19  and  C_20
REMARK   12  A    between atoms: N_29  and  O_30
REMARK                            x       y       z     vdW  Elec       q    Type
REMARK                         _______ _______ _______ _____ _____    ______ ____
ROOT
ATOM      1  C   UNL     1      -1.242  12.319  21.287  0.00  0.00    +0.000 A 
ATOM      2  C   UNL     1      -0.357  12.067  20.286  0.00  0.00    +0.000 A 
ATOM      3  N   UNL     1       0.500  10.945  20.359  0.00  0.00    +0.000 N 
ATOM      4  C   UNL     1       0.663  10.239  21.555  0.00  0.00    +0.000 A 
ATOM      5  O   UNL     1       1.478   9.331  21.729  0.00  0.00    +0.000 OA
ATOM      6  N   UNL     1      -0.209  10.558  22.566  0.00  0.00    +0.000 N 
ATOM      7  C   UNL     1      -1.285  11.392  22.464  0.00  0.00    +0.000 A 
ATOM      8  O   UNL     1      -2.222  11.425  23.260  0.00  0.00    +0.000 OA
ENDROOT
BRANCH   1  10
ATOM      9  C   UNL     1      -3.547  13.208  20.695  0.00  0.00    +0.000 C 
ATOM     10  C   UNL     1      -2.235  13.462  21.434  0.00  0.00    +0.000 C 
ENDBRANCH   1  10
BRANCH   2  11
ATOM     11  C   UNL     1      -0.432  12.997  19.067  0.00  0.00    +0.000 C 
ATOM     12  O   UNL     1      -1.157  12.718  18.113  0.00  0.00    +0.000 OA
BRANCH  11  13
ATOM     13  C   UNL     1       0.398  14.229  18.920  0.00  0.00    +0.000 A 
ATOM     14  C   UNL     1      -0.273  15.469  18.883  0.00  0.00    +0.000 A 
ATOM     15  C   UNL     1       0.413  16.652  18.584  0.00  0.00    +0.000 A 
ATOM     16  C   UNL     1      -0.287  17.982  18.547  0.00  0.00    +0.000 C 
ATOM     17  C   UNL     1       1.781  16.586  18.299  0.00  0.00    +0.000 A 
ATOM     18  C   UNL     1       2.469  15.367  18.359  0.00  0.00    +0.000 A 
ATOM     19  C   UNL     1       3.923  15.300  17.986  0.00  0.00    +0.000 C 
ATOM     20  C   UNL     1       1.783  14.198  18.729  0.00  0.00    +0.000 A 
ENDBRANCH  11  13
ENDBRANCH   2  11
BRANCH   6  21
ATOM     21  O   UNL     1      -0.197   9.674  23.675  0.00  0.00    +0.000 OA
ATOM     22  H   UNL     1      -0.779   8.950  23.360  0.00  0.00    +0.000 HD
ENDBRANCH   6  21
BRANCH   3  23
ATOM     23  C   UNL     1       1.374  10.516  19.271  0.00  0.00    +0.000 C 
BRANCH  23  24
ATOM     24  O   UNL     1       0.904   9.377  18.554  0.00  0.00    +0.000 OA
BRANCH  24  25
ATOM     25  C   UNL     1       1.895   8.566  17.937  0.00  0.00    +0.000 C 
BRANCH  25  26
ATOM     26  C   UNL     1       2.345   7.399  18.811  0.00  0.00    +0.000 C 
BRANCH  26  27
ATOM     27  C   UNL     1       3.176   6.421  18.032  0.00  0.00    +0.000 A 
ATOM     28  C   UNL     1       4.269   6.874  17.277  0.00  0.00    +0.000 A 
ATOM     29  C   UNL     1       5.038   5.972  16.547  0.00  0.00    +0.000 A 
ATOM     30  C   UNL     1       4.713   4.621  16.580  0.00  0.00    +0.000 A 
ATOM     31  F   UNL     1       5.463   3.747  15.895  0.00  0.00    +0.000 F 
ATOM     32  C   UNL     1       3.622   4.159  17.309  0.00  0.00    +0.000 A 
ATOM     33  C   UNL     1       2.848   5.060  18.033  0.00  0.00    +0.000 A 
ENDBRANCH  26  27
ENDBRANCH  25  26
ENDBRANCH  24  25
ENDBRANCH  23  24
ENDBRANCH   3  23
TORSDOF 9
ENDMDL
