MODEL 1
REMARK VINA RESULT:      -6.5      0.000      0.000
REMARK  Name = 
REMARK  7 active torsions:
REMARK  status: ('A' for Active; 'I' for Inactive)
REMARK    1  A    between atoms: C_1  and  O_2
REMARK    2  A    between atoms: O_2  and  C_3
REMARK    3  A    between atoms: C_7  and  C_8
REMARK    4  A    between atoms: C_8  and  N_9
REMARK    5  A    between atoms: N_9  and  C_10
REMARK    6  A    between atoms: C_10  and  C_11
REMARK    7  A    between atoms: N_13  and  C_14
REMARK                            x       y       z     vdW  Elec       q    Type
REMARK                         _______ _______ _______ _____ _____    ______ ____
ROOT
ATOM      1  N   UNL     1       3.108   4.407  17.645  0.00  0.00    +0.000 NA
ATOM      2  H   UNL     1       3.659   4.028  18.416  0.00  0.00    +0.000 HD
ENDROOT
BRANCH   1   3
ATOM      3  C   UNL     1       3.478   5.815  17.512  0.00  0.00    +0.000 C 
BRANCH   3   8
ATOM      4  C   UNL     1       7.074   7.151  17.631  0.00  0.00    +0.000 A 
ATOM      5  C   UNL     1       7.638   6.294  18.581  0.00  0.00    +0.000 A 
ATOM      6  C   UNL     1       6.869   5.304  19.187  0.00  0.00    +0.000 A 
ATOM      7  C   UNL     1       5.528   5.155  18.838  0.00  0.00    +0.000 A 
ATOM      8  C   UNL     1       4.936   6.003  17.888  0.00  0.00    +0.000 A 
ATOM      9  C   UNL     1       5.720   7.009  17.297  0.00  0.00    +0.000 A 
BRANCH   4  11
ATOM     10  C   UNL     1       8.268   9.186  17.922  0.00  0.00    +0.000 C 
ATOM     11  O   UNL     1       7.943   8.066  17.108  0.00  0.00    +0.000 OA
ENDBRANCH   4  11
ENDBRANCH   3   8
ENDBRANCH   1   3
BRANCH   1  12
ATOM     12  C   UNL     1       1.681   4.201  17.927  0.00  0.00    +0.000 C 
BRANCH  12  13
ATOM     13  C   UNL     1       1.419   2.809  18.566  0.00  0.00    +0.000 C 
ATOM     14  C   UNL     1       2.703   2.025  18.928  0.00  0.00    +0.000 C 
ATOM     15  N   UNL     1       3.425   2.664  20.047  0.00  0.00    +0.000 NA
ATOM     16  C   UNL     1       4.652   1.939  20.367  0.00  0.00    +0.000 C 
ATOM     17  C   UNL     1       2.514   2.700  21.210  0.00  0.00    +0.000 C 
ATOM     18  C   UNL     1       1.209   3.437  20.870  0.00  0.00    +0.000 C 
ATOM     19  O   UNL     1       0.550   2.896  19.717  0.00  0.00    +0.000 OA
ENDBRANCH  12  13
ENDBRANCH   1  12
TORSDOF 5
ENDMDL
MODEL 2
REMARK VINA RESULT:      -6.4      1.378      1.549
REMARK  Name = 
REMARK  7 active torsions:
REMARK  status: ('A' for Active; 'I' for Inactive)
REMARK    1  A    between atoms: C_1  and  O_2
REMARK    2  A    between atoms: O_2  and  C_3
REMARK    3  A    between atoms: C_7  and  C_8
REMARK    4  A    between atoms: C_8  and  N_9
REMARK    5  A    between atoms: N_9  and  C_10
REMARK    6  A    between atoms: C_10  and  C_11
REMARK    7  A    between atoms: N_13  and  C_14
REMARK                            x       y       z     vdW  Elec       q    Type
REMARK                         _______ _______ _______ _____ _____    ______ ____
ROOT
ATOM      1  N   UNL     1       2.490   4.129  17.278  0.00  0.00    +0.000 NA
ATOM      2  H   UNL     1       3.007   3.262  17.431  0.00  0.00    +0.000 HD
ENDROOT
BRANCH   1   3
ATOM      3  C   UNL     1       3.338   5.219  17.758  0.00  0.00    +0.000 C 
BRANCH   3   8
ATOM      4  C   UNL     1       6.856   6.161  16.547  0.00  0.00    +0.000 A 
ATOM      5  C   UNL     1       7.132   5.089  15.692  0.00  0.00    +0.000 A 
ATOM      6  C   UNL     1       6.203   4.067  15.515  0.00  0.00    +0.000 A 
ATOM      7  C   UNL     1       4.982   4.115  16.185  0.00  0.00    +0.000 A 
ATOM      8  C   UNL     1       4.679   5.179  17.050  0.00  0.00    +0.000 A 
ATOM      9  C   UNL     1       5.634   6.195  17.232  0.00  0.00    +0.000 A 
BRANCH   4  11
ATOM     10  C   UNL     1       7.905   7.888  17.799  0.00  0.00    +0.000 C 
ATOM     11  O   UNL     1       7.847   7.098  16.618  0.00  0.00    +0.000 OA
ENDBRANCH   4  11
ENDBRANCH   3   8
ENDBRANCH   1   3
BRANCH   1  12
ATOM     12  C   UNL     1       1.197   4.046  17.969  0.00  0.00    +0.000 C 
BRANCH  12  13
ATOM     13  C   UNL     1       1.046   2.707  18.744  0.00  0.00    +0.000 C 
ATOM     14  C   UNL     1       2.373   1.935  18.941  0.00  0.00    +0.000 C 
ATOM     15  N   UNL     1       3.273   2.645  19.872  0.00  0.00    +0.000 NA
ATOM     16  C   UNL     1       4.537   1.929  20.032  0.00  0.00    +0.000 C 
ATOM     17  C   UNL     1       2.573   2.776  21.165  0.00  0.00    +0.000 C 
ATOM     18  C   UNL     1       1.229   3.503  20.998  0.00  0.00    +0.000 C 
ATOM     19  O   UNL     1       0.384   2.888  20.015  0.00  0.00    +0.000 OA
ENDBRANCH  12  13
ENDBRANCH   1  12
TORSDOF 5
ENDMDL
MODEL 3
REMARK VINA RESULT:      -6.3      1.641      1.913
REMARK  Name = 
REMARK  7 active torsions:
REMARK  status: ('A' for Active; 'I' for Inactive)
REMARK    1  A    between atoms: C_1  and  O_2
REMARK    2  A    between atoms: O_2  and  C_3
REMARK    3  A    between atoms: C_7  and  C_8
REMARK    4  A    between atoms: C_8  and  N_9
REMARK    5  A    between atoms: N_9  and  C_10
REMARK    6  A    between atoms: C_10  and  C_11
REMARK    7  A    between atoms: N_13  and  C_14
REMARK                            x       y       z     vdW  Elec       q    Type
REMARK                         _______ _______ _______ _____ _____    ______ ____
ROOT
ATOM      1  N   UNL     1       5.286   3.399  16.623  0.00  0.00    +0.000 NA
ATOM      2  H   UNL     1       5.538   3.268  17.603  0.00  0.00    +0.000 HD
ENDROOT
BRANCH   1   3
ATOM      3  C   UNL     1       6.391   4.119  15.992  0.00  0.00    +0.000 C 
BRANCH   3   8
ATOM      4  C   UNL     1       7.535   7.431  17.556  0.00  0.00    +0.000 A 
ATOM      5  C   UNL     1       8.073   6.976  18.764  0.00  0.00    +0.000 A 
ATOM      6  C   UNL     1       8.058   5.620  19.079  0.00  0.00    +0.000 A 
ATOM      7  C   UNL     1       7.514   4.704  18.181  0.00  0.00    +0.000 A 
ATOM      8  C   UNL     1       6.966   5.134  16.961  0.00  0.00    +0.000 A 
ATOM      9  C   UNL     1       6.973   6.508  16.664  0.00  0.00    +0.000 A 
BRANCH   4  11
ATOM     10  C   UNL     1       8.509   9.494  18.227  0.00  0.00    +0.000 C 
ATOM     11  O   UNL     1       7.627   8.781  17.369  0.00  0.00    +0.000 OA
ENDBRANCH   4  11
ENDBRANCH   3   8
ENDBRANCH   1   3
BRANCH   1  12
ATOM     12  C   UNL     1       4.004   4.114  16.549  0.00  0.00    +0.000 C 
BRANCH  12  13
ATOM     13  C   UNL     1       2.878   3.349  17.299  0.00  0.00    +0.000 C 
ATOM     14  C   UNL     1       3.391   2.300  18.314  0.00  0.00    +0.000 C 
ATOM     15  N   UNL     1       4.044   2.946  19.470  0.00  0.00    +0.000 NA
ATOM     16  C   UNL     1       4.554   1.953  20.412  0.00  0.00    +0.000 C 
ATOM     17  C   UNL     1       3.049   3.826  20.117  0.00  0.00    +0.000 C 
ATOM     18  C   UNL     1       2.487   4.855  19.122  0.00  0.00    +0.000 C 
ATOM     19  O   UNL     1       1.947   4.248  17.941  0.00  0.00    +0.000 OA
ENDBRANCH  12  13
ENDBRANCH   1  12
TORSDOF 5
ENDMDL
MODEL 4
REMARK VINA RESULT:      -6.2      2.018      2.382
REMARK  Name = 
REMARK  7 active torsions:
REMARK  status: ('A' for Active; 'I' for Inactive)
REMARK    1  A    between atoms: C_1  and  O_2
REMARK    2  A    between atoms: O_2  and  C_3
REMARK    3  A    between atoms: C_7  and  C_8
REMARK    4  A    between atoms: C_8  and  N_9
REMARK    5  A    between atoms: N_9  and  C_10
REMARK    6  A    between atoms: C_10  and  C_11
REMARK    7  A    between atoms: N_13  and  C_14
REMARK                            x       y       z     vdW  Elec       q    Type
REMARK                         _______ _______ _______ _____ _____    ______ ____
ROOT
ATOM      1  N   UNL     1       2.960   5.417  18.526  0.00  0.00    +0.000 NA
ATOM      2  H   UNL     1       2.573   5.901  19.337  0.00  0.00    +0.000 HD
ENDROOT
BRANCH   1   3
ATOM      3  C   UNL     1       3.770   6.391  17.796  0.00  0.00    +0.000 C 
BRANCH   3   8
ATOM      4  C   UNL     1       6.642   4.939  15.706  0.00  0.00    +0.000 A 
ATOM      5  C   UNL     1       7.539   4.575  16.714  0.00  0.00    +0.000 A 
ATOM      6  C   UNL     1       7.231   4.805  18.053  0.00  0.00    +0.000 A 
ATOM      7  C   UNL     1       6.013   5.391  18.395  0.00  0.00    +0.000 A 
ATOM      8  C   UNL     1       5.095   5.767  17.402  0.00  0.00    +0.000 A 
ATOM      9  C   UNL     1       5.427   5.545  16.054  0.00  0.00    +0.000 A 
BRANCH   4  11
ATOM     10  C   UNL     1       6.171   3.905  13.617  0.00  0.00    +0.000 C 
ATOM     11  O   UNL     1       7.064   4.646  14.440  0.00  0.00    +0.000 OA
ENDBRANCH   4  11
ENDBRANCH   3   8
ENDBRANCH   1   3
BRANCH   1  12
ATOM     12  C   UNL     1       1.859   4.857  17.730  0.00  0.00    +0.000 C 
BRANCH  12  13
ATOM     13  C   UNL     1       1.900   3.304  17.710  0.00  0.00    +0.000 C 
ATOM     14  C   UNL     1       3.191   2.695  18.307  0.00  0.00    +0.000 C 
ATOM     15  N   UNL     1       3.262   2.911  19.767  0.00  0.00    +0.000 NA
ATOM     16  C   UNL     1       4.496   2.362  20.323  0.00  0.00    +0.000 C 
ATOM     17  C   UNL     1       2.077   2.272  20.375  0.00  0.00    +0.000 C 
ATOM     18  C   UNL     1       0.776   2.825  19.772  0.00  0.00    +0.000 C 
ATOM     19  O   UNL     1       0.739   2.722  18.343  0.00  0.00    +0.000 OA
ENDBRANCH  12  13
ENDBRANCH   1  12
TORSDOF 5
ENDMDL
MODEL 5
REMARK VINA RESULT:      -6.0      4.139      5.047
REMARK  Name = 
REMARK  7 active torsions:
REMARK  status: ('A' for Active; 'I' for Inactive)
REMARK    1  A    between atoms: C_1  and  O_2
REMARK    2  A    between atoms: O_2  and  C_3
REMARK    3  A    between atoms: C_7  and  C_8
REMARK    4  A    between atoms: C_8  and  N_9
REMARK    5  A    between atoms: N_9  and  C_10
REMARK    6  A    between atoms: C_10  and  C_11
REMARK    7  A    between atoms: N_13  and  C_14
REMARK                            x       y       z     vdW  Elec       q    Type
REMARK                         _______ _______ _______ _____ _____    ______ ____
ROOT
ATOM      1  N   UNL     1       5.688   3.763  16.764  0.00  0.00    +0.000 NA
ATOM      2  H   UNL     1       6.242   2.965  17.077  0.00  0.00    +0.000 HD
ENDROOT
BRANCH   1   3
ATOM      3  C   UNL     1       6.627   4.749  16.230  0.00  0.00    +0.000 C 
BRANCH   3   8
ATOM      4  C   UNL     1       6.081   3.512  12.638  0.00  0.00    +0.000 A 
ATOM      5  C   UNL     1       7.024   4.283  11.952  0.00  0.00    +0.000 A 
ATOM      6  C   UNL     1       7.820   5.201  12.634  0.00  0.00    +0.000 A 
ATOM      7  C   UNL     1       7.687   5.346  14.013  0.00  0.00    +0.000 A 
ATOM      8  C   UNL     1       6.746   4.585  14.727  0.00  0.00    +0.000 A 
ATOM      9  C   UNL     1       5.938   3.675  14.023  0.00  0.00    +0.000 A 
BRANCH   4  11
ATOM     10  C   UNL     1       4.170   3.128  11.278  0.00  0.00    +0.000 C 
ATOM     11  O   UNL     1       5.379   2.645  11.851  0.00  0.00    +0.000 OA
ENDBRANCH   4  11
ENDBRANCH   3   8
ENDBRANCH   1   3
BRANCH   1  12
ATOM     12  C   UNL     1       4.888   4.265  17.889  0.00  0.00    +0.000 C 
BRANCH  12  13
ATOM     13  C   UNL     1       4.364   3.106  18.781  0.00  0.00    +0.000 C 
ATOM     14  C   UNL     1       3.422   3.559  19.922  0.00  0.00    +0.000 C 
ATOM     15  N   UNL     1       2.133   4.047  19.392  0.00  0.00    +0.000 NA
ATOM     16  C   UNL     1       1.258   4.503  20.469  0.00  0.00    +0.000 C 
ATOM     17  C   UNL     1       1.509   2.943  18.635  0.00  0.00    +0.000 C 
ATOM     18  C   UNL     1       2.438   2.440  17.518  0.00  0.00    +0.000 C 
ATOM     19  O   UNL     1       3.734   2.064  18.002  0.00  0.00    +0.000 OA
ENDBRANCH  12  13
ENDBRANCH   1  12
TORSDOF 5
ENDMDL
MODEL 6
REMARK VINA RESULT:      -6.0      1.974      2.435
REMARK  Name = 
REMARK  7 active torsions:
REMARK  status: ('A' for Active; 'I' for Inactive)
REMARK    1  A    between atoms: C_1  and  O_2
REMARK    2  A    between atoms: O_2  and  C_3
REMARK    3  A    between atoms: C_7  and  C_8
REMARK    4  A    between atoms: C_8  and  N_9
REMARK    5  A    between atoms: N_9  and  C_10
REMARK    6  A    between atoms: C_10  and  C_11
REMARK    7  A    between atoms: N_13  and  C_14
REMARK                            x       y       z     vdW  Elec       q    Type
REMARK                         _______ _______ _______ _____ _____    ______ ____
ROOT
ATOM      1  N   UNL     1       2.413   5.721  18.107  0.00  0.00    +0.000 NA
ATOM      2  H   UNL     1       2.811   4.816  17.852  0.00  0.00    +0.000 HD
ENDROOT
BRANCH   1   3
ATOM      3  C   UNL     1       3.483   6.708  17.976  0.00  0.00    +0.000 C 
BRANCH   3   8
ATOM      4  C   UNL     1       6.347   5.362  15.805  0.00  0.00    +0.000 A 
ATOM      5  C   UNL     1       7.123   4.713  16.771  0.00  0.00    +0.000 A 
ATOM      6  C   UNL     1       6.737   4.719  18.110  0.00  0.00    +0.000 A 
ATOM      7  C   UNL     1       5.562   5.364  18.491  0.00  0.00    +0.000 A 
ATOM      8  C   UNL     1       4.765   6.024  17.542  0.00  0.00    +0.000 A 
ATOM      9  C   UNL     1       5.177   6.025  16.197  0.00  0.00    +0.000 A 
BRANCH   4  11
ATOM     10  C   UNL     1       6.462   4.118  13.782  0.00  0.00    +0.000 C 
ATOM     11  O   UNL     1       6.834   5.268  14.532  0.00  0.00    +0.000 OA
ENDBRANCH   4  11
ENDBRANCH   3   8
ENDBRANCH   1   3
BRANCH   1  12
ATOM     12  C   UNL     1       1.858   5.636  19.464  0.00  0.00    +0.000 C 
BRANCH  12  13
ATOM     13  C   UNL     1       1.182   4.260  19.722  0.00  0.00    +0.000 C 
ATOM     14  C   UNL     1       1.674   3.127  18.789  0.00  0.00    +0.000 C 
ATOM     15  N   UNL     1       3.073   2.759  19.084  0.00  0.00    +0.000 NA
ATOM     16  C   UNL     1       3.544   1.710  18.182  0.00  0.00    +0.000 C 
ATOM     17  C   UNL     1       3.136   2.313  20.490  0.00  0.00    +0.000 C 
ATOM     18  C   UNL     1       2.614   3.402  21.442  0.00  0.00    +0.000 C 
ATOM     19  O   UNL     1       1.295   3.850  21.103  0.00  0.00    +0.000 OA
ENDBRANCH  12  13
ENDBRANCH   1  12
TORSDOF 5
ENDMDL
MODEL 7
REMARK VINA RESULT:      -6.0      2.555      3.790
REMARK  Name = 
REMARK  7 active torsions:
REMARK  status: ('A' for Active; 'I' for Inactive)
REMARK    1  A    between atoms: C_1  and  O_2
REMARK    2  A    between atoms: O_2  and  C_3
REMARK    3  A    between atoms: C_7  and  C_8
REMARK    4  A    between atoms: C_8  and  N_9
REMARK    5  A    between atoms: N_9  and  C_10
REMARK    6  A    between atoms: C_10  and  C_11
REMARK    7  A    between atoms: N_13  and  C_14
REMARK                            x       y       z     vdW  Elec       q    Type
REMARK                         _______ _______ _______ _____ _____    ______ ____
ROOT
ATOM      1  N   UNL     1       5.240   3.477  18.617  0.00  0.00    +0.000 NA
ATOM      2  H   UNL     1       4.775   3.228  19.490  0.00  0.00    +0.000 HD
ENDROOT
BRANCH   1   3
ATOM      3  C   UNL     1       5.720   4.850  18.767  0.00  0.00    +0.000 C 
BRANCH   3   8
ATOM      4  C   UNL     1       2.528   6.795  19.638  0.00  0.00    +0.000 A 
ATOM      5  C   UNL     1       2.385   7.585  18.493  0.00  0.00    +0.000 A 
ATOM      6  C   UNL     1       3.312   7.504  17.456  0.00  0.00    +0.000 A 
ATOM      7  C   UNL     1       4.385   6.620  17.551  0.00  0.00    +0.000 A 
ATOM      8  C   UNL     1       4.553   5.815  18.690  0.00  0.00    +0.000 A 
ATOM      9  C   UNL     1       3.619   5.921  19.736  0.00  0.00    +0.000 A 
BRANCH   4  11
ATOM     10  C   UNL     1       1.400   8.266  21.126  0.00  0.00    +0.000 C 
ATOM     11  O   UNL     1       1.544   6.965  20.570  0.00  0.00    +0.000 OA
ENDBRANCH   4  11
ENDBRANCH   3   8
ENDBRANCH   1   3
BRANCH   1  12
ATOM     12  C   UNL     1       4.295   3.306  17.505  0.00  0.00    +0.000 C 
BRANCH  12  13
ATOM     13  C   UNL     1       3.228   2.222  17.821  0.00  0.00    +0.000 C 
ATOM     14  C   UNL     1       3.120   1.856  19.321  0.00  0.00    +0.000 C 
ATOM     15  N   UNL     1       2.557   2.974  20.106  0.00  0.00    +0.000 NA
ATOM     16  C   UNL     1       2.485   2.637  21.526  0.00  0.00    +0.000 C 
ATOM     17  C   UNL     1       1.216   3.275  19.565  0.00  0.00    +0.000 C 
ATOM     18  C   UNL     1       1.283   3.602  18.065  0.00  0.00    +0.000 C 
ATOM     19  O   UNL     1       1.927   2.573  17.301  0.00  0.00    +0.000 OA
ENDBRANCH  12  13
ENDBRANCH   1  12
TORSDOF 5
ENDMDL
MODEL 8
REMARK VINA RESULT:      -5.9      2.540      5.684
REMARK  Name = 
REMARK  7 active torsions:
REMARK  status: ('A' for Active; 'I' for Inactive)
REMARK    1  A    between atoms: C_1  and  O_2
REMARK    2  A    between atoms: O_2  and  C_3
REMARK    3  A    between atoms: C_7  and  C_8
REMARK    4  A    between atoms: C_8  and  N_9
REMARK    5  A    between atoms: N_9  and  C_10
REMARK    6  A    between atoms: C_10  and  C_11
REMARK    7  A    between atoms: N_13  and  C_14
REMARK                            x       y       z     vdW  Elec       q    Type
REMARK                         _______ _______ _______ _____ _____    ______ ____
ROOT
ATOM      1  N   UNL     1       5.227   3.141  18.860  0.00  0.00    +0.000 NA
ATOM      2  H   UNL     1       6.135   2.676  18.833  0.00  0.00    +0.000 HD
ENDROOT
BRANCH   1   3
ATOM      3  C   UNL     1       4.459   2.510  19.933  0.00  0.00    +0.000 C 
BRANCH   3   8
ATOM      4  C   UNL     1       1.834   5.241  20.551  0.00  0.00    +0.000 A 
ATOM      5  C   UNL     1       0.655   4.496  20.449  0.00  0.00    +0.000 A 
ATOM      6  C   UNL     1       0.701   3.132  20.172  0.00  0.00    +0.000 A 
ATOM      7  C   UNL     1       1.932   2.498  20.007  0.00  0.00    +0.000 A 
ATOM      8  C   UNL     1       3.131   3.222  20.103  0.00  0.00    +0.000 A 
ATOM      9  C   UNL     1       3.068   4.602  20.365  0.00  0.00    +0.000 A 
BRANCH   4  11
ATOM     10  C   UNL     1       2.057   7.502  19.853  0.00  0.00    +0.000 C 
ATOM     11  O   UNL     1       1.645   6.563  20.838  0.00  0.00    +0.000 OA
ENDBRANCH   4  11
ENDBRANCH   3   8
ENDBRANCH   1   3
BRANCH   1  12
ATOM     12  C   UNL     1       4.590   3.029  17.541  0.00  0.00    +0.000 C 
BRANCH  12  13
ATOM     13  C   UNL     1       4.540   4.400  16.812  0.00  0.00    +0.000 C 
ATOM     14  C   UNL     1       5.337   5.524  17.517  0.00  0.00    +0.000 C 
ATOM     15  N   UNL     1       6.791   5.275  17.448  0.00  0.00    +0.000 NA
ATOM     16  C   UNL     1       7.539   6.322  18.140  0.00  0.00    +0.000 C 
ATOM     17  C   UNL     1       7.170   5.211  16.021  0.00  0.00    +0.000 C 
ATOM     18  C   UNL     1       6.365   4.130  15.281  0.00  0.00    +0.000 C 
ATOM     19  O   UNL     1       4.949   4.295  15.430  0.00  0.00    +0.000 OA
ENDBRANCH  12  13
ENDBRANCH   1  12
TORSDOF 5
ENDMDL
MODEL 9
REMARK VINA RESULT:      -5.9      2.189      3.014
REMARK  Name = 
REMARK  7 active torsions:
REMARK  status: ('A' for Active; 'I' for Inactive)
REMARK    1  A    between atoms: C_1  and  O_2
REMARK    2  A    between atoms: O_2  and  C_3
REMARK    3  A    between atoms: C_7  and  C_8
REMARK    4  A    between atoms: C_8  and  N_9
REMARK    5  A    between atoms: N_9  and  C_10
REMARK    6  A    between atoms: C_10  and  C_11
REMARK    7  A    between atoms: N_13  and  C_14
REMARK                            x       y       z     vdW  Elec       q    Type
REMARK                         _______ _______ _______ _____ _____    ______ ____
ROOT
ATOM      1  N   UNL     1       4.791   2.806  19.084  0.00  0.00    +0.000 NA
ATOM      2  H   UNL     1       4.116   2.703  19.843  0.00  0.00    +0.000 HD
ENDROOT
BRANCH   1   3
ATOM      3  C   UNL     1       5.491   4.070  19.307  0.00  0.00    +0.000 C 
BRANCH   3   8
ATOM      4  C   UNL     1       5.831   5.570  15.791  0.00  0.00    +0.000 A 
ATOM      5  C   UNL     1       5.006   6.692  15.906  0.00  0.00    +0.000 A 
ATOM      6  C   UNL     1       4.336   6.959  17.098  0.00  0.00    +0.000 A 
ATOM      7  C   UNL     1       4.497   6.109  18.191  0.00  0.00    +0.000 A 
ATOM      8  C   UNL     1       5.319   4.974  18.102  0.00  0.00    +0.000 A 
ATOM      9  C   UNL     1       5.975   4.708  16.887  0.00  0.00    +0.000 A 
BRANCH   4  11
ATOM     10  C   UNL     1       6.528   4.119  14.041  0.00  0.00    +0.000 C 
ATOM     11  O   UNL     1       6.436   5.435  14.574  0.00  0.00    +0.000 OA
ENDBRANCH   4  11
ENDBRANCH   3   8
ENDBRANCH   1   3
BRANCH   1  12
ATOM     12  C   UNL     1       4.082   2.749  17.799  0.00  0.00    +0.000 C 
BRANCH  12  13
ATOM     13  C   UNL     1       2.620   2.252  17.973  0.00  0.00    +0.000 C 
ATOM     14  C   UNL     1       2.246   1.875  19.427  0.00  0.00    +0.000 C 
ATOM     15  N   UNL     1       2.192   3.070  20.293  0.00  0.00    +0.000 NA
ATOM     16  C   UNL     1       1.869   2.709  21.671  0.00  0.00    +0.000 C 
ATOM     17  C   UNL     1       1.176   3.986  19.735  0.00  0.00    +0.000 C 
ATOM     18  C   UNL     1       1.496   4.347  18.275  0.00  0.00    +0.000 C 
ATOM     19  O   UNL     1       1.661   3.192  17.441  0.00  0.00    +0.000 OA
ENDBRANCH  12  13
ENDBRANCH   1  12
TORSDOF 5
ENDMDL
