MODEL 1
REMARK VINA RESULT:      -8.0      0.000      0.000
REMARK  Name = 
REMARK  12 active torsions:
REMARK  status: ('A' for Active; 'I' for Inactive)
REMARK    1  A    between atoms: C_1  and  C_2
REMARK    2  A    between atoms: C_2  and  C_3
REMARK    3  A    between atoms: C_3  and  S_4
REMARK    4  A    between atoms: S_4  and  N_7
REMARK    5  A    between atoms: N_7  and  C_8
REMARK    6  A    between atoms: N_7  and  C_9
REMARK    7  A    between atoms: C_9  and  C_10
REMARK    8  A    between atoms: C_10  and  C_11
REMARK    9  A    between atoms: C_11  and  C_12
REMARK   10  A    between atoms: C_18  and  C_19
REMARK   11  A    between atoms: C_19  and  C_20
REMARK   12  A    between atoms: C_27  and  N_28
REMARK                            x       y       z     vdW  Elec       q    Type
REMARK                         _______ _______ _______ _____ _____    ______ ____
ROOT
ATOM      1  C   UNL     1       6.925   7.033  17.640  0.00  0.00    +0.000 A 
ATOM      2  C   UNL     1       7.640   5.869  17.937  0.00  0.00    +0.000 A 
ATOM      3  C   UNL     1       6.968   4.681  18.222  0.00  0.00    +0.000 A 
ATOM      4  C   UNL     1       5.569   4.631  18.217  0.00  0.00    +0.000 A 
ATOM      5  C   UNL     1       4.843   5.795  17.899  0.00  0.00    +0.000 A 
ATOM      6  C   UNL     1       5.528   6.988  17.619  0.00  0.00    +0.000 A 
ATOM      7  C   UNL     1       3.327   5.806  17.935  0.00  0.00    +0.000 C 
ATOM      8  C   UNL     1       2.798   4.374  17.638  0.00  0.00    +0.000 C 
ATOM      9  C   UNL     1       3.365   3.371  18.641  0.00  0.00    +0.000 C 
ATOM     10  C   UNL     1       4.892   3.322  18.549  0.00  0.00    +0.000 C 
ENDROOT
BRANCH   8  11
ATOM     11  N   UNL     1       1.344   4.262  17.506  0.00  0.00    +0.000 NA
ATOM     12  H   UNL     1       0.949   3.593  18.162  0.00  0.00    +0.000 HD
ATOM     13  H   UNL     1       1.073   3.987  16.566  0.00  0.00    +0.000 HD
ENDBRANCH   8  11
BRANCH   1  14
ATOM     14  C   UNL     1       7.647   8.308  17.292  0.00  0.00    +0.000 C 
BRANCH  14  15
ATOM     15  C   UNL     1       8.564   8.762  18.429  0.00  0.00    +0.000 C 
BRANCH  15  16
ATOM     16  C   UNL     1       8.888  10.259  18.435  0.00  0.00    +0.000 C 
BRANCH  16  17
ATOM     17  N   UNL     1       9.875  10.672  19.477  0.00  0.00    +0.000 NA
ATOM     18  C   UNL     1       9.223  11.003  20.768  0.00  0.00    +0.000 C 
BRANCH  17  19
ATOM     19  S   UNL     1      11.165  11.699  19.046  0.00  0.00    +0.000 S 
ATOM     20  O   UNL     1      11.377  11.628  17.614  0.00  0.00    +0.000 OA
ATOM     21  O   UNL     1      12.252  11.431  19.961  0.00  0.00    +0.000 OA
BRANCH  19  22
ATOM     22  C   UNL     1      10.505  13.310  19.451  0.00  0.00    +0.000 C 
BRANCH  22  24
ATOM     23  C   UNL     1      10.913  15.725  18.935  0.00  0.00    +0.000 C 
ATOM     24  C   UNL     1      11.556  14.398  19.294  0.00  0.00    +0.000 C 
ENDBRANCH  22  24
ENDBRANCH  19  22
ENDBRANCH  17  19
ENDBRANCH  16  17
ENDBRANCH  15  16
ENDBRANCH  14  15
ENDBRANCH   1  14
BRANCH   7  25
ATOM     25  C   UNL     1       2.782   6.527  19.208  0.00  0.00    +0.000 C 
BRANCH  25  26
ATOM     26  C   UNL     1       2.114   7.885  19.096  0.00  0.00    +0.000 A 
ATOM     27  C   UNL     1       2.246   8.642  17.919  0.00  0.00    +0.000 A 
ATOM     28  C   UNL     1       1.661   9.908  17.807  0.00  0.00    +0.000 A 
ATOM     29  C   UNL     1       0.913  10.430  18.862  0.00  0.00    +0.000 A 
ATOM     30  C   UNL     1       0.782   9.693  20.027  0.00  0.00    +0.000 A 
ATOM     31  F   UNL     1       0.056  10.182  21.041  0.00  0.00    +0.000 F 
ATOM     32  C   UNL     1       1.394   8.451  20.160  0.00  0.00    +0.000 A 
ENDBRANCH  25  26
ENDBRANCH   7  25
TORSDOF 10
ENDMDL
MODEL 2
REMARK VINA RESULT:      -7.8      5.900      7.722
REMARK  Name = 
REMARK  12 active torsions:
REMARK  status: ('A' for Active; 'I' for Inactive)
REMARK    1  A    between atoms: C_1  and  C_2
REMARK    2  A    between atoms: C_2  and  C_3
REMARK    3  A    between atoms: C_3  and  S_4
REMARK    4  A    between atoms: S_4  and  N_7
REMARK    5  A    between atoms: N_7  and  C_8
REMARK    6  A    between atoms: N_7  and  C_9
REMARK    7  A    between atoms: C_9  and  C_10
REMARK    8  A    between atoms: C_10  and  C_11
REMARK    9  A    between atoms: C_11  and  C_12
REMARK   10  A    between atoms: C_18  and  C_19
REMARK   11  A    between atoms: C_19  and  C_20
REMARK   12  A    between atoms: C_27  and  N_28
REMARK                            x       y       z     vdW  Elec       q    Type
REMARK                         _______ _______ _______ _____ _____    ______ ____
ROOT
ATOM      1  C   UNL     1       2.267   6.589  18.740  0.00  0.00    +0.000 A 
ATOM      2  C   UNL     1       1.302   5.954  17.952  0.00  0.00    +0.000 A 
ATOM      3  C   UNL     1       1.402   4.591  17.676  0.00  0.00    +0.000 A 
ATOM      4  C   UNL     1       2.468   3.835  18.179  0.00  0.00    +0.000 A 
ATOM      5  C   UNL     1       3.432   4.465  18.988  0.00  0.00    +0.000 A 
ATOM      6  C   UNL     1       3.326   5.839  19.258  0.00  0.00    +0.000 A 
ATOM      7  C   UNL     1       4.635   3.702  19.511  0.00  0.00    +0.000 C 
ATOM      8  C   UNL     1       4.264   2.198  19.654  0.00  0.00    +0.000 C 
ATOM      9  C   UNL     1       3.789   1.630  18.318  0.00  0.00    +0.000 C 
ATOM     10  C   UNL     1       2.537   2.366  17.834  0.00  0.00    +0.000 C 
ENDROOT
BRANCH   8  11
ATOM     11  N   UNL     1       5.290   1.360  20.278  0.00  0.00    +0.000 NA
ATOM     12  H   UNL     1       5.287   1.440  21.291  0.00  0.00    +0.000 HD
ATOM     13  H   UNL     1       6.219   1.593  19.940  0.00  0.00    +0.000 HD
ENDBRANCH   8  11
BRANCH   1  14
ATOM     14  C   UNL     1       2.140   8.052  19.074  0.00  0.00    +0.000 C 
BRANCH  14  15
ATOM     15  C   UNL     1       2.218   8.924  17.820  0.00  0.00    +0.000 C 
BRANCH  15  16
ATOM     16  C   UNL     1       1.674  10.346  17.990  0.00  0.00    +0.000 C 
BRANCH  16  17
ATOM     17  N   UNL     1       0.422  10.435  18.798  0.00  0.00    +0.000 NA
ATOM     18  C   UNL     1      -0.788  10.137  17.994  0.00  0.00    +0.000 C 
BRANCH  17  19
ATOM     19  S   UNL     1       0.238  11.707  19.916  0.00  0.00    +0.000 S 
ATOM     20  O   UNL     1      -0.670  12.697  19.373  0.00  0.00    +0.000 OA
ATOM     21  O   UNL     1       1.563  12.090  20.354  0.00  0.00    +0.000 OA
BRANCH  19  22
ATOM     22  C   UNL     1      -0.563  10.882  21.285  0.00  0.00    +0.000 C 
BRANCH  22  24
ATOM     23  C   UNL     1      -0.044   9.498  23.305  0.00  0.00    +0.000 C 
ATOM     24  C   UNL     1       0.307   9.773  21.854  0.00  0.00    +0.000 C 
ENDBRANCH  22  24
ENDBRANCH  19  22
ENDBRANCH  17  19
ENDBRANCH  16  17
ENDBRANCH  15  16
ENDBRANCH  14  15
ENDBRANCH   1  14
BRANCH   7  25
ATOM     25  C   UNL     1       5.933   4.052  18.718  0.00  0.00    +0.000 C 
BRANCH  25  26
ATOM     26  C   UNL     1       5.849   4.561  17.290  0.00  0.00    +0.000 A 
ATOM     27  C   UNL     1       5.622   5.925  17.040  0.00  0.00    +0.000 A 
ATOM     28  C   UNL     1       5.514   6.409  15.731  0.00  0.00    +0.000 A 
ATOM     29  C   UNL     1       5.654   5.542  14.649  0.00  0.00    +0.000 A 
ATOM     30  C   UNL     1       5.873   4.195  14.887  0.00  0.00    +0.000 A 
ATOM     31  F   UNL     1       6.020   3.355  13.853  0.00  0.00    +0.000 F 
ATOM     32  C   UNL     1       5.942   3.700  16.186  0.00  0.00    +0.000 A 
ENDBRANCH  25  26
ENDBRANCH   7  25
TORSDOF 10
ENDMDL
MODEL 3
REMARK VINA RESULT:      -7.6      5.770      7.732
REMARK  Name = 
REMARK  12 active torsions:
REMARK  status: ('A' for Active; 'I' for Inactive)
REMARK    1  A    between atoms: C_1  and  C_2
REMARK    2  A    between atoms: C_2  and  C_3
REMARK    3  A    between atoms: C_3  and  S_4
REMARK    4  A    between atoms: S_4  and  N_7
REMARK    5  A    between atoms: N_7  and  C_8
REMARK    6  A    between atoms: N_7  and  C_9
REMARK    7  A    between atoms: C_9  and  C_10
REMARK    8  A    between atoms: C_10  and  C_11
REMARK    9  A    between atoms: C_11  and  C_12
REMARK   10  A    between atoms: C_18  and  C_19
REMARK   11  A    between atoms: C_19  and  C_20
REMARK   12  A    between atoms: C_27  and  N_28
REMARK                            x       y       z     vdW  Elec       q    Type
REMARK                         _______ _______ _______ _____ _____    ______ ____
ROOT
ATOM      1  C   UNL     1       2.299   6.740  18.668  0.00  0.00    +0.000 A 
ATOM      2  C   UNL     1       1.300   6.117  17.913  0.00  0.00    +0.000 A 
ATOM      3  C   UNL     1       1.363   4.750  17.652  0.00  0.00    +0.000 A 
ATOM      4  C   UNL     1       2.424   3.976  18.138  0.00  0.00    +0.000 A 
ATOM      5  C   UNL     1       3.422   4.593  18.914  0.00  0.00    +0.000 A 
ATOM      6  C   UNL     1       3.354   5.972  19.169  0.00  0.00    +0.000 A 
ATOM      7  C   UNL     1       4.620   3.809  19.416  0.00  0.00    +0.000 C 
ATOM      8  C   UNL     1       4.219   2.316  19.588  0.00  0.00    +0.000 C 
ATOM      9  C   UNL     1       3.698   1.743  18.271  0.00  0.00    +0.000 C 
ATOM     10  C   UNL     1       2.450   2.501  17.810  0.00  0.00    +0.000 C 
ENDROOT
BRANCH   8  11
ATOM     11  N   UNL     1       5.242   1.462  20.196  0.00  0.00    +0.000 NA
ATOM     12  H   UNL     1       6.076   1.984  20.449  0.00  0.00    +0.000 HD
ATOM     13  H   UNL     1       5.513   0.704  19.577  0.00  0.00    +0.000 HD
ENDBRANCH   8  11
BRANCH   1  14
ATOM     14  C   UNL     1       2.214   8.210  18.987  0.00  0.00    +0.000 C 
BRANCH  14  15
ATOM     15  C   UNL     1       1.636   9.006  17.817  0.00  0.00    +0.000 C 
BRANCH  15  16
ATOM     16  C   UNL     1       0.324   9.737  18.121  0.00  0.00    +0.000 C 
BRANCH  16  17
ATOM     17  N   UNL     1       0.480  10.961  18.961  0.00  0.00    +0.000 NA
ATOM     18  C   UNL     1       1.712  11.718  18.628  0.00  0.00    +0.000 C 
BRANCH  17  19
ATOM     19  S   UNL     1       0.120  10.884  20.624  0.00  0.00    +0.000 S 
ATOM     20  O   UNL     1       1.216  11.456  21.380  0.00  0.00    +0.000 OA
ATOM     21  O   UNL     1      -0.340   9.542  20.904  0.00  0.00    +0.000 OA
BRANCH  19  22
ATOM     22  C   UNL     1      -1.293  11.973  20.747  0.00  0.00    +0.000 C 
BRANCH  22  24
ATOM     23  C   UNL     1      -2.021  11.719  23.128  0.00  0.00    +0.000 C 
ATOM     24  C   UNL     1      -1.367  12.638  22.112  0.00  0.00    +0.000 C 
ENDBRANCH  22  24
ENDBRANCH  19  22
ENDBRANCH  17  19
ENDBRANCH  16  17
ENDBRANCH  15  16
ENDBRANCH  14  15
ENDBRANCH   1  14
BRANCH   7  25
ATOM     25  C   UNL     1       5.905   4.120  18.586  0.00  0.00    +0.000 C 
BRANCH  25  26
ATOM     26  C   UNL     1       5.803   4.482  17.115  0.00  0.00    +0.000 A 
ATOM     27  C   UNL     1       6.143   3.540  16.131  0.00  0.00    +0.000 A 
ATOM     28  C   UNL     1       6.081   3.865  14.771  0.00  0.00    +0.000 A 
ATOM     29  C   UNL     1       5.655   5.130  14.371  0.00  0.00    +0.000 A 
ATOM     30  C   UNL     1       5.322   6.067  15.335  0.00  0.00    +0.000 A 
ATOM     31  F   UNL     1       4.901   7.282  14.960  0.00  0.00    +0.000 F 
ATOM     32  C   UNL     1       5.419   5.764  16.690  0.00  0.00    +0.000 A 
ENDBRANCH  25  26
ENDBRANCH   7  25
TORSDOF 10
ENDMDL
MODEL 4
REMARK VINA RESULT:      -7.5      6.047      9.125
REMARK  Name = 
REMARK  12 active torsions:
REMARK  status: ('A' for Active; 'I' for Inactive)
REMARK    1  A    between atoms: C_1  and  C_2
REMARK    2  A    between atoms: C_2  and  C_3
REMARK    3  A    between atoms: C_3  and  S_4
REMARK    4  A    between atoms: S_4  and  N_7
REMARK    5  A    between atoms: N_7  and  C_8
REMARK    6  A    between atoms: N_7  and  C_9
REMARK    7  A    between atoms: C_9  and  C_10
REMARK    8  A    between atoms: C_10  and  C_11
REMARK    9  A    between atoms: C_11  and  C_12
REMARK   10  A    between atoms: C_18  and  C_19
REMARK   11  A    between atoms: C_19  and  C_20
REMARK   12  A    between atoms: C_27  and  N_28
REMARK                            x       y       z     vdW  Elec       q    Type
REMARK                         _______ _______ _______ _____ _____    ______ ____
ROOT
ATOM      1  C   UNL     1       1.517   9.311  17.878  0.00  0.00    +0.000 A 
ATOM      2  C   UNL     1       0.209   8.938  17.552  0.00  0.00    +0.000 A 
ATOM      3  C   UNL     1      -0.848   9.824  17.752  0.00  0.00    +0.000 A 
ATOM      4  C   UNL     1      -0.621  11.100  18.283  0.00  0.00    +0.000 A 
ATOM      5  C   UNL     1       0.695  11.489  18.595  0.00  0.00    +0.000 A 
ATOM      6  C   UNL     1       1.753  10.588  18.395  0.00  0.00    +0.000 A 
ATOM      7  C   UNL     1       0.984  12.838  19.224  0.00  0.00    +0.000 C 
ATOM      8  C   UNL     1      -0.114  13.851  18.791  0.00  0.00    +0.000 C 
ATOM      9  C   UNL     1      -1.500  13.345  19.187  0.00  0.00    +0.000 C 
ATOM     10  C   UNL     1      -1.806  12.014  18.494  0.00  0.00    +0.000 C 
ENDROOT
BRANCH   8  11
ATOM     11  N   UNL     1       0.111  15.234  19.215  0.00  0.00    +0.000 NA
ATOM     12  H   UNL     1      -0.558  15.534  19.918  0.00  0.00    +0.000 HD
ATOM     13  H   UNL     1       0.063  15.878  18.431  0.00  0.00    +0.000 HD
ENDBRANCH   8  11
BRANCH   1  14
ATOM     14  C   UNL     1       2.667   8.371  17.626  0.00  0.00    +0.000 C 
BRANCH  14  15
ATOM     15  C   UNL     1       2.687   7.224  18.637  0.00  0.00    +0.000 C 
BRANCH  15  16
ATOM     16  C   UNL     1       2.345   5.848  18.056  0.00  0.00    +0.000 C 
BRANCH  16  17
ATOM     17  N   UNL     1       2.892   4.697  18.833  0.00  0.00    +0.000 NA
ATOM     18  C   UNL     1       4.282   4.940  19.294  0.00  0.00    +0.000 C 
BRANCH  17  19
ATOM     19  S   UNL     1       2.587   3.108  18.301  0.00  0.00    +0.000 S 
ATOM     20  O   UNL     1       3.648   2.235  18.761  0.00  0.00    +0.000 OA
ATOM     21  O   UNL     1       2.256   3.181  16.895  0.00  0.00    +0.000 OA
BRANCH  19  22
ATOM     22  C   UNL     1       1.086   2.705  19.185  0.00  0.00    +0.000 C 
BRANCH  22  24
ATOM     23  C   UNL     1       1.566   2.669  21.641  0.00  0.00    +0.000 C 
ATOM     24  C   UNL     1       0.986   3.473  20.493  0.00  0.00    +0.000 C 
ENDBRANCH  22  24
ENDBRANCH  19  22
ENDBRANCH  17  19
ENDBRANCH  16  17
ENDBRANCH  15  16
ENDBRANCH  14  15
ENDBRANCH   1  14
BRANCH   7  25
ATOM     25  C   UNL     1       1.289  12.714  20.750  0.00  0.00    +0.000 C 
BRANCH  25  26
ATOM     26  C   UNL     1       0.551  11.697  21.602  0.00  0.00    +0.000 A 
ATOM     27  C   UNL     1       1.045  10.388  21.726  0.00  0.00    +0.000 A 
ATOM     28  C   UNL     1       0.364   9.429  22.484  0.00  0.00    +0.000 A 
ATOM     29  C   UNL     1      -0.812   9.769  23.151  0.00  0.00    +0.000 A 
ATOM     30  C   UNL     1      -1.309  11.056  23.031  0.00  0.00    +0.000 A 
ATOM     31  F   UNL     1      -2.433  11.395  23.677  0.00  0.00    +0.000 F 
ATOM     32  C   UNL     1      -0.658  12.004  22.246  0.00  0.00    +0.000 A 
ENDBRANCH  25  26
ENDBRANCH   7  25
TORSDOF 10
ENDMDL
MODEL 5
REMARK VINA RESULT:      -7.5      6.105      8.450
REMARK  Name = 
REMARK  12 active torsions:
REMARK  status: ('A' for Active; 'I' for Inactive)
REMARK    1  A    between atoms: C_1  and  C_2
REMARK    2  A    between atoms: C_2  and  C_3
REMARK    3  A    between atoms: C_3  and  S_4
REMARK    4  A    between atoms: S_4  and  N_7
REMARK    5  A    between atoms: N_7  and  C_8
REMARK    6  A    between atoms: N_7  and  C_9
REMARK    7  A    between atoms: C_9  and  C_10
REMARK    8  A    between atoms: C_10  and  C_11
REMARK    9  A    between atoms: C_11  and  C_12
REMARK   10  A    between atoms: C_18  and  C_19
REMARK   11  A    between atoms: C_19  and  C_20
REMARK   12  A    between atoms: C_27  and  N_28
REMARK                            x       y       z     vdW  Elec       q    Type
REMARK                         _______ _______ _______ _____ _____    ______ ____
ROOT
ATOM      1  C   UNL     1       2.603   7.995  18.163  0.00  0.00    +0.000 A 
ATOM      2  C   UNL     1       2.119   7.453  19.357  0.00  0.00    +0.000 A 
ATOM      3  C   UNL     1       2.667   6.279  19.872  0.00  0.00    +0.000 A 
ATOM      4  C   UNL     1       3.710   5.623  19.206  0.00  0.00    +0.000 A 
ATOM      5  C   UNL     1       4.215   6.175  18.014  0.00  0.00    +0.000 A 
ATOM      6  C   UNL     1       3.653   7.355  17.499  0.00  0.00    +0.000 A 
ATOM      7  C   UNL     1       5.305   5.473  17.227  0.00  0.00    +0.000 C 
ATOM      8  C   UNL     1       6.174   4.626  18.199  0.00  0.00    +0.000 C 
ATOM      9  C   UNL     1       5.309   3.621  18.959  0.00  0.00    +0.000 C 
ATOM     10  C   UNL     1       4.255   4.346  19.801  0.00  0.00    +0.000 C 
ENDROOT
BRANCH   8  11
ATOM     11  N   UNL     1       7.351   3.997  17.596  0.00  0.00    +0.000 NA
ATOM     12  H   UNL     1       7.341   2.986  17.698  0.00  0.00    +0.000 HD
ATOM     13  H   UNL     1       8.213   4.352  18.001  0.00  0.00    +0.000 HD
ENDBRANCH   8  11
BRANCH   1  14
ATOM     14  C   UNL     1       2.041   9.285  17.625  0.00  0.00    +0.000 C 
BRANCH  14  15
ATOM     15  C   UNL     1       0.765   9.693  18.362  0.00  0.00    +0.000 C 
BRANCH  15  16
ATOM     16  C   UNL     1       0.953  10.790  19.415  0.00  0.00    +0.000 C 
BRANCH  16  17
ATOM     17  N   UNL     1      -0.267  11.086  20.222  0.00  0.00    +0.000 NA
ATOM     18  C   UNL     1      -1.425  11.462  19.374  0.00  0.00    +0.000 C 
BRANCH  17  19
ATOM     19  S   UNL     1      -0.119  11.984  21.663  0.00  0.00    +0.000 S 
ATOM     20  O   UNL     1       0.937  12.965  21.511  0.00  0.00    +0.000 OA
ATOM     21  O   UNL     1      -0.088  11.039  22.758  0.00  0.00    +0.000 OA
BRANCH  19  22
ATOM     22  C   UNL     1      -1.689  12.835  21.731  0.00  0.00    +0.000 C 
BRANCH  22  24
ATOM     23  C   UNL     1      -1.604  14.200  23.827  0.00  0.00    +0.000 C 
ATOM     24  C   UNL     1      -2.189  12.968  23.160  0.00  0.00    +0.000 C 
ENDBRANCH  22  24
ENDBRANCH  19  22
ENDBRANCH  17  19
ENDBRANCH  16  17
ENDBRANCH  15  16
ENDBRANCH  14  15
ENDBRANCH   1  14
BRANCH   7  25
ATOM     25  C   UNL     1       4.737   4.760  15.959  0.00  0.00    +0.000 C 
BRANCH  25  26
ATOM     26  C   UNL     1       5.598   4.592  14.720  0.00  0.00    +0.000 A 
ATOM     27  C   UNL     1       5.211   3.697  13.709  0.00  0.00    +0.000 A 
ATOM     28  C   UNL     1       6.005   3.508  12.572  0.00  0.00    +0.000 A 
ATOM     29  C   UNL     1       7.189   4.228  12.416  0.00  0.00    +0.000 A 
ATOM     30  C   UNL     1       7.579   5.109  13.411  0.00  0.00    +0.000 A 
ATOM     31  F   UNL     1       8.710   5.813  13.265  0.00  0.00    +0.000 F 
ATOM     32  C   UNL     1       6.815   5.272  14.562  0.00  0.00    +0.000 A 
ENDBRANCH  25  26
ENDBRANCH   7  25
TORSDOF 10
ENDMDL
MODEL 6
REMARK VINA RESULT:      -7.4      4.476      7.833
REMARK  Name = 
REMARK  12 active torsions:
REMARK  status: ('A' for Active; 'I' for Inactive)
REMARK    1  A    between atoms: C_1  and  C_2
REMARK    2  A    between atoms: C_2  and  C_3
REMARK    3  A    between atoms: C_3  and  S_4
REMARK    4  A    between atoms: S_4  and  N_7
REMARK    5  A    between atoms: N_7  and  C_8
REMARK    6  A    between atoms: N_7  and  C_9
REMARK    7  A    between atoms: C_9  and  C_10
REMARK    8  A    between atoms: C_10  and  C_11
REMARK    9  A    between atoms: C_11  and  C_12
REMARK   10  A    between atoms: C_18  and  C_19
REMARK   11  A    between atoms: C_19  and  C_20
REMARK   12  A    between atoms: C_27  and  N_28
REMARK                            x       y       z     vdW  Elec       q    Type
REMARK                         _______ _______ _______ _____ _____    ______ ____
ROOT
ATOM      1  C   UNL     1       1.381   9.164  18.716  0.00  0.00    +0.000 A 
ATOM      2  C   UNL     1       1.523   8.906  20.083  0.00  0.00    +0.000 A 
ATOM      3  C   UNL     1       0.734   9.580  21.013  0.00  0.00    +0.000 A 
ATOM      4  C   UNL     1      -0.212  10.526  20.599  0.00  0.00    +0.000 A 
ATOM      5  C   UNL     1      -0.373  10.776  19.223  0.00  0.00    +0.000 A 
ATOM      6  C   UNL     1       0.429  10.096  18.293  0.00  0.00    +0.000 A 
ATOM      7  C   UNL     1      -1.345  11.831  18.728  0.00  0.00    +0.000 C 
ATOM      8  C   UNL     1      -2.503  11.982  19.755  0.00  0.00    +0.000 C 
ATOM      9  C   UNL     1      -1.956  12.343  21.135  0.00  0.00    +0.000 C 
ATOM     10  C   UNL     1      -1.029  11.239  21.651  0.00  0.00    +0.000 C 
ENDROOT
BRANCH   8  11
ATOM     11  N   UNL     1      -3.590  12.873  19.341  0.00  0.00    +0.000 NA
ATOM     12  H   UNL     1      -3.311  13.850  19.351  0.00  0.00    +0.000 HD
ATOM     13  H   UNL     1      -4.407  12.766  19.935  0.00  0.00    +0.000 HD
ENDBRANCH   8  11
BRANCH   1  14
ATOM     14  C   UNL     1       2.203   8.409  17.705  0.00  0.00    +0.000 C 
BRANCH  14  15
ATOM     15  C   UNL     1       2.392   6.947  18.113  0.00  0.00    +0.000 C 
BRANCH  15  16
ATOM     16  C   UNL     1       3.845   6.461  18.113  0.00  0.00    +0.000 C 
BRANCH  16  17
ATOM     17  N   UNL     1       4.122   5.348  17.157  0.00  0.00    +0.000 NA
ATOM     18  C   UNL     1       4.140   4.024  17.827  0.00  0.00    +0.000 C 
BRANCH  17  19
ATOM     19  S   UNL     1       5.312   5.554  15.956  0.00  0.00    +0.000 S 
ATOM     20  O   UNL     1       5.195   6.882  15.387  0.00  0.00    +0.000 OA
ATOM     21  O   UNL     1       5.272   4.386  15.104  0.00  0.00    +0.000 OA
BRANCH  19  22
ATOM     22  C   UNL     1       6.821   5.470  16.913  0.00  0.00    +0.000 C 
BRANCH  22  24
ATOM     23  C   UNL     1       8.042   6.846  18.610  0.00  0.00    +0.000 C 
ATOM     24  C   UNL     1       7.334   6.856  17.267  0.00  0.00    +0.000 C 
ENDBRANCH  22  24
ENDBRANCH  19  22
ENDBRANCH  17  19
ENDBRANCH  16  17
ENDBRANCH  15  16
ENDBRANCH  14  15
ENDBRANCH   1  14
BRANCH   7  25
ATOM     25  C   UNL     1      -0.608  13.130  18.274  0.00  0.00    +0.000 C 
BRANCH  25  26
ATOM     26  C   UNL     1       0.734  13.505  18.878  0.00  0.00    +0.000 A 
ATOM     27  C   UNL     1       0.805  13.983  20.197  0.00  0.00    +0.000 A 
ATOM     28  C   UNL     1       2.030  14.360  20.761  0.00  0.00    +0.000 A 
ATOM     29  C   UNL     1       3.207  14.242  20.024  0.00  0.00    +0.000 A 
ATOM     30  C   UNL     1       3.145  13.775  18.722  0.00  0.00    +0.000 A 
ATOM     31  F   UNL     1       4.272  13.648  18.009  0.00  0.00    +0.000 F 
ATOM     32  C   UNL     1       1.926  13.437  18.141  0.00  0.00    +0.000 A 
ENDBRANCH  25  26
ENDBRANCH   7  25
TORSDOF 10
ENDMDL
MODEL 7
REMARK VINA RESULT:      -7.4      1.610      1.679
REMARK  Name = 
REMARK  12 active torsions:
REMARK  status: ('A' for Active; 'I' for Inactive)
REMARK    1  A    between atoms: C_1  and  C_2
REMARK    2  A    between atoms: C_2  and  C_3
REMARK    3  A    between atoms: C_3  and  S_4
REMARK    4  A    between atoms: S_4  and  N_7
REMARK    5  A    between atoms: N_7  and  C_8
REMARK    6  A    between atoms: N_7  and  C_9
REMARK    7  A    between atoms: C_9  and  C_10
REMARK    8  A    between atoms: C_10  and  C_11
REMARK    9  A    between atoms: C_11  and  C_12
REMARK   10  A    between atoms: C_18  and  C_19
REMARK   11  A    between atoms: C_19  and  C_20
REMARK   12  A    between atoms: C_27  and  N_28
REMARK                            x       y       z     vdW  Elec       q    Type
REMARK                         _______ _______ _______ _____ _____    ______ ____
ROOT
ATOM      1  C   UNL     1       6.950   7.488  17.703  0.00  0.00    +0.000 A 
ATOM      2  C   UNL     1       7.789   6.407  17.992  0.00  0.00    +0.000 A 
ATOM      3  C   UNL     1       7.251   5.145  18.243  0.00  0.00    +0.000 A 
ATOM      4  C   UNL     1       5.866   4.938  18.212  0.00  0.00    +0.000 A 
ATOM      5  C   UNL     1       5.019   6.018  17.903  0.00  0.00    +0.000 A 
ATOM      6  C   UNL     1       5.568   7.286  17.656  0.00  0.00    +0.000 A 
ATOM      7  C   UNL     1       3.510   5.856  17.912  0.00  0.00    +0.000 C 
ATOM      8  C   UNL     1       3.152   4.380  17.580  0.00  0.00    +0.000 C 
ATOM      9  C   UNL     1       3.813   3.428  18.575  0.00  0.00    +0.000 C 
ATOM     10  C   UNL     1       5.338   3.554  18.509  0.00  0.00    +0.000 C 
ENDROOT
BRANCH   8  11
ATOM     11  N   UNL     1       1.722   4.107  17.420  0.00  0.00    +0.000 NA
ATOM     12  H   UNL     1       1.337   4.549  16.590  0.00  0.00    +0.000 HD
ATOM     13  H   UNL     1       1.189   4.420  18.227  0.00  0.00    +0.000 HD
ENDBRANCH   8  11
BRANCH   1  14
ATOM     14  C   UNL     1       7.529   8.843  17.391  0.00  0.00    +0.000 C 
BRANCH  14  15
ATOM     15  C   UNL     1       8.535   9.283  18.456  0.00  0.00    +0.000 C 
BRANCH  15  16
ATOM     16  C   UNL     1       9.305  10.565  18.123  0.00  0.00    +0.000 C 
BRANCH  16  17
ATOM     17  N   UNL     1       9.634  11.412  19.308  0.00  0.00    +0.000 NA
ATOM     18  C   UNL     1       9.266  10.756  20.587  0.00  0.00    +0.000 C 
BRANCH  17  19
ATOM     19  S   UNL     1       9.324  13.086  19.251  0.00  0.00    +0.000 S 
ATOM     20  O   UNL     1      10.558  13.794  18.974  0.00  0.00    +0.000 OA
ATOM     21  O   UNL     1       8.536  13.418  20.417  0.00  0.00    +0.000 OA
BRANCH  19  22
ATOM     22  C   UNL     1       8.255  13.215  17.824  0.00  0.00    +0.000 C 
BRANCH  22  24
ATOM     23  C   UNL     1       6.174  14.605  17.890  0.00  0.00    +0.000 C 
ATOM     24  C   UNL     1       7.678  14.615  17.684  0.00  0.00    +0.000 C 
ENDBRANCH  22  24
ENDBRANCH  19  22
ENDBRANCH  17  19
ENDBRANCH  16  17
ENDBRANCH  15  16
ENDBRANCH  14  15
ENDBRANCH   1  14
BRANCH   7  25
ATOM     25  C   UNL     1       2.868   6.486  19.188  0.00  0.00    +0.000 C 
BRANCH  25  26
ATOM     26  C   UNL     1       2.133   7.812  19.105  0.00  0.00    +0.000 A 
ATOM     27  C   UNL     1       2.145   8.552  17.911  0.00  0.00    +0.000 A 
ATOM     28  C   UNL     1       1.497   9.789  17.823  0.00  0.00    +0.000 A 
ATOM     29  C   UNL     1       0.806  10.297  18.922  0.00  0.00    +0.000 A 
ATOM     30  C   UNL     1       0.794   9.577  20.105  0.00  0.00    +0.000 A 
ATOM     31  F   UNL     1       0.124  10.053  21.163  0.00  0.00    +0.000 F 
ATOM     32  C   UNL     1       1.469   8.365  20.211  0.00  0.00    +0.000 A 
ENDBRANCH  25  26
ENDBRANCH   7  25
TORSDOF 10
ENDMDL
MODEL 8
REMARK VINA RESULT:      -7.3      4.908      7.280
REMARK  Name = 
REMARK  12 active torsions:
REMARK  status: ('A' for Active; 'I' for Inactive)
REMARK    1  A    between atoms: C_1  and  C_2
REMARK    2  A    between atoms: C_2  and  C_3
REMARK    3  A    between atoms: C_3  and  S_4
REMARK    4  A    between atoms: S_4  and  N_7
REMARK    5  A    between atoms: N_7  and  C_8
REMARK    6  A    between atoms: N_7  and  C_9
REMARK    7  A    between atoms: C_9  and  C_10
REMARK    8  A    between atoms: C_10  and  C_11
REMARK    9  A    between atoms: C_11  and  C_12
REMARK   10  A    between atoms: C_18  and  C_19
REMARK   11  A    between atoms: C_19  and  C_20
REMARK   12  A    between atoms: C_27  and  N_28
REMARK                            x       y       z     vdW  Elec       q    Type
REMARK                         _______ _______ _______ _____ _____    ______ ____
ROOT
ATOM      1  C   UNL     1       2.353   6.954  19.059  0.00  0.00    +0.000 A 
ATOM      2  C   UNL     1       2.896   7.428  17.861  0.00  0.00    +0.000 A 
ATOM      3  C   UNL     1       2.787   8.776  17.521  0.00  0.00    +0.000 A 
ATOM      4  C   UNL     1       2.133   9.677  18.370  0.00  0.00    +0.000 A 
ATOM      5  C   UNL     1       1.603   9.210  19.587  0.00  0.00    +0.000 A 
ATOM      6  C   UNL     1       1.712   7.851  19.919  0.00  0.00    +0.000 A 
ATOM      7  C   UNL     1       0.838  10.137  20.514  0.00  0.00    +0.000 C 
ATOM      8  C   UNL     1       1.350  11.592  20.320  0.00  0.00    +0.000 C 
ATOM      9  C   UNL     1       1.201  12.026  18.863  0.00  0.00    +0.000 C 
ATOM     10  C   UNL     1       2.030  11.123  17.945  0.00  0.00    +0.000 C 
ENDROOT
BRANCH   8  11
ATOM     11  N   UNL     1       0.794  12.578  21.250  0.00  0.00    +0.000 NA
ATOM     12  H   UNL     1       0.424  12.146  22.091  0.00  0.00    +0.000 HD
ATOM     13  H   UNL     1       0.055  13.124  20.818  0.00  0.00    +0.000 HD
ENDBRANCH   8  11
BRANCH   1  14
ATOM     14  C   UNL     1       2.504   5.507  19.449  0.00  0.00    +0.000 C 
BRANCH  14  15
ATOM     15  C   UNL     1       3.972   5.129  19.648  0.00  0.00    +0.000 C 
BRANCH  15  16
ATOM     16  C   UNL     1       4.611   4.384  18.472  0.00  0.00    +0.000 C 
BRANCH  16  17
ATOM     17  N   UNL     1       6.080   4.607  18.324  0.00  0.00    +0.000 NA
ATOM     18  C   UNL     1       6.626   5.478  19.394  0.00  0.00    +0.000 C 
BRANCH  17  19
ATOM     19  S   UNL     1       6.730   4.889  16.775  0.00  0.00    +0.000 S 
ATOM     20  O   UNL     1       8.088   4.383  16.725  0.00  0.00    +0.000 OA
ATOM     21  O   UNL     1       6.449   6.265  16.433  0.00  0.00    +0.000 OA
BRANCH  19  22
ATOM     22  C   UNL     1       5.695   3.856  15.746  0.00  0.00    +0.000 C 
BRANCH  22  24
ATOM     23  C   UNL     1       6.203   3.716  13.299  0.00  0.00    +0.000 C 
ATOM     24  C   UNL     1       5.464   4.484  14.381  0.00  0.00    +0.000 C 
ENDBRANCH  22  24
ENDBRANCH  19  22
ENDBRANCH  17  19
ENDBRANCH  16  17
ENDBRANCH  15  16
ENDBRANCH  14  15
ENDBRANCH   1  14
BRANCH   7  25
ATOM     25  C   UNL     1      -0.702   9.897  20.432  0.00  0.00    +0.000 C 
BRANCH  25  26
ATOM     26  C   UNL     1      -1.493  10.379  19.230  0.00  0.00    +0.000 A 
ATOM     27  C   UNL     1      -2.267  11.548  19.317  0.00  0.00    +0.000 A 
ATOM     28  C   UNL     1      -3.025  11.994  18.228  0.00  0.00    +0.000 A 
ATOM     29  C   UNL     1      -3.003  11.291  17.025  0.00  0.00    +0.000 A 
ATOM     30  C   UNL     1      -2.247  10.135  16.931  0.00  0.00    +0.000 A 
ATOM     31  F   UNL     1      -2.212   9.458  15.776  0.00  0.00    +0.000 F 
ATOM     32  C   UNL     1      -1.522   9.664  18.023  0.00  0.00    +0.000 A 
ENDBRANCH  25  26
ENDBRANCH   7  25
TORSDOF 10
ENDMDL
MODEL 9
REMARK VINA RESULT:      -7.3      1.100      1.262
REMARK  Name = 
REMARK  12 active torsions:
REMARK  status: ('A' for Active; 'I' for Inactive)
REMARK    1  A    between atoms: C_1  and  C_2
REMARK    2  A    between atoms: C_2  and  C_3
REMARK    3  A    between atoms: C_3  and  S_4
REMARK    4  A    between atoms: S_4  and  N_7
REMARK    5  A    between atoms: N_7  and  C_8
REMARK    6  A    between atoms: N_7  and  C_9
REMARK    7  A    between atoms: C_9  and  C_10
REMARK    8  A    between atoms: C_10  and  C_11
REMARK    9  A    between atoms: C_11  and  C_12
REMARK   10  A    between atoms: C_18  and  C_19
REMARK   11  A    between atoms: C_19  and  C_20
REMARK   12  A    between atoms: C_27  and  N_28
REMARK                            x       y       z     vdW  Elec       q    Type
REMARK                         _______ _______ _______ _____ _____    ______ ____
ROOT
ATOM      1  C   UNL     1       6.911   7.276  17.753  0.00  0.00    +0.000 A 
ATOM      2  C   UNL     1       7.692   6.144  18.008  0.00  0.00    +0.000 A 
ATOM      3  C   UNL     1       7.090   4.906  18.225  0.00  0.00    +0.000 A 
ATOM      4  C   UNL     1       5.696   4.772  18.195  0.00  0.00    +0.000 A 
ATOM      5  C   UNL     1       4.905   5.903  17.920  0.00  0.00    +0.000 A 
ATOM      6  C   UNL     1       5.519   7.148  17.707  0.00  0.00    +0.000 A 
ATOM      7  C   UNL     1       3.391   5.820  17.932  0.00  0.00    +0.000 C 
ATOM      8  C   UNL     1       2.955   4.375  17.559  0.00  0.00    +0.000 C 
ATOM      9  C   UNL     1       3.568   3.361  18.524  0.00  0.00    +0.000 C 
ATOM     10  C   UNL     1       5.097   3.410  18.454  0.00  0.00    +0.000 C 
ENDROOT
BRANCH   8  11
ATOM     11  N   UNL     1       1.512   4.181  17.398  0.00  0.00    +0.000 NA
ATOM     12  H   UNL     1       1.026   4.157  18.290  0.00  0.00    +0.000 HD
ATOM     13  H   UNL     1       1.303   3.323  16.896  0.00  0.00    +0.000 HD
ENDBRANCH   8  11
BRANCH   1  14
ATOM     14  C   UNL     1       7.558   8.607  17.478  0.00  0.00    +0.000 C 
BRANCH  14  15
ATOM     15  C   UNL     1       8.781   8.832  18.368  0.00  0.00    +0.000 C 
BRANCH  15  16
ATOM     16  C   UNL     1       8.746  10.120  19.197  0.00  0.00    +0.000 C 
BRANCH  16  17
ATOM     17  N   UNL     1       9.811  11.107  18.849  0.00  0.00    +0.000 NA
ATOM     18  C   UNL     1      10.698  11.406  20.000  0.00  0.00    +0.000 C 
BRANCH  17  19
ATOM     19  S   UNL     1       9.418  12.455  17.884  0.00  0.00    +0.000 S 
ATOM     20  O   UNL     1       8.110  12.258  17.293  0.00  0.00    +0.000 OA
ATOM     21  O   UNL     1      10.565  12.734  17.048  0.00  0.00    +0.000 OA
BRANCH  19  22
ATOM     22  C   UNL     1       9.309  13.761  19.100  0.00  0.00    +0.000 C 
BRANCH  22  24
ATOM     23  C   UNL     1       9.164  16.238  19.424  0.00  0.00    +0.000 C 
ATOM     24  C   UNL     1       8.937  15.088  18.460  0.00  0.00    +0.000 C 
ENDBRANCH  22  24
ENDBRANCH  19  22
ENDBRANCH  17  19
ENDBRANCH  16  17
ENDBRANCH  15  16
ENDBRANCH  14  15
ENDBRANCH   1  14
BRANCH   7  25
ATOM     25  C   UNL     1       2.786   6.445  19.227  0.00  0.00    +0.000 C 
BRANCH  25  26
ATOM     26  C   UNL     1       2.077   7.787  19.176  0.00  0.00    +0.000 A 
ATOM     27  C   UNL     1       2.043   8.522  17.979  0.00  0.00    +0.000 A 
ATOM     28  C   UNL     1       1.419   9.773  17.919  0.00  0.00    +0.000 A 
ATOM     29  C   UNL     1       0.797  10.301  19.050  0.00  0.00    +0.000 A 
ATOM     30  C   UNL     1       0.830   9.585  20.235  0.00  0.00    +0.000 A 
ATOM     31  F   UNL     1       0.226  10.079  21.324  0.00  0.00    +0.000 F 
ATOM     32  C   UNL     1       1.483   8.359  20.312  0.00  0.00    +0.000 A 
ENDBRANCH  25  26
ENDBRANCH   7  25
TORSDOF 10
ENDMDL
