MODEL 1
REMARK VINA RESULT:      -7.6      0.000      0.000
REMARK  Name = 
REMARK  11 active torsions:
REMARK  status: ('A' for Active; 'I' for Inactive)
REMARK    1  A    between atoms: C_1  and  C_2
REMARK    2  A    between atoms: C_4  and  C_5
REMARK    3  A    between atoms: C_5  and  C_6
REMARK    4  A    between atoms: C_6  and  C_7
REMARK    5  A    between atoms: C_7  and  O_9
REMARK    6  A    between atoms: C_10  and  C_11
REMARK    7  A    between atoms: N_12  and  C_13
REMARK    8  A    between atoms: C_16  and  C_17
REMARK    9  A    between atoms: C_17  and  C_18
REMARK   10  A    between atoms: C_17  and  C_19
REMARK   11  A    between atoms: C_17  and  C_20
REMARK                            x       y       z     vdW  Elec       q    Type
REMARK                         _______ _______ _______ _____ _____    ______ ____
ROOT
ATOM      1  C   UNL     1       1.439   4.036  18.248  0.00  0.00    +0.000 C 
ATOM      2  C   UNL     1       2.780   4.493  17.776  0.00  0.00    +0.000 A 
ATOM      3  C   UNL     1       3.731   3.706  17.156  0.00  0.00    +0.000 A 
ATOM      4  C   UNL     1       4.808   4.524  16.754  0.00  0.00    +0.000 A 
ATOM      5  C   UNL     1       4.504   5.818  17.165  0.00  0.00    +0.000 A 
ATOM      6  C   UNL     1       5.390   7.022  17.073  0.00  0.00    +0.000 C 
ATOM      7  N   UNL     1       3.254   5.807  17.805  0.00  0.00    +0.000 N 
ENDROOT
BRANCH   7   8
ATOM      8  C   UNL     1       2.602   6.937  18.399  0.00  0.00    +0.000 A 
ATOM      9  C   UNL     1       2.362   6.970  19.773  0.00  0.00    +0.000 A 
ATOM     10  C   UNL     1       1.662   8.027  20.360  0.00  0.00    +0.000 A 
ATOM     11  C   UNL     1       1.223   9.120  19.604  0.00  0.00    +0.000 A 
ATOM     12  C   UNL     1       1.497   9.094  18.224  0.00  0.00    +0.000 A 
ATOM     13  C   UNL     1       2.165   8.015  17.626  0.00  0.00    +0.000 A 
BRANCH  11  14
ATOM     14  C   UNL     1       0.512  10.322  20.244  0.00  0.00    +0.000 C 
ATOM     15  C   UNL     1      -0.884  10.602  19.642  0.00  0.00    +0.000 C 
ATOM     16  C   UNL     1       0.321  10.039  21.749  0.00  0.00    +0.000 C 
ATOM     17  C   UNL     1       1.350  11.606  20.066  0.00  0.00    +0.000 C 
ENDBRANCH  11  14
ENDBRANCH   7   8
BRANCH   4  18
ATOM     18  C   UNL     1       6.063   4.049  16.081  0.00  0.00    +0.000 C 
BRANCH  18  19
ATOM     19  C   UNL     1       5.959   4.031  14.559  0.00  0.00    +0.000 C 
BRANCH  19  20
ATOM     20  C   UNL     1       7.101   4.801  13.938  0.00  0.00    +0.000 C 
ATOM     21  O   UNL     1       7.826   5.588  14.524  0.00  0.00    +0.000 OA
BRANCH  20  22
ATOM     22  O   UNL     1       7.254   4.524  12.622  0.00  0.00    +0.000 OA
ATOM     23  H   UNL     1       6.591   3.896  12.276  0.00  0.00    +0.000 HD
ENDBRANCH  20  22
ENDBRANCH  19  20
ENDBRANCH  18  19
ENDBRANCH   4  18
TORSDOF 6
ENDMDL
MODEL 2
REMARK VINA RESULT:      -7.4      0.411      1.591
REMARK  Name = 
REMARK  11 active torsions:
REMARK  status: ('A' for Active; 'I' for Inactive)
REMARK    1  A    between atoms: C_1  and  C_2
REMARK    2  A    between atoms: C_4  and  C_5
REMARK    3  A    between atoms: C_5  and  C_6
REMARK    4  A    between atoms: C_6  and  C_7
REMARK    5  A    between atoms: C_7  and  O_9
REMARK    6  A    between atoms: C_10  and  C_11
REMARK    7  A    between atoms: N_12  and  C_13
REMARK    8  A    between atoms: C_16  and  C_17
REMARK    9  A    between atoms: C_17  and  C_18
REMARK   10  A    between atoms: C_17  and  C_19
REMARK   11  A    between atoms: C_17  and  C_20
REMARK                            x       y       z     vdW  Elec       q    Type
REMARK                         _______ _______ _______ _____ _____    ______ ____
ROOT
ATOM      1  C   UNL     1       1.326   3.992  18.496  0.00  0.00    +0.000 C 
ATOM      2  C   UNL     1       2.648   4.437  17.965  0.00  0.00    +0.000 A 
ATOM      3  C   UNL     1       3.591   3.629  17.361  0.00  0.00    +0.000 A 
ATOM      4  C   UNL     1       4.648   4.437  16.889  0.00  0.00    +0.000 A 
ATOM      5  C   UNL     1       4.339   5.747  17.241  0.00  0.00    +0.000 A 
ATOM      6  C   UNL     1       5.208   6.954  17.064  0.00  0.00    +0.000 C 
ATOM      7  N   UNL     1       3.107   5.756  17.915  0.00  0.00    +0.000 N 
ENDROOT
BRANCH   7   8
ATOM      8  C   UNL     1       2.457   6.908  18.467  0.00  0.00    +0.000 A 
ATOM      9  C   UNL     1       2.015   7.936  17.632  0.00  0.00    +0.000 A 
ATOM     10  C   UNL     1       1.448   9.100  18.156  0.00  0.00    +0.000 A 
ATOM     11  C   UNL     1       1.248   9.258  19.532  0.00  0.00    +0.000 A 
ATOM     12  C   UNL     1       1.667   8.204  20.365  0.00  0.00    +0.000 A 
ATOM     13  C   UNL     1       2.274   7.051  19.844  0.00  0.00    +0.000 A 
BRANCH  11  14
ATOM     14  C   UNL     1       0.564  10.502  20.119  0.00  0.00    +0.000 C 
ATOM     15  C   UNL     1       0.472  10.482  21.663  0.00  0.00    +0.000 C 
ATOM     16  C   UNL     1       1.378  11.750  19.719  0.00  0.00    +0.000 C 
ATOM     17  C   UNL     1      -0.876  10.634  19.580  0.00  0.00    +0.000 C 
ENDBRANCH  11  14
ENDBRANCH   7   8
BRANCH   4  18
ATOM     18  C   UNL     1       5.889   3.941  16.207  0.00  0.00    +0.000 C 
BRANCH  18  19
ATOM     19  C   UNL     1       5.928   4.268  14.717  0.00  0.00    +0.000 C 
BRANCH  19  20
ATOM     20  C   UNL     1       7.104   5.162  14.399  0.00  0.00    +0.000 C 
ATOM     21  O   UNL     1       7.518   5.416  13.280  0.00  0.00    +0.000 OA
BRANCH  20  22
ATOM     22  O   UNL     1       7.675   5.679  15.513  0.00  0.00    +0.000 OA
ATOM     23  H   UNL     1       8.477   6.206  15.332  0.00  0.00    +0.000 HD
ENDBRANCH  20  22
ENDBRANCH  19  20
ENDBRANCH  18  19
ENDBRANCH   4  18
TORSDOF 6
ENDMDL
MODEL 3
REMARK VINA RESULT:      -7.3      0.490      1.075
REMARK  Name = 
REMARK  11 active torsions:
REMARK  status: ('A' for Active; 'I' for Inactive)
REMARK    1  A    between atoms: C_1  and  C_2
REMARK    2  A    between atoms: C_4  and  C_5
REMARK    3  A    between atoms: C_5  and  C_6
REMARK    4  A    between atoms: C_6  and  C_7
REMARK    5  A    between atoms: C_7  and  O_9
REMARK    6  A    between atoms: C_10  and  C_11
REMARK    7  A    between atoms: N_12  and  C_13
REMARK    8  A    between atoms: C_16  and  C_17
REMARK    9  A    between atoms: C_17  and  C_18
REMARK   10  A    between atoms: C_17  and  C_19
REMARK   11  A    between atoms: C_17  and  C_20
REMARK                            x       y       z     vdW  Elec       q    Type
REMARK                         _______ _______ _______ _____ _____    ______ ____
ROOT
ATOM      1  C   UNL     1       1.518   4.241  17.903  0.00  0.00    +0.000 C 
ATOM      2  C   UNL     1       2.906   4.727  17.644  0.00  0.00    +0.000 A 
ATOM      3  C   UNL     1       3.927   3.993  17.073  0.00  0.00    +0.000 A 
ATOM      4  C   UNL     1       5.044   4.835  16.885  0.00  0.00    +0.000 A 
ATOM      5  C   UNL     1       4.688   6.087  17.377  0.00  0.00    +0.000 A 
ATOM      6  C   UNL     1       5.576   7.286  17.510  0.00  0.00    +0.000 C 
ATOM      7  N   UNL     1       3.369   6.028  17.856  0.00  0.00    +0.000 N 
ENDROOT
BRANCH   7   8
ATOM      8  C   UNL     1       2.647   7.102  18.471  0.00  0.00    +0.000 A 
ATOM      9  C   UNL     1       2.324   7.049  19.827  0.00  0.00    +0.000 A 
ATOM     10  C   UNL     1       1.556   8.050  20.428  0.00  0.00    +0.000 A 
ATOM     11  C   UNL     1       1.129   9.172  19.709  0.00  0.00    +0.000 A 
ATOM     12  C   UNL     1       1.487   9.234  18.349  0.00  0.00    +0.000 A 
ATOM     13  C   UNL     1       2.224   8.211  17.734  0.00  0.00    +0.000 A 
BRANCH  11  14
ATOM     14  C   UNL     1       0.343  10.314  20.370  0.00  0.00    +0.000 C 
ATOM     15  C   UNL     1       1.145  11.632  20.475  0.00  0.00    +0.000 C 
ATOM     16  C   UNL     1      -0.915  10.602  19.526  0.00  0.00    +0.000 C 
ATOM     17  C   UNL     1      -0.078   9.924  21.803  0.00  0.00    +0.000 C 
ENDBRANCH  11  14
ENDBRANCH   7   8
BRANCH   4  18
ATOM     18  C   UNL     1       6.372   4.414  16.328  0.00  0.00    +0.000 C 
BRANCH  18  19
ATOM     19  C   UNL     1       6.253   3.553  15.075  0.00  0.00    +0.000 C 
BRANCH  19  20
ATOM     20  C   UNL     1       6.687   4.328  13.853  0.00  0.00    +0.000 C 
ATOM     21  O   UNL     1       7.381   5.330  13.859  0.00  0.00    +0.000 OA
BRANCH  20  22
ATOM     22  O   UNL     1       6.218   3.784  12.704  0.00  0.00    +0.000 OA
ATOM     23  H   UNL     1       5.500   4.301  12.292  0.00  0.00    +0.000 HD
ENDBRANCH  20  22
ENDBRANCH  19  20
ENDBRANCH  18  19
ENDBRANCH   4  18
TORSDOF 6
ENDMDL
MODEL 4
REMARK VINA RESULT:      -7.2      0.610      1.542
REMARK  Name = 
REMARK  11 active torsions:
REMARK  status: ('A' for Active; 'I' for Inactive)
REMARK    1  A    between atoms: C_1  and  C_2
REMARK    2  A    between atoms: C_4  and  C_5
REMARK    3  A    between atoms: C_5  and  C_6
REMARK    4  A    between atoms: C_6  and  C_7
REMARK    5  A    between atoms: C_7  and  O_9
REMARK    6  A    between atoms: C_10  and  C_11
REMARK    7  A    between atoms: N_12  and  C_13
REMARK    8  A    between atoms: C_16  and  C_17
REMARK    9  A    between atoms: C_17  and  C_18
REMARK   10  A    between atoms: C_17  and  C_19
REMARK   11  A    between atoms: C_17  and  C_20
REMARK                            x       y       z     vdW  Elec       q    Type
REMARK                         _______ _______ _______ _____ _____    ______ ____
ROOT
ATOM      1  C   UNL     1       1.460   4.071  17.886  0.00  0.00    +0.000 C 
ATOM      2  C   UNL     1       2.858   4.546  17.663  0.00  0.00    +0.000 A 
ATOM      3  C   UNL     1       3.890   3.800  17.129  0.00  0.00    +0.000 A 
ATOM      4  C   UNL     1       5.018   4.633  16.967  0.00  0.00    +0.000 A 
ATOM      5  C   UNL     1       4.657   5.892  17.437  0.00  0.00    +0.000 A 
ATOM      6  C   UNL     1       5.549   7.086  17.584  0.00  0.00    +0.000 C 
ATOM      7  N   UNL     1       3.324   5.845  17.877  0.00  0.00    +0.000 N 
ENDROOT
BRANCH   7   8
ATOM      8  C   UNL     1       2.592   6.930  18.460  0.00  0.00    +0.000 A 
ATOM      9  C   UNL     1       2.155   7.992  17.667  0.00  0.00    +0.000 A 
ATOM     10  C   UNL     1       1.505   9.095  18.227  0.00  0.00    +0.000 A 
ATOM     11  C   UNL     1       1.216   9.153  19.596  0.00  0.00    +0.000 A 
ATOM     12  C   UNL     1       1.631   8.063  20.384  0.00  0.00    +0.000 A 
ATOM     13  C   UNL     1       2.319   6.974  19.830  0.00  0.00    +0.000 A 
BRANCH  11  14
ATOM     14  C   UNL     1       0.443  10.326  20.217  0.00  0.00    +0.000 C 
ATOM     15  C   UNL     1       1.204  11.670  20.147  0.00  0.00    +0.000 C 
ATOM     16  C   UNL     1      -0.885  10.504  19.451  0.00  0.00    +0.000 C 
ATOM     17  C   UNL     1       0.143  10.050  21.705  0.00  0.00    +0.000 C 
ENDBRANCH  11  14
ENDBRANCH   7   8
BRANCH   4  18
ATOM     18  C   UNL     1       6.359   4.198  16.453  0.00  0.00    +0.000 C 
BRANCH  18  19
ATOM     19  C   UNL     1       7.006   5.218  15.521  0.00  0.00    +0.000 C 
BRANCH  19  20
ATOM     20  C   UNL     1       7.012   4.711  14.098  0.00  0.00    +0.000 C 
ATOM     21  O   UNL     1       7.519   5.281  13.146  0.00  0.00    +0.000 OA
BRANCH  20  22
ATOM     22  O   UNL     1       6.382   3.519  13.973  0.00  0.00    +0.000 OA
ATOM     23  H   UNL     1       5.508   3.492  14.407  0.00  0.00    +0.000 HD
ENDBRANCH  20  22
ENDBRANCH  19  20
ENDBRANCH  18  19
ENDBRANCH   4  18
TORSDOF 6
ENDMDL
MODEL 5
REMARK VINA RESULT:      -7.1      0.896      1.676
REMARK  Name = 
REMARK  11 active torsions:
REMARK  status: ('A' for Active; 'I' for Inactive)
REMARK    1  A    between atoms: C_1  and  C_2
REMARK    2  A    between atoms: C_4  and  C_5
REMARK    3  A    between atoms: C_5  and  C_6
REMARK    4  A    between atoms: C_6  and  C_7
REMARK    5  A    between atoms: C_7  and  O_9
REMARK    6  A    between atoms: C_10  and  C_11
REMARK    7  A    between atoms: N_12  and  C_13
REMARK    8  A    between atoms: C_16  and  C_17
REMARK    9  A    between atoms: C_17  and  C_18
REMARK   10  A    between atoms: C_17  and  C_19
REMARK   11  A    between atoms: C_17  and  C_20
REMARK                            x       y       z     vdW  Elec       q    Type
REMARK                         _______ _______ _______ _____ _____    ______ ____
ROOT
ATOM      1  C   UNL     1       2.048   3.261  17.839  0.00  0.00    +0.000 C 
ATOM      2  C   UNL     1       3.307   3.955  17.438  0.00  0.00    +0.000 A 
ATOM      3  C   UNL     1       4.301   3.429  16.636  0.00  0.00    +0.000 A 
ATOM      4  C   UNL     1       5.265   4.429  16.390  0.00  0.00    +0.000 A 
ATOM      5  C   UNL     1       4.850   5.564  17.079  0.00  0.00    +0.000 A 
ATOM      6  C   UNL     1       5.601   6.852  17.224  0.00  0.00    +0.000 C 
ATOM      7  N   UNL     1       3.643   5.277  17.738  0.00  0.00    +0.000 N 
ENDROOT
BRANCH   7   8
ATOM      8  C   UNL     1       2.909   6.175  18.580  0.00  0.00    +0.000 A 
ATOM      9  C   UNL     1       2.479   7.409  18.088  0.00  0.00    +0.000 A 
ATOM     10  C   UNL     1       1.828   8.329  18.913  0.00  0.00    +0.000 A 
ATOM     11  C   UNL     1       1.532   8.030  20.248  0.00  0.00    +0.000 A 
ATOM     12  C   UNL     1       1.940   6.771  20.727  0.00  0.00    +0.000 A 
ATOM     13  C   UNL     1       2.629   5.862  19.911  0.00  0.00    +0.000 A 
BRANCH  11  14
ATOM     14  C   UNL     1       0.757   9.003  21.150  0.00  0.00    +0.000 C 
ATOM     15  C   UNL     1      -0.608   8.449  21.622  0.00  0.00    +0.000 C 
ATOM     16  C   UNL     1       1.601   9.291  22.408  0.00  0.00    +0.000 C 
ATOM     17  C   UNL     1       0.477  10.326  20.406  0.00  0.00    +0.000 C 
ENDBRANCH  11  14
ENDBRANCH   7   8
BRANCH   4  18
ATOM     18  C   UNL     1       6.525   4.252  15.594  0.00  0.00    +0.000 C 
BRANCH  18  19
ATOM     19  C   UNL     1       6.269   3.902  14.132  0.00  0.00    +0.000 C 
BRANCH  19  20
ATOM     20  C   UNL     1       7.208   4.667  13.228  0.00  0.00    +0.000 C 
ATOM     21  O   UNL     1       7.346   4.482  12.030  0.00  0.00    +0.000 OA
BRANCH  20  22
ATOM     22  O   UNL     1       7.907   5.615  13.896  0.00  0.00    +0.000 OA
ATOM     23  H   UNL     1       7.882   5.508  14.866  0.00  0.00    +0.000 HD
ENDBRANCH  20  22
ENDBRANCH  19  20
ENDBRANCH  18  19
ENDBRANCH   4  18
TORSDOF 6
ENDMDL
MODEL 6
REMARK VINA RESULT:      -7.0      0.836      1.680
REMARK  Name = 
REMARK  11 active torsions:
REMARK  status: ('A' for Active; 'I' for Inactive)
REMARK    1  A    between atoms: C_1  and  C_2
REMARK    2  A    between atoms: C_4  and  C_5
REMARK    3  A    between atoms: C_5  and  C_6
REMARK    4  A    between atoms: C_6  and  C_7
REMARK    5  A    between atoms: C_7  and  O_9
REMARK    6  A    between atoms: C_10  and  C_11
REMARK    7  A    between atoms: N_12  and  C_13
REMARK    8  A    between atoms: C_16  and  C_17
REMARK    9  A    between atoms: C_17  and  C_18
REMARK   10  A    between atoms: C_17  and  C_19
REMARK   11  A    between atoms: C_17  and  C_20
REMARK                            x       y       z     vdW  Elec       q    Type
REMARK                         _______ _______ _______ _____ _____    ______ ____
ROOT
ATOM      1  C   UNL     1       1.731   3.920  17.854  0.00  0.00    +0.000 C 
ATOM      2  C   UNL     1       3.101   4.441  17.570  0.00  0.00    +0.000 A 
ATOM      3  C   UNL     1       4.147   3.716  17.033  0.00  0.00    +0.000 A 
ATOM      4  C   UNL     1       5.235   4.586  16.804  0.00  0.00    +0.000 A 
ATOM      5  C   UNL     1       4.836   5.847  17.237  0.00  0.00    +0.000 A 
ATOM      6  C   UNL     1       5.683   7.081  17.311  0.00  0.00    +0.000 C 
ATOM      7  N   UNL     1       3.520   5.765  17.720  0.00  0.00    +0.000 N 
ENDROOT
BRANCH   7   8
ATOM      8  C   UNL     1       2.761   6.842  18.284  0.00  0.00    +0.000 A 
ATOM      9  C   UNL     1       2.310   7.885  17.474  0.00  0.00    +0.000 A 
ATOM     10  C   UNL     1       1.633   8.981  18.016  0.00  0.00    +0.000 A 
ATOM     11  C   UNL     1       1.333   9.050  19.381  0.00  0.00    +0.000 A 
ATOM     12  C   UNL     1       1.763   7.979  20.186  0.00  0.00    +0.000 A 
ATOM     13  C   UNL     1       2.477   6.897  19.651  0.00  0.00    +0.000 A 
BRANCH  11  14
ATOM     14  C   UNL     1       0.531  10.215  19.982  0.00  0.00    +0.000 C 
ATOM     15  C   UNL     1       0.360  10.117  21.516  0.00  0.00    +0.000 C 
ATOM     16  C   UNL     1       1.272  11.533  19.680  0.00  0.00    +0.000 C 
ATOM     17  C   UNL     1      -0.885  10.271  19.370  0.00  0.00    +0.000 C 
ENDBRANCH  11  14
ENDBRANCH   7   8
BRANCH   4  18
ATOM     18  C   UNL     1       6.577   4.185  16.265  0.00  0.00    +0.000 C 
BRANCH  18  19
ATOM     19  C   UNL     1       6.856   4.740  14.872  0.00  0.00    +0.000 C 
BRANCH  19  20
ATOM     20  C   UNL     1       6.035   4.011  13.834  0.00  0.00    +0.000 C 
ATOM     21  O   UNL     1       4.846   4.185  13.621  0.00  0.00    +0.000 OA
BRANCH  20  22
ATOM     22  O   UNL     1       6.768   3.114  13.134  0.00  0.00    +0.000 OA
ATOM     23  H   UNL     1       6.838   3.324  12.183  0.00  0.00    +0.000 HD
ENDBRANCH  20  22
ENDBRANCH  19  20
ENDBRANCH  18  19
ENDBRANCH   4  18
TORSDOF 6
ENDMDL
MODEL 7
REMARK VINA RESULT:      -6.9      0.655      1.112
REMARK  Name = 
REMARK  11 active torsions:
REMARK  status: ('A' for Active; 'I' for Inactive)
REMARK    1  A    between atoms: C_1  and  C_2
REMARK    2  A    between atoms: C_4  and  C_5
REMARK    3  A    between atoms: C_5  and  C_6
REMARK    4  A    between atoms: C_6  and  C_7
REMARK    5  A    between atoms: C_7  and  O_9
REMARK    6  A    between atoms: C_10  and  C_11
REMARK    7  A    between atoms: N_12  and  C_13
REMARK    8  A    between atoms: C_16  and  C_17
REMARK    9  A    between atoms: C_17  and  C_18
REMARK   10  A    between atoms: C_17  and  C_19
REMARK   11  A    between atoms: C_17  and  C_20
REMARK                            x       y       z     vdW  Elec       q    Type
REMARK                         _______ _______ _______ _____ _____    ______ ____
ROOT
ATOM      1  C   UNL     1       1.394   4.272  19.336  0.00  0.00    +0.000 C 
ATOM      2  C   UNL     1       2.624   4.711  18.612  0.00  0.00    +0.000 A 
ATOM      3  C   UNL     1       3.555   3.880  18.020  0.00  0.00    +0.000 A 
ATOM      4  C   UNL     1       4.502   4.671  17.336  0.00  0.00    +0.000 A 
ATOM      5  C   UNL     1       4.143   5.998  17.547  0.00  0.00    +0.000 A 
ATOM      6  C   UNL     1       4.907   7.215  17.122  0.00  0.00    +0.000 C 
ATOM      7  N   UNL     1       2.986   6.033  18.342  0.00  0.00    +0.000 N 
ENDROOT
BRANCH   7   8
ATOM      8  C   UNL     1       2.319   7.213  18.807  0.00  0.00    +0.000 A 
ATOM      9  C   UNL     1       2.059   7.386  20.168  0.00  0.00    +0.000 A 
ATOM     10  C   UNL     1       1.345   8.492  20.634  0.00  0.00    +0.000 A 
ATOM     11  C   UNL     1       0.910   9.499  19.763  0.00  0.00    +0.000 A 
ATOM     12  C   UNL     1       1.205   9.333  18.397  0.00  0.00    +0.000 A 
ATOM     13  C   UNL     1       1.887   8.203  17.922  0.00  0.00    +0.000 A 
BRANCH  11  14
ATOM     14  C   UNL     1       0.183  10.755  20.267  0.00  0.00    +0.000 C 
ATOM     15  C   UNL     1      -0.208  10.681  21.761  0.00  0.00    +0.000 C 
ATOM     16  C   UNL     1       1.117  11.970  20.090  0.00  0.00    +0.000 C 
ATOM     17  C   UNL     1      -1.117  10.986  19.468  0.00  0.00    +0.000 C 
ENDBRANCH  11  14
ENDBRANCH   7   8
BRANCH   4  18
ATOM     18  C   UNL     1       5.700   4.154  16.595  0.00  0.00    +0.000 C 
BRANCH  18  19
ATOM     19  C   UNL     1       5.523   4.170  15.079  0.00  0.00    +0.000 C 
BRANCH  19  20
ATOM     20  C   UNL     1       6.780   4.663  14.401  0.00  0.00    +0.000 C 
ATOM     21  O   UNL     1       7.712   5.219  14.956  0.00  0.00    +0.000 OA
BRANCH  20  22
ATOM     22  O   UNL     1       6.777   4.417  13.069  0.00  0.00    +0.000 OA
ATOM     23  H   UNL     1       6.292   5.087  12.550  0.00  0.00    +0.000 HD
ENDBRANCH  20  22
ENDBRANCH  19  20
ENDBRANCH  18  19
ENDBRANCH   4  18
TORSDOF 6
ENDMDL
MODEL 8
REMARK VINA RESULT:      -6.9      2.776      3.789
REMARK  Name = 
REMARK  11 active torsions:
REMARK  status: ('A' for Active; 'I' for Inactive)
REMARK    1  A    between atoms: C_1  and  C_2
REMARK    2  A    between atoms: C_4  and  C_5
REMARK    3  A    between atoms: C_5  and  C_6
REMARK    4  A    between atoms: C_6  and  C_7
REMARK    5  A    between atoms: C_7  and  O_9
REMARK    6  A    between atoms: C_10  and  C_11
REMARK    7  A    between atoms: N_12  and  C_13
REMARK    8  A    between atoms: C_16  and  C_17
REMARK    9  A    between atoms: C_17  and  C_18
REMARK   10  A    between atoms: C_17  and  C_19
REMARK   11  A    between atoms: C_17  and  C_20
REMARK                            x       y       z     vdW  Elec       q    Type
REMARK                         _______ _______ _______ _____ _____    ______ ____
ROOT
ATOM      1  C   UNL     1       5.115   7.020  17.459  0.00  0.00    +0.000 C 
ATOM      2  C   UNL     1       4.386   5.979  18.242  0.00  0.00    +0.000 A 
ATOM      3  C   UNL     1       4.795   4.673  18.431  0.00  0.00    +0.000 A 
ATOM      4  C   UNL     1       3.904   4.041  19.324  0.00  0.00    +0.000 A 
ATOM      5  C   UNL     1       2.932   4.981  19.653  0.00  0.00    +0.000 A 
ATOM      6  C   UNL     1       1.703   4.751  20.477  0.00  0.00    +0.000 C 
ATOM      7  N   UNL     1       3.218   6.181  18.981  0.00  0.00    +0.000 N 
ENDROOT
BRANCH   7   8
ATOM      8  C   UNL     1       2.436   7.380  19.032  0.00  0.00    +0.000 A 
ATOM      9  C   UNL     1       1.934   7.843  20.249  0.00  0.00    +0.000 A 
ATOM     10  C   UNL     1       1.108   8.969  20.310  0.00  0.00    +0.000 A 
ATOM     11  C   UNL     1       0.797   9.708  19.163  0.00  0.00    +0.000 A 
ATOM     12  C   UNL     1       1.333   9.253  17.944  0.00  0.00    +0.000 A 
ATOM     13  C   UNL     1       2.129   8.101  17.875  0.00  0.00    +0.000 A 
BRANCH  11  14
ATOM     14  C   UNL     1      -0.054  10.986  19.223  0.00  0.00    +0.000 C 
ATOM     15  C   UNL     1      -1.299  10.939  18.306  0.00  0.00    +0.000 C 
ATOM     16  C   UNL     1      -0.550  11.183  20.670  0.00  0.00    +0.000 C 
ATOM     17  C   UNL     1       0.779  12.212  18.795  0.00  0.00    +0.000 C 
ENDBRANCH  11  14
ENDBRANCH   7   8
BRANCH   4  18
ATOM     18  C   UNL     1       3.974   2.606  19.759  0.00  0.00    +0.000 C 
BRANCH  18  19
ATOM     19  C   UNL     1       3.590   1.624  18.657  0.00  0.00    +0.000 C 
BRANCH  19  20
ATOM     20  C   UNL     1       2.308   2.053  17.984  0.00  0.00    +0.000 C 
ATOM     21  O   UNL     1       2.231   2.709  16.958  0.00  0.00    +0.000 OA
BRANCH  20  22
ATOM     22  O   UNL     1       1.208   1.624  18.649  0.00  0.00    +0.000 OA
ATOM     23  H   UNL     1       1.255   0.686  18.915  0.00  0.00    +0.000 HD
ENDBRANCH  20  22
ENDBRANCH  19  20
ENDBRANCH  18  19
ENDBRANCH   4  18
TORSDOF 6
ENDMDL
MODEL 9
REMARK VINA RESULT:      -6.8      2.596      3.791
REMARK  Name = 
REMARK  11 active torsions:
REMARK  status: ('A' for Active; 'I' for Inactive)
REMARK    1  A    between atoms: C_1  and  C_2
REMARK    2  A    between atoms: C_4  and  C_5
REMARK    3  A    between atoms: C_5  and  C_6
REMARK    4  A    between atoms: C_6  and  C_7
REMARK    5  A    between atoms: C_7  and  O_9
REMARK    6  A    between atoms: C_10  and  C_11
REMARK    7  A    between atoms: N_12  and  C_13
REMARK    8  A    between atoms: C_16  and  C_17
REMARK    9  A    between atoms: C_17  and  C_18
REMARK   10  A    between atoms: C_17  and  C_19
REMARK   11  A    between atoms: C_17  and  C_20
REMARK                            x       y       z     vdW  Elec       q    Type
REMARK                         _______ _______ _______ _____ _____    ______ ____
ROOT
ATOM      1  C   UNL     1       5.628   7.047  17.626  0.00  0.00    +0.000 C 
ATOM      2  C   UNL     1       4.656   5.915  17.666  0.00  0.00    +0.000 A 
ATOM      3  C   UNL     1       4.936   4.596  17.366  0.00  0.00    +0.000 A 
ATOM      4  C   UNL     1       3.794   3.814  17.638  0.00  0.00    +0.000 A 
ATOM      5  C   UNL     1       2.807   4.687  18.085  0.00  0.00    +0.000 A 
ATOM      6  C   UNL     1       1.379   4.350  18.388  0.00  0.00    +0.000 C 
ATOM      7  N   UNL     1       3.329   5.991  18.098  0.00  0.00    +0.000 N 
ENDROOT
BRANCH   7   8
ATOM      8  C   UNL     1       2.617   7.179  18.465  0.00  0.00    +0.000 A 
ATOM      9  C   UNL     1       2.230   7.387  19.790  0.00  0.00    +0.000 A 
ATOM     10  C   UNL     1       1.471   8.502  20.156  0.00  0.00    +0.000 A 
ATOM     11  C   UNL     1       1.117   9.481  19.221  0.00  0.00    +0.000 A 
ATOM     12  C   UNL     1       1.539   9.280  17.893  0.00  0.00    +0.000 A 
ATOM     13  C   UNL     1       2.267   8.142  17.516  0.00  0.00    +0.000 A 
BRANCH  11  14
ATOM     14  C   UNL     1       0.342  10.746  19.619  0.00  0.00    +0.000 C 
ATOM     15  C   UNL     1       0.084  10.856  21.139  0.00  0.00    +0.000 C 
ATOM     16  C   UNL     1       1.162  11.982  19.196  0.00  0.00    +0.000 C 
ATOM     17  C   UNL     1      -1.035  10.780  18.922  0.00  0.00    +0.000 C 
ENDBRANCH  11  14
ENDBRANCH   7   8
BRANCH   4  18
ATOM     18  C   UNL     1       3.672   2.335  17.409  0.00  0.00    +0.000 C 
BRANCH  18  19
ATOM     19  C   UNL     1       3.189   1.574  18.639  0.00  0.00    +0.000 C 
BRANCH  19  20
ATOM     20  C   UNL     1       3.931   2.031  19.874  0.00  0.00    +0.000 C 
ATOM     21  O   UNL     1       3.434   2.610  20.825  0.00  0.00    +0.000 OA
BRANCH  20  22
ATOM     22  O   UNL     1       5.249   1.723  19.827  0.00  0.00    +0.000 OA
ATOM     23  H   UNL     1       5.699   1.799  20.690  0.00  0.00    +0.000 HD
ENDBRANCH  20  22
ENDBRANCH  19  20
ENDBRANCH  18  19
ENDBRANCH   4  18
TORSDOF 6
ENDMDL
