MODEL 1
REMARK VINA RESULT:      -6.7      0.000      0.000
REMARK  Name = 
REMARK  1 active torsions:
REMARK  status: ('A' for Active; 'I' for Inactive)
REMARK    1  A    between atoms: C_1  and  N_2
REMARK                            x       y       z     vdW  Elec       q    Type
REMARK                         _______ _______ _______ _____ _____    ______ ____
ROOT
ATOM      1  C   UNL     1       2.190   5.419  20.880  0.00  0.00    +0.000 C 
ATOM      2  N   UNL     1       2.619   6.093  19.640  0.00  0.00    +0.000 N 
ATOM      3  C   UNL     1       3.447   5.463  18.701  0.00  0.00    +0.000 A 
ATOM      4  C   UNL     1       3.914   4.122  18.836  0.00  0.00    +0.000 A 
ATOM      5  C   UNL     1       4.722   3.532  17.860  0.00  0.00    +0.000 A 
ATOM      6  C   UNL     1       5.101   4.244  16.729  0.00  0.00    +0.000 A 
ATOM      7  C   UNL     1       4.675   5.554  16.560  0.00  0.00    +0.000 A 
ATOM      8  C   UNL     1       3.857   6.165  17.523  0.00  0.00    +0.000 A 
ATOM      9  C   UNL     1       3.441   7.472  17.310  0.00  0.00    +0.000 A 
ATOM     10  C   UNL     1       2.617   8.058  18.239  0.00  0.00    +0.000 A 
ATOM     11  S   UNL     1       2.002   9.613  18.128  0.00  0.00    +0.000 S 
ATOM     12  C   UNL     1       1.140   9.497  19.554  0.00  0.00    +0.000 A 
ATOM     13  C   UNL     1       0.332  10.497  20.088  0.00  0.00    +0.000 A 
ATOM     14  C   UNL     1      -0.341  10.248  21.284  0.00  0.00    +0.000 A 
ATOM     15  C   UNL     1      -0.193   9.012  21.924  0.00  0.00    +0.000 A 
ATOM     16  C   UNL     1       0.628   8.011  21.379  0.00  0.00    +0.000 A 
ATOM     17  C   UNL     1       1.317   8.244  20.164  0.00  0.00    +0.000 A 
ATOM     18  C   UNL     1       2.191   7.395  19.392  0.00  0.00    +0.000 A 
ENDROOT
TORSDOF 0
ENDMDL
MODEL 2
REMARK VINA RESULT:      -6.5      3.730      6.447
REMARK  Name = 
REMARK  1 active torsions:
REMARK  status: ('A' for Active; 'I' for Inactive)
REMARK    1  A    between atoms: C_1  and  N_2
REMARK                            x       y       z     vdW  Elec       q    Type
REMARK                         _______ _______ _______ _____ _____    ______ ____
ROOT
ATOM      1  C   UNL     1       2.939   2.395  16.681  0.00  0.00    +0.000 C 
ATOM      2  N   UNL     1       3.351   3.364  17.714  0.00  0.00    +0.000 N 
ATOM      3  C   UNL     1       2.720   3.430  18.964  0.00  0.00    +0.000 A 
ATOM      4  C   UNL     1       1.663   2.559  19.361  0.00  0.00    +0.000 A 
ATOM      5  C   UNL     1       1.080   2.654  20.628  0.00  0.00    +0.000 A 
ATOM      6  C   UNL     1       1.513   3.610  21.537  0.00  0.00    +0.000 A 
ATOM      7  C   UNL     1       2.536   4.483  21.190  0.00  0.00    +0.000 A 
ATOM      8  C   UNL     1       3.140   4.403  19.927  0.00  0.00    +0.000 A 
ATOM      9  C   UNL     1       4.169   5.285  19.624  0.00  0.00    +0.000 A 
ATOM     10  C   UNL     1       4.779   5.185  18.397  0.00  0.00    +0.000 A 
ATOM     11  S   UNL     1       6.048   6.149  17.879  0.00  0.00    +0.000 S 
ATOM     12  C   UNL     1       6.181   5.377  16.403  0.00  0.00    +0.000 A 
ATOM     13  C   UNL     1       7.114   5.686  15.417  0.00  0.00    +0.000 A 
ATOM     14  C   UNL     1       7.114   4.941  14.238  0.00  0.00    +0.000 A 
ATOM     15  C   UNL     1       6.184   3.909  14.064  0.00  0.00    +0.000 A 
ATOM     16  C   UNL     1       5.243   3.610  15.063  0.00  0.00    +0.000 A 
ATOM     17  C   UNL     1       5.229   4.352  16.268  0.00  0.00    +0.000 A 
ATOM     18  C   UNL     1       4.399   4.240  17.442  0.00  0.00    +0.000 A 
ENDROOT
TORSDOF 0
ENDMDL
MODEL 3
REMARK VINA RESULT:      -6.4      1.620      6.200
REMARK  Name = 
REMARK  1 active torsions:
REMARK  status: ('A' for Active; 'I' for Inactive)
REMARK    1  A    between atoms: C_1  and  N_2
REMARK                            x       y       z     vdW  Elec       q    Type
REMARK                         _______ _______ _______ _____ _____    ______ ____
ROOT
ATOM      1  C   UNL     1       2.778   8.342  17.564  0.00  0.00    +0.000 C 
ATOM      2  N   UNL     1       2.182   7.940  18.852  0.00  0.00    +0.000 N 
ATOM      3  C   UNL     1       1.441   8.832  19.638  0.00  0.00    +0.000 A 
ATOM      4  C   UNL     1       1.168  10.179  19.258  0.00  0.00    +0.000 A 
ATOM      5  C   UNL     1       0.405  11.024  20.069  0.00  0.00    +0.000 A 
ATOM      6  C   UNL     1      -0.103  10.573  21.281  0.00  0.00    +0.000 A 
ATOM      7  C   UNL     1       0.144   9.271  21.694  0.00  0.00    +0.000 A 
ATOM      8  C   UNL     1       0.901   8.403  20.893  0.00  0.00    +0.000 A 
ATOM      9  C   UNL     1       1.114   7.104  21.335  0.00  0.00    +0.000 A 
ATOM     10  C   UNL     1       1.830   6.248  20.536  0.00  0.00    +0.000 A 
ATOM     11  S   UNL     1       2.158   4.645  20.902  0.00  0.00    +0.000 S 
ATOM     12  C   UNL     1       2.982   4.369  19.476  0.00  0.00    +0.000 A 
ATOM     13  C   UNL     1       3.547   3.154  19.098  0.00  0.00    +0.000 A 
ATOM     14  C   UNL     1       4.194   3.070  17.866  0.00  0.00    +0.000 A 
ATOM     15  C   UNL     1       4.268   4.197  17.038  0.00  0.00    +0.000 A 
ATOM     16  C   UNL     1       3.699   5.420  17.432  0.00  0.00    +0.000 A 
ATOM     17  C   UNL     1       3.036   5.524  18.678  0.00  0.00    +0.000 A 
ATOM     18  C   UNL     1       2.359   6.634  19.303  0.00  0.00    +0.000 A 
ENDROOT
TORSDOF 0
ENDMDL
MODEL 4
REMARK VINA RESULT:      -6.3      1.580      6.218
REMARK  Name = 
REMARK  1 active torsions:
REMARK  status: ('A' for Active; 'I' for Inactive)
REMARK    1  A    between atoms: C_1  and  N_2
REMARK                            x       y       z     vdW  Elec       q    Type
REMARK                         _______ _______ _______ _____ _____    ______ ____
ROOT
ATOM      1  C   UNL     1       2.776   8.964  17.593  0.00  0.00    +0.000 C 
ATOM      2  N   UNL     1       2.300   8.180  18.748  0.00  0.00    +0.000 N 
ATOM      3  C   UNL     1       1.414   8.715  19.693  0.00  0.00    +0.000 A 
ATOM      4  C   UNL     1       0.871  10.031  19.609  0.00  0.00    +0.000 A 
ATOM      5  C   UNL     1      -0.026  10.510  20.568  0.00  0.00    +0.000 A 
ATOM      6  C   UNL     1      -0.409   9.714  21.640  0.00  0.00    +0.000 A 
ATOM      7  C   UNL     1       0.101   8.428  21.765  0.00  0.00    +0.000 A 
ATOM      8  C   UNL     1       0.996   7.924  20.811  0.00  0.00    +0.000 A 
ATOM      9  C   UNL     1       1.472   6.628  20.964  0.00  0.00    +0.000 A 
ATOM     10  C   UNL     1       2.326   6.126  20.014  0.00  0.00    +0.000 A 
ATOM     11  S   UNL     1       2.973   4.580  20.029  0.00  0.00    +0.000 S 
ATOM     12  C   UNL     1       3.805   4.790  18.596  0.00  0.00    +0.000 A 
ATOM     13  C   UNL     1       4.591   3.824  17.974  0.00  0.00    +0.000 A 
ATOM     14  C   UNL     1       5.215   4.141  16.768  0.00  0.00    +0.000 A 
ATOM     15  C   UNL     1       5.046   5.413  16.209  0.00  0.00    +0.000 A 
ATOM     16  C   UNL     1       4.255   6.383  16.847  0.00  0.00    +0.000 A 
ATOM     17  C   UNL     1       3.611   6.079  18.070  0.00  0.00    +0.000 A 
ATOM     18  C   UNL     1       2.742   6.869  18.907  0.00  0.00    +0.000 A 
ENDROOT
TORSDOF 0
ENDMDL
MODEL 5
REMARK VINA RESULT:      -6.3      1.826      6.048
REMARK  Name = 
REMARK  1 active torsions:
REMARK  status: ('A' for Active; 'I' for Inactive)
REMARK    1  A    between atoms: C_1  and  N_2
REMARK                            x       y       z     vdW  Elec       q    Type
REMARK                         _______ _______ _______ _____ _____    ______ ____
ROOT
ATOM      1  C   UNL     1       3.298   7.386  17.019  0.00  0.00    +0.000 C 
ATOM      2  N   UNL     1       2.609   7.377  18.323  0.00  0.00    +0.000 N 
ATOM      3  C   UNL     1       2.008   8.527  18.853  0.00  0.00    +0.000 A 
ATOM      4  C   UNL     1       1.976   9.782  18.178  0.00  0.00    +0.000 A 
ATOM      5  C   UNL     1       1.346  10.895  18.742  0.00  0.00    +0.000 A 
ATOM      6  C   UNL     1       0.736  10.809  19.987  0.00  0.00    +0.000 A 
ATOM      7  C   UNL     1       0.749   9.607  20.683  0.00  0.00    +0.000 A 
ATOM      8  C   UNL     1       1.370   8.475  20.133  0.00  0.00    +0.000 A 
ATOM      9  C   UNL     1       1.349   7.289  20.854  0.00  0.00    +0.000 A 
ATOM     10  C   UNL     1       1.932   6.175  20.302  0.00  0.00    +0.000 A 
ATOM     11  S   UNL     1       1.975   4.661  21.021  0.00  0.00    +0.000 S 
ATOM     12  C   UNL     1       2.779   3.950  19.741  0.00  0.00    +0.000 A 
ATOM     13  C   UNL     1       3.141   2.608  19.666  0.00  0.00    +0.000 A 
ATOM     14  C   UNL     1       3.797   2.154  18.523  0.00  0.00    +0.000 A 
ATOM     15  C   UNL     1       4.082   3.044  17.481  0.00  0.00    +0.000 A 
ATOM     16  C   UNL     1       3.718   4.398  17.569  0.00  0.00    +0.000 A 
ATOM     17  C   UNL     1       3.048   4.878  18.720  0.00  0.00    +0.000 A 
ATOM     18  C   UNL     1       2.552   6.191  19.051  0.00  0.00    +0.000 A 
ENDROOT
TORSDOF 0
ENDMDL
MODEL 6
REMARK VINA RESULT:      -6.3      2.729      4.660
REMARK  Name = 
REMARK  1 active torsions:
REMARK  status: ('A' for Active; 'I' for Inactive)
REMARK    1  A    between atoms: C_1  and  N_2
REMARK                            x       y       z     vdW  Elec       q    Type
REMARK                         _______ _______ _______ _____ _____    ______ ____
ROOT
ATOM      1  C   UNL     1       0.103   9.290  22.619  0.00  0.00    +0.000 C 
ATOM      2  N   UNL     1       0.187   9.745  21.219  0.00  0.00    +0.000 N 
ATOM      3  C   UNL     1       0.948   9.062  20.261  0.00  0.00    +0.000 A 
ATOM      4  C   UNL     1       1.670   7.863  20.535  0.00  0.00    +0.000 A 
ATOM      5  C   UNL     1       2.398   7.207  19.538  0.00  0.00    +0.000 A 
ATOM      6  C   UNL     1       2.444   7.715  18.246  0.00  0.00    +0.000 A 
ATOM      7  C   UNL     1       1.761   8.883  17.936  0.00  0.00    +0.000 A 
ATOM      8  C   UNL     1       1.018   9.554  18.918  0.00  0.00    +0.000 A 
ATOM      9  C   UNL     1       0.339  10.712  18.564  0.00  0.00    +0.000 A 
ATOM     10  C   UNL     1      -0.411  11.351  19.520  0.00  0.00    +0.000 A 
ATOM     11  S   UNL     1      -1.312  12.740  19.259  0.00  0.00    +0.000 S 
ATOM     12  C   UNL     1      -1.887  12.799  20.826  0.00  0.00    +0.000 A 
ATOM     13  C   UNL     1      -2.763  13.759  21.325  0.00  0.00    +0.000 A 
ATOM     14  C   UNL     1      -3.169  13.669  22.656  0.00  0.00    +0.000 A 
ATOM     15  C   UNL     1      -2.692  12.630  23.463  0.00  0.00    +0.000 A 
ATOM     16  C   UNL     1      -1.803  11.670  22.952  0.00  0.00    +0.000 A 
ATOM     17  C   UNL     1      -1.382  11.742  21.602  0.00  0.00    +0.000 A 
ATOM     18  C   UNL     1      -0.509  10.889  20.834  0.00  0.00    +0.000 A 
ENDROOT
TORSDOF 0
ENDMDL
MODEL 7
REMARK VINA RESULT:      -6.2      1.794      5.379
REMARK  Name = 
REMARK  1 active torsions:
REMARK  status: ('A' for Active; 'I' for Inactive)
REMARK    1  A    between atoms: C_1  and  N_2
REMARK                            x       y       z     vdW  Elec       q    Type
REMARK                         _______ _______ _______ _____ _____    ______ ____
ROOT
ATOM      1  C   UNL     1       0.860   7.338  21.523  0.00  0.00    +0.000 C 
ATOM      2  N   UNL     1       1.532   7.663  20.251  0.00  0.00    +0.000 N 
ATOM      3  C   UNL     1       1.468   8.942  19.682  0.00  0.00    +0.000 A 
ATOM      4  C   UNL     1       0.787  10.040  20.286  0.00  0.00    +0.000 A 
ATOM      5  C   UNL     1       0.769  11.303  19.687  0.00  0.00    +0.000 A 
ATOM      6  C   UNL     1       1.411  11.521  18.474  0.00  0.00    +0.000 A 
ATOM      7  C   UNL     1       2.080  10.477  17.847  0.00  0.00    +0.000 A 
ATOM      8  C   UNL     1       2.117   9.204  18.433  0.00  0.00    +0.000 A 
ATOM      9  C   UNL     1       2.808   8.191  17.781  0.00  0.00    +0.000 A 
ATOM     10  C   UNL     1       2.868   6.952  18.371  0.00  0.00    +0.000 A 
ATOM     11  S   UNL     1       3.678   5.629  17.737  0.00  0.00    +0.000 S 
ATOM     12  C   UNL     1       3.291   4.633  19.021  0.00  0.00    +0.000 A 
ATOM     13  C   UNL     1       3.689   3.306  19.156  0.00  0.00    +0.000 A 
ATOM     14  C   UNL     1       3.300   2.603  20.296  0.00  0.00    +0.000 A 
ATOM     15  C   UNL     1       2.521   3.233  21.273  0.00  0.00    +0.000 A 
ATOM     16  C   UNL     1       2.120   4.570  21.125  0.00  0.00    +0.000 A 
ATOM     17  C   UNL     1       2.508   5.302  19.976  0.00  0.00    +0.000 A 
ATOM     18  C   UNL     1       2.254   6.670  19.593  0.00  0.00    +0.000 A 
ENDROOT
TORSDOF 0
ENDMDL
MODEL 8
REMARK VINA RESULT:      -6.2      2.699      4.942
REMARK  Name = 
REMARK  1 active torsions:
REMARK  status: ('A' for Active; 'I' for Inactive)
REMARK    1  A    between atoms: C_1  and  N_2
REMARK                            x       y       z     vdW  Elec       q    Type
REMARK                         _______ _______ _______ _____ _____    ______ ____
ROOT
ATOM      1  C   UNL     1      -0.122  11.539  18.406  0.00  0.00    +0.000 C 
ATOM      2  N   UNL     1       0.237  10.523  19.412  0.00  0.00    +0.000 N 
ATOM      3  C   UNL     1       1.067   9.436  19.106  0.00  0.00    +0.000 A 
ATOM      4  C   UNL     1       1.661   9.234  17.826  0.00  0.00    +0.000 A 
ATOM      5  C   UNL     1       2.500   8.144  17.577  0.00  0.00    +0.000 A 
ATOM      6  C   UNL     1       2.771   7.217  18.575  0.00  0.00    +0.000 A 
ATOM      7  C   UNL     1       2.208   7.371  19.835  0.00  0.00    +0.000 A 
ATOM      8  C   UNL     1       1.370   8.461  20.110  0.00  0.00    +0.000 A 
ATOM      9  C   UNL     1       0.838   8.587  21.386  0.00  0.00    +0.000 A 
ATOM     10  C   UNL     1       0.041   9.671  21.661  0.00  0.00    +0.000 A 
ATOM     11  S   UNL     1      -0.660   9.990  23.150  0.00  0.00    +0.000 S 
ATOM     12  C   UNL     1      -1.372  11.411  22.638  0.00  0.00    +0.000 A 
ATOM     13  C   UNL     1      -2.144  12.255  23.433  0.00  0.00    +0.000 A 
ATOM     14  C   UNL     1      -2.662  13.419  22.867  0.00  0.00    +0.000 A 
ATOM     15  C   UNL     1      -2.406  13.717  21.524  0.00  0.00    +0.000 A 
ATOM     16  C   UNL     1      -1.632  12.856  20.728  0.00  0.00    +0.000 A 
ATOM     17  C   UNL     1      -1.094  11.671  21.285  0.00  0.00    +0.000 A 
ATOM     18  C   UNL     1      -0.263  10.643  20.707  0.00  0.00    +0.000 A 
ENDROOT
TORSDOF 0
ENDMDL
MODEL 9
REMARK VINA RESULT:      -6.2      2.987      7.873
REMARK  Name = 
REMARK  1 active torsions:
REMARK  status: ('A' for Active; 'I' for Inactive)
REMARK    1  A    between atoms: C_1  and  N_2
REMARK                            x       y       z     vdW  Elec       q    Type
REMARK                         _______ _______ _______ _____ _____    ______ ____
ROOT
ATOM      1  C   UNL     1      -0.929  12.049  18.632  0.00  0.00    +0.000 C 
ATOM      2  N   UNL     1      -0.960  11.602  20.038  0.00  0.00    +0.000 N 
ATOM      3  C   UNL     1      -1.748  12.243  21.003  0.00  0.00    +0.000 A 
ATOM      4  C   UNL     1      -2.605  13.346  20.716  0.00  0.00    +0.000 A 
ATOM      5  C   UNL     1      -3.387  13.939  21.712  0.00  0.00    +0.000 A 
ATOM      6  C   UNL     1      -3.342  13.471  23.019  0.00  0.00    +0.000 A 
ATOM      7  C   UNL     1      -2.516  12.403  23.345  0.00  0.00    +0.000 A 
ATOM      8  C   UNL     1      -1.729  11.788  22.360  0.00  0.00    +0.000 A 
ATOM      9  C   UNL     1      -0.927  10.715  22.724  0.00  0.00    +0.000 A 
ATOM     10  C   UNL     1      -0.178  10.096  21.753  0.00  0.00    +0.000 A 
ATOM     11  S   UNL     1       0.821   8.775  22.012  0.00  0.00    +0.000 S 
ATOM     12  C   UNL     1       1.276   8.662  20.409  0.00  0.00    +0.000 A 
ATOM     13  C   UNL     1       2.140   7.704  19.885  0.00  0.00    +0.000 A 
ATOM     14  C   UNL     1       2.416   7.726  18.518  0.00  0.00    +0.000 A 
ATOM     15  C   UNL     1       1.832   8.703  17.704  0.00  0.00    +0.000 A 
ATOM     16  C   UNL     1       0.966   9.669  18.243  0.00  0.00    +0.000 A 
ATOM     17  C   UNL     1       0.671   9.661  19.628  0.00  0.00    +0.000 A 
ATOM     18  C   UNL     1      -0.185  10.510  20.420  0.00  0.00    +0.000 A 
ENDROOT
TORSDOF 0
ENDMDL
