MODEL 1
REMARK VINA RESULT:      -6.5      0.000      0.000
REMARK  Name = 
REMARK  3 active torsions:
REMARK  status: ('A' for Active; 'I' for Inactive)
REMARK    1  A    between atoms: C_2  and  C_3
REMARK    2  A    between atoms: C_17  and  O_18
REMARK    3  A    between atoms: O_18  and  C_19
REMARK                            x       y       z     vdW  Elec       q    Type
REMARK                         _______ _______ _______ _____ _____    ______ ____
ROOT
ATOM      1  O   UNL     1       8.127   3.929  16.396  0.00  0.00    +0.000 OA
ATOM      2  C   UNL     1       7.297   4.815  16.171  0.00  0.00    +0.000 C 
ATOM      3  N   UNL     1       6.912   5.694  17.172  0.00  0.00    +0.000 N 
ATOM      4  C   UNL     1       7.652   5.632  18.452  0.00  0.00    +0.000 C 
ATOM      5  C   UNL     1       6.746   5.281  19.651  0.00  0.00    +0.000 C 
ATOM      6  O   UNL     1       5.538   6.067  19.683  0.00  0.00    +0.000 OA
ATOM      7  C   UNL     1       4.841   5.902  18.441  0.00  0.00    +0.000 C 
ATOM      8  C   UNL     1       5.686   6.498  17.306  0.00  0.00    +0.000 C 
ATOM      9  C   UNL     1       4.645   6.637  16.209  0.00  0.00    +0.000 C 
ATOM     10  C   UNL     1       3.392   7.134  16.916  0.00  0.00    +0.000 C 
ATOM     11  C   UNL     1       3.516   6.673  18.379  0.00  0.00    +0.000 C 
ENDROOT
BRANCH   2  12
ATOM     12  C   UNL     1       6.773   4.982  14.750  0.00  0.00    +0.000 C 
ATOM     13  C   UNL     1       5.926   3.767  14.351  0.00  0.00    +0.000 C 
ATOM     14  C   UNL     1       5.638   3.740  12.857  0.00  0.00    +0.000 C 
ATOM     15  O   UNL     1       6.834   3.895  12.098  0.00  0.00    +0.000 OA
ATOM     16  C   UNL     1       7.460   5.149  12.346  0.00  0.00    +0.000 C 
ATOM     17  C   UNL     1       7.937   5.232  13.788  0.00  0.00    +0.000 C 
ENDBRANCH   2  12
BRANCH  11  18
ATOM     18  O   UNL     1       2.420   5.792  18.629  0.00  0.00    +0.000 OA
BRANCH  18  19
ATOM     19  C   UNL     1       2.637   4.451  18.561  0.00  0.00    +0.000 A 
ATOM     20  C   UNL     1       2.630   3.659  17.420  0.00  0.00    +0.000 A 
ATOM     21  C   UNL     1       2.922   2.299  17.526  0.00  0.00    +0.000 A 
ATOM     22  C   UNL     1       3.191   1.774  18.779  0.00  0.00    +0.000 A 
ATOM     23  N   UNL     1       3.183   2.505  19.913  0.00  0.00    +0.000 NA
ATOM     24  C   UNL     1       2.904   3.822  19.773  0.00  0.00    +0.000 A 
ENDBRANCH  18  19
ENDBRANCH  11  18
TORSDOF 3
ENDMDL
MODEL 2
REMARK VINA RESULT:      -6.5      7.913     10.168
REMARK  Name = 
REMARK  3 active torsions:
REMARK  status: ('A' for Active; 'I' for Inactive)
REMARK    1  A    between atoms: C_2  and  C_3
REMARK    2  A    between atoms: C_17  and  O_18
REMARK    3  A    between atoms: O_18  and  C_19
REMARK                            x       y       z     vdW  Elec       q    Type
REMARK                         _______ _______ _______ _____ _____    ______ ____
ROOT
ATOM      1  O   UNL     1       1.188  10.364  21.348  0.00  0.00    +0.000 OA
ATOM      2  C   UNL     1       0.791  10.209  20.189  0.00  0.00    +0.000 C 
ATOM      3  N   UNL     1       0.115  11.225  19.531  0.00  0.00    +0.000 N 
ATOM      4  C   UNL     1       0.039  12.539  20.208  0.00  0.00    +0.000 C 
ATOM      5  C   UNL     1      -1.410  12.981  20.496  0.00  0.00    +0.000 C 
ATOM      6  O   UNL     1      -2.274  12.834  19.351  0.00  0.00    +0.000 OA
ATOM      7  C   UNL     1      -2.227  11.473  18.903  0.00  0.00    +0.000 C 
ATOM      8  C   UNL     1      -0.814  11.160  18.391  0.00  0.00    +0.000 C 
ATOM      9  C   UNL     1      -1.069   9.901  17.582  0.00  0.00    +0.000 C 
ATOM     10  C   UNL     1      -2.382  10.158  16.857  0.00  0.00    +0.000 C 
ATOM     11  C   UNL     1      -3.141  11.196  17.702  0.00  0.00    +0.000 C 
ENDROOT
BRANCH   2  12
ATOM     12  C   UNL     1       1.141   8.915  19.464  0.00  0.00    +0.000 C 
ATOM     13  C   UNL     1       1.629   7.861  20.466  0.00  0.00    +0.000 C 
ATOM     14  C   UNL     1       2.273   6.670  19.771  0.00  0.00    +0.000 C 
ATOM     15  O   UNL     1       3.263   7.092  18.836  0.00  0.00    +0.000 OA
ATOM     16  C   UNL     1       2.704   7.887  17.796  0.00  0.00    +0.000 C 
ATOM     17  C   UNL     1       2.160   9.193  18.356  0.00  0.00    +0.000 C 
ENDBRANCH   2  12
BRANCH  11  18
ATOM     18  O   UNL     1      -4.349  10.571  18.136  0.00  0.00    +0.000 OA
BRANCH  18  19
ATOM     19  C   UNL     1      -5.475  11.328  18.231  0.00  0.00    +0.000 A 
ATOM     20  C   UNL     1      -6.441  11.271  19.228  0.00  0.00    +0.000 A 
ATOM     21  C   UNL     1      -7.514  12.161  19.197  0.00  0.00    +0.000 A 
ATOM     22  C   UNL     1      -7.594  13.067  18.153  0.00  0.00    +0.000 A 
ATOM     23  N   UNL     1      -6.691  13.137  17.153  0.00  0.00    +0.000 NA
ATOM     24  C   UNL     1      -5.657  12.265  17.219  0.00  0.00    +0.000 A 
ENDBRANCH  18  19
ENDBRANCH  11  18
TORSDOF 3
ENDMDL
MODEL 3
REMARK VINA RESULT:      -6.5      8.516     11.923
REMARK  Name = 
REMARK  3 active torsions:
REMARK  status: ('A' for Active; 'I' for Inactive)
REMARK    1  A    between atoms: C_2  and  C_3
REMARK    2  A    between atoms: C_17  and  O_18
REMARK    3  A    between atoms: O_18  and  C_19
REMARK                            x       y       z     vdW  Elec       q    Type
REMARK                         _______ _______ _______ _____ _____    ______ ____
ROOT
ATOM      1  O   UNL     1      -6.196  10.717  18.191  0.00  0.00    +0.000 OA
ATOM      2  C   UNL     1      -5.301  11.450  18.621  0.00  0.00    +0.000 C 
ATOM      3  N   UNL     1      -4.102  11.579  17.937  0.00  0.00    +0.000 N 
ATOM      4  C   UNL     1      -4.009  10.942  16.604  0.00  0.00    +0.000 C 
ATOM      5  C   UNL     1      -2.903   9.870  16.528  0.00  0.00    +0.000 C 
ATOM      6  O   UNL     1      -1.649  10.326  17.075  0.00  0.00    +0.000 OA
ATOM      7  C   UNL     1      -1.859  10.760  18.425  0.00  0.00    +0.000 C 
ATOM      8  C   UNL     1      -2.775  11.992  18.422  0.00  0.00    +0.000 C 
ATOM      9  C   UNL     1      -2.520  12.549  19.812  0.00  0.00    +0.000 C 
ATOM     10  C   UNL     1      -1.022  12.393  20.029  0.00  0.00    +0.000 C 
ATOM     11  C   UNL     1      -0.575  11.237  19.117  0.00  0.00    +0.000 C 
ENDROOT
BRANCH   2  12
ATOM     12  C   UNL     1      -5.574  12.281  19.869  0.00  0.00    +0.000 C 
ATOM     13  C   UNL     1      -6.629  11.593  20.745  0.00  0.00    +0.000 C 
ATOM     14  C   UNL     1      -7.156  12.517  21.833  0.00  0.00    +0.000 C 
ATOM     15  O   UNL     1      -7.570  13.768  21.292  0.00  0.00    +0.000 OA
ATOM     16  C   UNL     1      -6.487  14.467  20.686  0.00  0.00    +0.000 C 
ATOM     17  C   UNL     1      -5.971  13.705  19.474  0.00  0.00    +0.000 C 
ENDBRANCH   2  12
BRANCH  11  18
ATOM     18  O   UNL     1      -0.064  10.212  19.969  0.00  0.00    +0.000 OA
BRANCH  18  19
ATOM     19  C   UNL     1       0.836   9.330  19.457  0.00  0.00    +0.000 A 
ATOM     20  C   UNL     1       1.400   9.352  18.188  0.00  0.00    +0.000 A 
ATOM     21  C   UNL     1       2.350   8.392  17.842  0.00  0.00    +0.000 A 
ATOM     22  C   UNL     1       2.690   7.427  18.777  0.00  0.00    +0.000 A 
ATOM     23  N   UNL     1       2.147   7.358  20.009  0.00  0.00    +0.000 NA
ATOM     24  C   UNL     1       1.234   8.310  20.315  0.00  0.00    +0.000 A 
ENDBRANCH  18  19
ENDBRANCH  11  18
TORSDOF 3
ENDMDL
MODEL 4
REMARK VINA RESULT:      -6.4      5.155      7.380
REMARK  Name = 
REMARK  3 active torsions:
REMARK  status: ('A' for Active; 'I' for Inactive)
REMARK    1  A    between atoms: C_2  and  C_3
REMARK    2  A    between atoms: C_17  and  O_18
REMARK    3  A    between atoms: O_18  and  C_19
REMARK                            x       y       z     vdW  Elec       q    Type
REMARK                         _______ _______ _______ _____ _____    ______ ____
ROOT
ATOM      1  O   UNL     1       1.418   5.128  20.850  0.00  0.00    +0.000 OA
ATOM      2  C   UNL     1       1.904   6.019  20.148  0.00  0.00    +0.000 C 
ATOM      3  N   UNL     1       1.729   7.355  20.478  0.00  0.00    +0.000 N 
ATOM      4  C   UNL     1       1.087   7.654  21.777  0.00  0.00    +0.000 C 
ATOM      5  C   UNL     1      -0.228   8.446  21.627  0.00  0.00    +0.000 C 
ATOM      6  O   UNL     1      -0.099   9.574  20.737  0.00  0.00    +0.000 OA
ATOM      7  C   UNL     1       0.375   9.111  19.465  0.00  0.00    +0.000 C 
ATOM      8  C   UNL     1       1.798   8.556  19.630  0.00  0.00    +0.000 C 
ATOM      9  C   UNL     1       2.275   8.545  18.188  0.00  0.00    +0.000 C 
ATOM     10  C   UNL     1       1.750   9.842  17.590  0.00  0.00    +0.000 C 
ATOM     11  C   UNL     1       0.518  10.231  18.425  0.00  0.00    +0.000 C 
ENDROOT
BRANCH   2  12
ATOM     12  C   UNL     1       2.779   5.622  18.965  0.00  0.00    +0.000 C 
ATOM     13  C   UNL     1       2.166   4.423  18.231  0.00  0.00    +0.000 C 
ATOM     14  C   UNL     1       3.142   3.801  17.242  0.00  0.00    +0.000 C 
ATOM     15  O   UNL     1       4.399   3.531  17.858  0.00  0.00    +0.000 OA
ATOM     16  C   UNL     1       5.028   4.721  18.322  0.00  0.00    +0.000 C 
ATOM     17  C   UNL     1       4.211   5.358  19.437  0.00  0.00    +0.000 C 
ENDBRANCH   2  12
BRANCH  11  18
ATOM     18  O   UNL     1      -0.601  10.225  17.539  0.00  0.00    +0.000 OA
BRANCH  18  19
ATOM     19  C   UNL     1      -1.784  10.729  17.982  0.00  0.00    +0.000 A 
ATOM     20  C   UNL     1      -1.966  11.810  18.836  0.00  0.00    +0.000 A 
ATOM     21  C   UNL     1      -3.259  12.226  19.151  0.00  0.00    +0.000 A 
ATOM     22  C   UNL     1      -4.329  11.529  18.615  0.00  0.00    +0.000 A 
ATOM     23  N   UNL     1      -4.194  10.461  17.804  0.00  0.00    +0.000 NA
ATOM     24  C   UNL     1      -2.925  10.089  17.511  0.00  0.00    +0.000 A 
ENDBRANCH  18  19
ENDBRANCH  11  18
TORSDOF 3
ENDMDL
MODEL 5
REMARK VINA RESULT:      -6.4      0.735      1.330
REMARK  Name = 
REMARK  3 active torsions:
REMARK  status: ('A' for Active; 'I' for Inactive)
REMARK    1  A    between atoms: C_2  and  C_3
REMARK    2  A    between atoms: C_17  and  O_18
REMARK    3  A    between atoms: O_18  and  C_19
REMARK                            x       y       z     vdW  Elec       q    Type
REMARK                         _______ _______ _______ _____ _____    ______ ____
ROOT
ATOM      1  O   UNL     1       8.081   3.924  16.416  0.00  0.00    +0.000 OA
ATOM      2  C   UNL     1       7.265   4.821  16.183  0.00  0.00    +0.000 C 
ATOM      3  N   UNL     1       6.829   5.662  17.196  0.00  0.00    +0.000 N 
ATOM      4  C   UNL     1       7.499   5.545  18.510  0.00  0.00    +0.000 C 
ATOM      5  C   UNL     1       6.530   5.150  19.643  0.00  0.00    +0.000 C 
ATOM      6  O   UNL     1       5.323   5.939  19.642  0.00  0.00    +0.000 OA
ATOM      7  C   UNL     1       4.693   5.826  18.360  0.00  0.00    +0.000 C 
ATOM      8  C   UNL     1       5.599   6.464  17.296  0.00  0.00    +0.000 C 
ATOM      9  C   UNL     1       4.618   6.651  16.152  0.00  0.00    +0.000 C 
ATOM     10  C   UNL     1       3.331   7.124  16.811  0.00  0.00    +0.000 C 
ATOM     11  C   UNL     1       3.375   6.605  18.258  0.00  0.00    +0.000 C 
ENDROOT
BRANCH   2  12
ATOM     12  C   UNL     1       6.819   5.047  14.743  0.00  0.00    +0.000 C 
ATOM     13  C   UNL     1       5.982   3.858  14.255  0.00  0.00    +0.000 C 
ATOM     14  C   UNL     1       5.773   3.890  12.748  0.00  0.00    +0.000 C 
ATOM     15  O   UNL     1       7.009   4.059  12.059  0.00  0.00    +0.000 OA
ATOM     16  C   UNL     1       7.633   5.296  12.386  0.00  0.00    +0.000 C 
ATOM     17  C   UNL     1       8.034   5.320  13.854  0.00  0.00    +0.000 C 
ENDBRANCH   2  12
BRANCH  11  18
ATOM     18  O   UNL     1       2.266   5.719  18.414  0.00  0.00    +0.000 OA
BRANCH  18  19
ATOM     19  C   UNL     1       2.319   4.777  19.393  0.00  0.00    +0.000 A 
ATOM     20  C   UNL     1       2.177   4.982  20.760  0.00  0.00    +0.000 A 
ATOM     21  C   UNL     1       2.209   3.890  21.625  0.00  0.00    +0.000 A 
ATOM     22  C   UNL     1       2.406   2.626  21.092  0.00  0.00    +0.000 A 
ATOM     23  N   UNL     1       2.573   2.389  19.775  0.00  0.00    +0.000 NA
ATOM     24  C   UNL     1       2.527   3.471  18.962  0.00  0.00    +0.000 A 
ENDBRANCH  18  19
ENDBRANCH  11  18
TORSDOF 3
ENDMDL
MODEL 6
REMARK VINA RESULT:      -6.4      5.965      8.705
REMARK  Name = 
REMARK  3 active torsions:
REMARK  status: ('A' for Active; 'I' for Inactive)
REMARK    1  A    between atoms: C_2  and  C_3
REMARK    2  A    between atoms: C_17  and  O_18
REMARK    3  A    between atoms: O_18  and  C_19
REMARK                            x       y       z     vdW  Elec       q    Type
REMARK                         _______ _______ _______ _____ _____    ______ ____
ROOT
ATOM      1  O   UNL     1       0.693  13.313  22.084  0.00  0.00    +0.000 OA
ATOM      2  C   UNL     1       0.759  12.780  20.973  0.00  0.00    +0.000 C 
ATOM      3  N   UNL     1       0.089  11.593  20.717  0.00  0.00    +0.000 N 
ATOM      4  C   UNL     1      -0.827  11.091  21.766  0.00  0.00    +0.000 C 
ATOM      5  C   UNL     1      -0.420   9.702  22.300  0.00  0.00    +0.000 C 
ATOM      6  O   UNL     1      -0.129   8.764  21.245  0.00  0.00    +0.000 OA
ATOM      7  C   UNL     1       0.892   9.313  20.401  0.00  0.00    +0.000 C 
ATOM      8  C   UNL     1       0.344  10.563  19.697  0.00  0.00    +0.000 C 
ATOM      9  C   UNL     1       1.347  10.725  18.568  0.00  0.00    +0.000 C 
ATOM     10  C   UNL     1       1.614   9.310  18.073  0.00  0.00    +0.000 C 
ATOM     11  C   UNL     1       1.305   8.378  19.257  0.00  0.00    +0.000 C 
ENDROOT
BRANCH   2  12
ATOM     12  C   UNL     1       1.512  13.500  19.860  0.00  0.00    +0.000 C 
ATOM     13  C   UNL     1       2.969  13.737  20.275  0.00  0.00    +0.000 C 
ATOM     14  C   UNL     1       3.675  14.710  19.341  0.00  0.00    +0.000 C 
ATOM     15  O   UNL     1       2.914  15.903  19.167  0.00  0.00    +0.000 OA
ATOM     16  C   UNL     1       1.651  15.641  18.565  0.00  0.00    +0.000 C 
ATOM     17  C   UNL     1       0.785  14.794  19.487  0.00  0.00    +0.000 C 
ENDBRANCH   2  12
BRANCH  11  18
ATOM     18  O   UNL     1       2.523   7.708  19.584  0.00  0.00    +0.000 OA
BRANCH  18  19
ATOM     19  C   UNL     1       2.506   6.353  19.707  0.00  0.00    +0.000 A 
ATOM     20  C   UNL     1       1.751   5.603  20.599  0.00  0.00    +0.000 A 
ATOM     21  C   UNL     1       1.820   4.211  20.555  0.00  0.00    +0.000 A 
ATOM     22  C   UNL     1       2.662   3.617  19.629  0.00  0.00    +0.000 A 
ATOM     23  N   UNL     1       3.430   4.311  18.765  0.00  0.00    +0.000 NA
ATOM     24  C   UNL     1       3.332   5.660  18.828  0.00  0.00    +0.000 A 
ENDBRANCH  18  19
ENDBRANCH  11  18
TORSDOF 3
ENDMDL
MODEL 7
REMARK VINA RESULT:      -6.3      5.243      8.198
REMARK  Name = 
REMARK  3 active torsions:
REMARK  status: ('A' for Active; 'I' for Inactive)
REMARK    1  A    between atoms: C_2  and  C_3
REMARK    2  A    between atoms: C_17  and  O_18
REMARK    3  A    between atoms: O_18  and  C_19
REMARK                            x       y       z     vdW  Elec       q    Type
REMARK                         _______ _______ _______ _____ _____    ______ ____
ROOT
ATOM      1  O   UNL     1       0.770  12.136  21.852  0.00  0.00    +0.000 OA
ATOM      2  C   UNL     1       0.697  11.642  20.723  0.00  0.00    +0.000 C 
ATOM      3  N   UNL     1       0.414  10.294  20.558  0.00  0.00    +0.000 N 
ATOM      4  C   UNL     1       0.045   9.525  21.767  0.00  0.00    +0.000 C 
ATOM      5  C   UNL     1       1.019   8.365  22.059  0.00  0.00    +0.000 C 
ATOM      6  O   UNL     1       1.299   7.568  20.890  0.00  0.00    +0.000 OA
ATOM      7  C   UNL     1       1.805   8.420  19.854  0.00  0.00    +0.000 C 
ATOM      8  C   UNL     1       0.702   9.399  19.425  0.00  0.00    +0.000 C 
ATOM      9  C   UNL     1       1.240   9.877  18.088  0.00  0.00    +0.000 C 
ATOM     10  C   UNL     1       1.811   8.631  17.426  0.00  0.00    +0.000 C 
ATOM     11  C   UNL     1       2.169   7.665  18.569  0.00  0.00    +0.000 C 
ENDROOT
BRANCH   2  12
ATOM     12  C   UNL     1       0.830  12.560  19.513  0.00  0.00    +0.000 C 
ATOM     13  C   UNL     1       2.252  13.129  19.434  0.00  0.00    +0.000 C 
ATOM     14  C   UNL     1       2.352  14.275  18.437  0.00  0.00    +0.000 C 
ATOM     15  O   UNL     1       1.342  15.252  18.672  0.00  0.00    +0.000 OA
ATOM     16  C   UNL     1       0.034  14.713  18.508  0.00  0.00    +0.000 C 
ATOM     17  C   UNL     1      -0.242  13.651  19.563  0.00  0.00    +0.000 C 
ENDBRANCH   2  12
BRANCH  11  18
ATOM     18  O   UNL     1       3.580   7.454  18.505  0.00  0.00    +0.000 OA
BRANCH  18  19
ATOM     19  C   UNL     1       4.058   6.515  17.645  0.00  0.00    +0.000 A 
ATOM     20  C   UNL     1       4.917   6.721  16.573  0.00  0.00    +0.000 A 
ATOM     21  C   UNL     1       5.350   5.630  15.820  0.00  0.00    +0.000 A 
ATOM     22  C   UNL     1       4.888   4.368  16.155  0.00  0.00    +0.000 A 
ATOM     23  N   UNL     1       4.035   4.130  17.171  0.00  0.00    +0.000 NA
ATOM     24  C   UNL     1       3.642   5.210  17.888  0.00  0.00    +0.000 A 
ENDBRANCH  18  19
ENDBRANCH  11  18
TORSDOF 3
ENDMDL
MODEL 8
REMARK VINA RESULT:      -6.2      7.808     11.333
REMARK  Name = 
REMARK  3 active torsions:
REMARK  status: ('A' for Active; 'I' for Inactive)
REMARK    1  A    between atoms: C_2  and  C_3
REMARK    2  A    between atoms: C_17  and  O_18
REMARK    3  A    between atoms: O_18  and  C_19
REMARK                            x       y       z     vdW  Elec       q    Type
REMARK                         _______ _______ _______ _____ _____    ______ ____
ROOT
ATOM      1  O   UNL     1      -4.887  12.133  20.067  0.00  0.00    +0.000 OA
ATOM      2  C   UNL     1      -3.710  12.505  20.078  0.00  0.00    +0.000 C 
ATOM      3  N   UNL     1      -2.854  12.172  19.039  0.00  0.00    +0.000 N 
ATOM      4  C   UNL     1      -3.447  11.507  17.857  0.00  0.00    +0.000 C 
ATOM      5  C   UNL     1      -2.855  10.105  17.600  0.00  0.00    +0.000 C 
ATOM      6  O   UNL     1      -1.414  10.094  17.648  0.00  0.00    +0.000 OA
ATOM      7  C   UNL     1      -0.985  10.613  18.913  0.00  0.00    +0.000 C 
ATOM      8  C   UNL     1      -1.384  12.092  19.012  0.00  0.00    +0.000 C 
ATOM      9  C   UNL     1      -0.493  12.560  20.150  0.00  0.00    +0.000 C 
ATOM     10  C   UNL     1       0.846  11.880  19.905  0.00  0.00    +0.000 C 
ATOM     11  C   UNL     1       0.540  10.615  19.085  0.00  0.00    +0.000 C 
ENDROOT
BRANCH   2  12
ATOM     12  C   UNL     1      -3.241  13.414  21.207  0.00  0.00    +0.000 C 
ATOM     13  C   UNL     1      -3.309  12.673  22.548  0.00  0.00    +0.000 C 
ATOM     14  C   UNL     1      -3.147  13.618  23.730  0.00  0.00    +0.000 C 
ATOM     15  O   UNL     1      -4.036  14.728  23.628  0.00  0.00    +0.000 OA
ATOM     16  C   UNL     1      -3.773  15.513  22.470  0.00  0.00    +0.000 C 
ATOM     17  C   UNL     1      -4.054  14.712  21.207  0.00  0.00    +0.000 C 
ENDBRANCH   2  12
BRANCH  11  18
ATOM     18  O   UNL     1       0.948   9.499  19.877  0.00  0.00    +0.000 OA
BRANCH  18  19
ATOM     19  C   UNL     1       1.716   8.537  19.299  0.00  0.00    +0.000 A 
ATOM     20  C   UNL     1       2.319   8.587  18.048  0.00  0.00    +0.000 A 
ATOM     21  C   UNL     1       3.118   7.524  17.629  0.00  0.00    +0.000 A 
ATOM     22  C   UNL     1       3.269   6.435  18.470  0.00  0.00    +0.000 A 
ATOM     23  N   UNL     1       2.680   6.338  19.680  0.00  0.00    +0.000 NA
ATOM     24  C   UNL     1       1.919   7.390  20.060  0.00  0.00    +0.000 A 
ENDBRANCH  18  19
ENDBRANCH  11  18
TORSDOF 3
ENDMDL
MODEL 9
REMARK VINA RESULT:      -6.1      5.711      8.503
REMARK  Name = 
REMARK  3 active torsions:
REMARK  status: ('A' for Active; 'I' for Inactive)
REMARK    1  A    between atoms: C_2  and  C_3
REMARK    2  A    between atoms: C_17  and  O_18
REMARK    3  A    between atoms: O_18  and  C_19
REMARK                            x       y       z     vdW  Elec       q    Type
REMARK                         _______ _______ _______ _____ _____    ______ ____
ROOT
ATOM      1  O   UNL     1       0.760  12.940  22.031  0.00  0.00    +0.000 OA
ATOM      2  C   UNL     1       0.736  12.431  20.906  0.00  0.00    +0.000 C 
ATOM      3  N   UNL     1       0.157  11.188  20.704  0.00  0.00    +0.000 N 
ATOM      4  C   UNL     1      -0.568  10.583  21.845  0.00  0.00    +0.000 C 
ATOM      5  C   UNL     1       0.034   9.234  22.289  0.00  0.00    +0.000 C 
ATOM      6  O   UNL     1       0.279   8.344  21.181  0.00  0.00    +0.000 OA
ATOM      7  C   UNL     1       1.129   9.002  20.233  0.00  0.00    +0.000 C 
ATOM      8  C   UNL     1       0.380  10.202  19.634  0.00  0.00    +0.000 C 
ATOM      9  C   UNL     1       1.214  10.477  18.395  0.00  0.00    +0.000 C 
ATOM     10  C   UNL     1       1.551   9.102  17.835  0.00  0.00    +0.000 C 
ATOM     11  C   UNL     1       1.483   8.128  19.023  0.00  0.00    +0.000 C 
ENDROOT
BRANCH   2  12
ATOM     12  C   UNL     1       1.272  13.237  19.728  0.00  0.00    +0.000 C 
ATOM     13  C   UNL     1       2.763  13.536  19.925  0.00  0.00    +0.000 C 
ATOM     14  C   UNL     1       3.268  14.584  18.944  0.00  0.00    +0.000 C 
ATOM     15  O   UNL     1       2.432  15.739  18.948  0.00  0.00    +0.000 OA
ATOM     16  C   UNL     1       1.105  15.434  18.535  0.00  0.00    +0.000 C 
ATOM     17  C   UNL     1       0.435  14.503  19.535  0.00  0.00    +0.000 C 
ENDBRANCH   2  12
BRANCH  11  18
ATOM     18  O   UNL     1       2.791   7.576  19.180  0.00  0.00    +0.000 OA
BRANCH  18  19
ATOM     19  C   UNL     1       3.052   6.357  18.637  0.00  0.00    +0.000 A 
ATOM     20  C   UNL     1       2.124   5.410  18.223  0.00  0.00    +0.000 A 
ATOM     21  C   UNL     1       2.568   4.224  17.638  0.00  0.00    +0.000 A 
ATOM     22  C   UNL     1       3.931   4.018  17.507  0.00  0.00    +0.000 A 
ATOM     23  N   UNL     1       4.863   4.902  17.919  0.00  0.00    +0.000 NA
ATOM     24  C   UNL     1       4.398   6.046  18.474  0.00  0.00    +0.000 A 
ENDBRANCH  18  19
ENDBRANCH  11  18
TORSDOF 3
ENDMDL
