MODEL 1
REMARK VINA RESULT:      -8.5      0.000      0.000
REMARK  Name = 
REMARK  8 active torsions:
REMARK  status: ('A' for Active; 'I' for Inactive)
REMARK    1  A    between atoms: C_1  and  C_2
REMARK    2  A    between atoms: C_4  and  C_5
REMARK    3  A    between atoms: N_6  and  N_7
REMARK    4  A    between atoms: C_8  and  C_10
REMARK    5  A    between atoms: C_13  and  C_14
REMARK    6  A    between atoms: C_14  and  N_15
REMARK    7  A    between atoms: C_23  and  C_24
REMARK    8  A    between atoms: N_25  and  C_26
REMARK                            x       y       z     vdW  Elec       q    Type
REMARK                         _______ _______ _______ _____ _____    ______ ____
ROOT
ATOM      1  N   UNL     1       7.222   7.771  17.865  0.00  0.00    +0.000 N 
ATOM      2  C   UNL     1       7.347   6.513  18.445  0.00  0.00    +0.000 C 
ATOM      3  O   UNL     1       8.272   6.177  19.182  0.00  0.00    +0.000 OA
ATOM      4  H   UNL     1       6.391   8.046  17.357  0.00  0.00    +0.000 HD
ENDROOT
BRANCH   2   5
ATOM      5  C   UNL     1       6.264   5.522  18.172  0.00  0.00    +0.000 A 
ATOM      6  C   UNL     1       5.935   4.481  19.047  0.00  0.00    +0.000 A 
ATOM      7  C   UNL     1       4.848   3.636  18.756  0.00  0.00    +0.000 A 
ATOM      8  C   UNL     1       4.071   3.824  17.600  0.00  0.00    +0.000 A 
ATOM      9  C   UNL     1       4.430   4.858  16.723  0.00  0.00    +0.000 A 
ATOM     10  C   UNL     1       5.508   5.704  17.011  0.00  0.00    +0.000 A 
BRANCH   8  11
ATOM     11  C   UNL     1       2.921   2.903  17.246  0.00  0.00    +0.000 C 
BRANCH  11  12
ATOM     12  N   UNL     1       1.680   2.953  18.018  0.00  0.00    +0.000 NA
ATOM     13  C   UNL     1       1.171   4.272  18.412  0.00  0.00    +0.000 C 
ATOM     14  C   UNL     1       1.642   4.755  19.796  0.00  0.00    +0.000 C 
ATOM     15  O   UNL     1       1.432   3.767  20.814  0.00  0.00    +0.000 OA
ATOM     16  C   UNL     1       2.053   2.524  20.470  0.00  0.00    +0.000 C 
ATOM     17  C   UNL     1       1.546   2.000  19.121  0.00  0.00    +0.000 C 
ENDBRANCH  11  12
ENDBRANCH   8  11
ENDBRANCH   2   5
BRANCH   1  19
ATOM     18  C   UNL     1       7.931   9.940  17.899  0.00  0.00    +0.000 C 
ATOM     19  N   UNL     1       8.209   8.693  18.100  0.00  0.00    +0.000 NA
BRANCH  18  23
ATOM     20  C   UNL     1      12.307  11.988  19.398  0.00  0.00    +0.000 C 
ATOM     21  C   UNL     1      10.960  11.840  18.773  0.00  0.00    +0.000 A 
ATOM     22  C   UNL     1      10.255  10.659  18.680  0.00  0.00    +0.000 A 
ATOM     23  C   UNL     1       8.976  10.924  18.145  0.00  0.00    +0.000 A 
ATOM     24  C   UNL     1       8.931  12.292  17.883  0.00  0.00    +0.000 A 
ATOM     25  C   UNL     1       7.835  13.041  17.196  0.00  0.00    +0.000 C 
ATOM     26  N   UNL     1      10.157  12.870  18.277  0.00  0.00    +0.000 N 
BRANCH  26  27
ATOM     27  C   UNL     1      10.524  14.260  18.166  0.00  0.00    +0.000 A 
ATOM     28  C   UNL     1      11.279  14.726  17.082  0.00  0.00    +0.000 A 
ATOM     29  C   UNL     1      11.691  16.062  17.011  0.00  0.00    +0.000 A 
ATOM     30  C   UNL     1      11.317  16.964  18.002  0.00  0.00    +0.000 A 
ATOM     31  C   UNL     1      10.535  16.527  19.065  0.00  0.00    +0.000 A 
ATOM     32  C   UNL     1      10.152  15.183  19.154  0.00  0.00    +0.000 A 
ENDBRANCH  26  27
ENDBRANCH  18  23
ENDBRANCH   1  19
TORSDOF 6
ENDMDL
MODEL 2
REMARK VINA RESULT:      -8.3      7.245     11.124
REMARK  Name = 
REMARK  8 active torsions:
REMARK  status: ('A' for Active; 'I' for Inactive)
REMARK    1  A    between atoms: C_1  and  C_2
REMARK    2  A    between atoms: C_4  and  C_5
REMARK    3  A    between atoms: N_6  and  N_7
REMARK    4  A    between atoms: C_8  and  C_10
REMARK    5  A    between atoms: C_13  and  C_14
REMARK    6  A    between atoms: C_14  and  N_15
REMARK    7  A    between atoms: C_23  and  C_24
REMARK    8  A    between atoms: N_25  and  C_26
REMARK                            x       y       z     vdW  Elec       q    Type
REMARK                         _______ _______ _______ _____ _____    ______ ____
ROOT
ATOM      1  N   UNL     1       0.853   8.631  21.361  0.00  0.00    +0.000 N 
ATOM      2  C   UNL     1       0.556   9.781  20.637  0.00  0.00    +0.000 C 
ATOM      3  O   UNL     1       1.060  10.068  19.553  0.00  0.00    +0.000 OA
ATOM      4  H   UNL     1       0.337   8.373  22.193  0.00  0.00    +0.000 HD
ENDROOT
BRANCH   2   5
ATOM      5  C   UNL     1      -0.465  10.706  21.210  0.00  0.00    +0.000 A 
ATOM      6  C   UNL     1      -1.166  11.647  20.448  0.00  0.00    +0.000 A 
ATOM      7  C   UNL     1      -2.171  12.428  21.047  0.00  0.00    +0.000 A 
ATOM      8  C   UNL     1      -2.499  12.274  22.405  0.00  0.00    +0.000 A 
ATOM      9  C   UNL     1      -1.770  11.343  23.158  0.00  0.00    +0.000 A 
ATOM     10  C   UNL     1      -0.772  10.560  22.566  0.00  0.00    +0.000 A 
BRANCH   8  11
ATOM     11  C   UNL     1      -3.550  13.132  23.080  0.00  0.00    +0.000 C 
BRANCH  11  12
ATOM     12  N   UNL     1      -4.959  12.742  23.021  0.00  0.00    +0.000 NA
ATOM     13  C   UNL     1      -5.627  12.780  21.715  0.00  0.00    +0.000 C 
ATOM     14  C   UNL     1      -6.341  14.106  21.397  0.00  0.00    +0.000 C 
ATOM     15  O   UNL     1      -7.208  14.522  22.461  0.00  0.00    +0.000 OA
ATOM     16  C   UNL     1      -6.503  14.608  23.704  0.00  0.00    +0.000 C 
ATOM     17  C   UNL     1      -5.838  13.275  24.064  0.00  0.00    +0.000 C 
ENDBRANCH  11  12
ENDBRANCH   8  11
ENDBRANCH   2   5
BRANCH   1  19
ATOM     18  C   UNL     1       1.410   6.579  20.530  0.00  0.00    +0.000 C 
ATOM     19  N   UNL     1       1.793   7.771  20.854  0.00  0.00    +0.000 NA
BRANCH  18  23
ATOM     20  C   UNL     1       4.309   2.472  19.961  0.00  0.00    +0.000 C 
ATOM     21  C   UNL     1       3.676   3.799  19.703  0.00  0.00    +0.000 A 
ATOM     22  C   UNL     1       2.660   4.353  20.452  0.00  0.00    +0.000 A 
ATOM     23  C   UNL     1       2.405   5.662  19.992  0.00  0.00    +0.000 A 
ATOM     24  C   UNL     1       3.269   5.881  18.921  0.00  0.00    +0.000 A 
ATOM     25  C   UNL     1       3.298   7.072  18.018  0.00  0.00    +0.000 C 
ATOM     26  N   UNL     1       4.068   4.732  18.738  0.00  0.00    +0.000 N 
BRANCH  26  27
ATOM     27  C   UNL     1       5.081   4.544  17.732  0.00  0.00    +0.000 A 
ATOM     28  C   UNL     1       6.433   4.784  18.011  0.00  0.00    +0.000 A 
ATOM     29  C   UNL     1       7.409   4.665  17.014  0.00  0.00    +0.000 A 
ATOM     30  C   UNL     1       7.053   4.262  15.731  0.00  0.00    +0.000 A 
ATOM     31  C   UNL     1       5.721   3.981  15.446  0.00  0.00    +0.000 A 
ATOM     32  C   UNL     1       4.741   4.134  16.434  0.00  0.00    +0.000 A 
ENDBRANCH  26  27
ENDBRANCH  18  23
ENDBRANCH   1  19
TORSDOF 6
ENDMDL
MODEL 3
REMARK VINA RESULT:      -8.3      0.893      1.011
REMARK  Name = 
REMARK  8 active torsions:
REMARK  status: ('A' for Active; 'I' for Inactive)
REMARK    1  A    between atoms: C_1  and  C_2
REMARK    2  A    between atoms: C_4  and  C_5
REMARK    3  A    between atoms: N_6  and  N_7
REMARK    4  A    between atoms: C_8  and  C_10
REMARK    5  A    between atoms: C_13  and  C_14
REMARK    6  A    between atoms: C_14  and  N_15
REMARK    7  A    between atoms: C_23  and  C_24
REMARK    8  A    between atoms: N_25  and  C_26
REMARK                            x       y       z     vdW  Elec       q    Type
REMARK                         _______ _______ _______ _____ _____    ______ ____
ROOT
ATOM      1  N   UNL     1       7.230   8.018  17.279  0.00  0.00    +0.000 N 
ATOM      2  C   UNL     1       7.293   6.810  17.964  0.00  0.00    +0.000 C 
ATOM      3  O   UNL     1       8.179   6.509  18.761  0.00  0.00    +0.000 OA
ATOM      4  H   UNL     1       6.427   8.275  16.718  0.00  0.00    +0.000 HD
ENDROOT
BRANCH   2   5
ATOM      5  C   UNL     1       6.188   5.833  17.733  0.00  0.00    +0.000 A 
ATOM      6  C   UNL     1       5.049   5.753  18.542  0.00  0.00    +0.000 A 
ATOM      7  C   UNL     1       4.014   4.859  18.211  0.00  0.00    +0.000 A 
ATOM      8  C   UNL     1       4.095   4.044  17.069  0.00  0.00    +0.000 A 
ATOM      9  C   UNL     1       5.254   4.121  16.284  0.00  0.00    +0.000 A 
ATOM     10  C   UNL     1       6.284   5.013  16.606  0.00  0.00    +0.000 A 
BRANCH   8  11
ATOM     11  C   UNL     1       3.010   3.046  16.715  0.00  0.00    +0.000 C 
BRANCH  11  12
ATOM     12  N   UNL     1       2.530   2.102  17.724  0.00  0.00    +0.000 NA
ATOM     13  C   UNL     1       1.431   2.530  18.596  0.00  0.00    +0.000 C 
ATOM     14  C   UNL     1       1.877   3.178  19.919  0.00  0.00    +0.000 C 
ATOM     15  O   UNL     1       2.840   2.377  20.616  0.00  0.00    +0.000 OA
ATOM     16  C   UNL     1       3.970   2.082  19.788  0.00  0.00    +0.000 C 
ATOM     17  C   UNL     1       3.545   1.380  18.493  0.00  0.00    +0.000 C 
ENDBRANCH  11  12
ENDBRANCH   8  11
ENDBRANCH   2   5
BRANCH   1  19
ATOM     18  C   UNL     1       7.970   9.989  18.159  0.00  0.00    +0.000 C 
ATOM     19  N   UNL     1       8.238   8.927  17.473  0.00  0.00    +0.000 NA
BRANCH  18  23
ATOM     20  C   UNL     1      12.332  12.035  19.702  0.00  0.00    +0.000 C 
ATOM     21  C   UNL     1      11.017  11.868  19.017  0.00  0.00    +0.000 A 
ATOM     22  C   UNL     1      10.273  10.707  19.000  0.00  0.00    +0.000 A 
ATOM     23  C   UNL     1       9.037  10.958  18.367  0.00  0.00    +0.000 A 
ATOM     24  C   UNL     1       9.059  12.294  17.969  0.00  0.00    +0.000 A 
ATOM     25  C   UNL     1       8.032  13.004  17.147  0.00  0.00    +0.000 C 
ATOM     26  N   UNL     1      10.283  12.868  18.374  0.00  0.00    +0.000 N 
BRANCH  26  27
ATOM     27  C   UNL     1      10.708  14.227  18.149  0.00  0.00    +0.000 A 
ATOM     28  C   UNL     1      11.614  14.542  17.128  0.00  0.00    +0.000 A 
ATOM     29  C   UNL     1      12.077  15.852  16.953  0.00  0.00    +0.000 A 
ATOM     30  C   UNL     1      11.608  16.875  17.770  0.00  0.00    +0.000 A 
ATOM     31  C   UNL     1      10.679  16.587  18.763  0.00  0.00    +0.000 A 
ATOM     32  C   UNL     1      10.242  15.271  18.961  0.00  0.00    +0.000 A 
ENDBRANCH  26  27
ENDBRANCH  18  23
ENDBRANCH   1  19
TORSDOF 6
ENDMDL
MODEL 4
REMARK VINA RESULT:      -8.1      7.373     11.183
REMARK  Name = 
REMARK  8 active torsions:
REMARK  status: ('A' for Active; 'I' for Inactive)
REMARK    1  A    between atoms: C_1  and  C_2
REMARK    2  A    between atoms: C_4  and  C_5
REMARK    3  A    between atoms: N_6  and  N_7
REMARK    4  A    between atoms: C_8  and  C_10
REMARK    5  A    between atoms: C_13  and  C_14
REMARK    6  A    between atoms: C_14  and  N_15
REMARK    7  A    between atoms: C_23  and  C_24
REMARK    8  A    between atoms: N_25  and  C_26
REMARK                            x       y       z     vdW  Elec       q    Type
REMARK                         _______ _______ _______ _____ _____    ______ ____
ROOT
ATOM      1  N   UNL     1       0.866   8.712  21.509  0.00  0.00    +0.000 N 
ATOM      2  C   UNL     1       0.457   9.804  20.749  0.00  0.00    +0.000 C 
ATOM      3  O   UNL     1       0.832  10.029  19.601  0.00  0.00    +0.000 OA
ATOM      4  H   UNL     1       0.450   8.499  22.407  0.00  0.00    +0.000 HD
ENDROOT
BRANCH   2   5
ATOM      5  C   UNL     1      -0.527  10.739  21.369  0.00  0.00    +0.000 A 
ATOM      6  C   UNL     1      -0.892  10.689  22.719  0.00  0.00    +0.000 A 
ATOM      7  C   UNL     1      -1.767  11.657  23.246  0.00  0.00    +0.000 A 
ATOM      8  C   UNL     1      -2.278  12.691  22.442  0.00  0.00    +0.000 A 
ATOM      9  C   UNL     1      -1.919  12.710  21.086  0.00  0.00    +0.000 A 
ATOM     10  C   UNL     1      -1.046  11.752  20.559  0.00  0.00    +0.000 A 
BRANCH   8  11
ATOM     11  C   UNL     1      -3.252  13.720  22.979  0.00  0.00    +0.000 C 
BRANCH  11  12
ATOM     12  N   UNL     1      -4.545  13.914  22.323  0.00  0.00    +0.000 NA
ATOM     13  C   UNL     1      -5.206  15.214  22.482  0.00  0.00    +0.000 C 
ATOM     14  C   UNL     1      -6.186  15.296  23.666  0.00  0.00    +0.000 C 
ATOM     15  O   UNL     1      -7.122  14.209  23.669  0.00  0.00    +0.000 OA
ATOM     16  C   UNL     1      -6.451  12.944  23.648  0.00  0.00    +0.000 C 
ATOM     17  C   UNL     1      -5.517  12.826  22.439  0.00  0.00    +0.000 C 
ENDBRANCH  11  12
ENDBRANCH   8  11
ENDBRANCH   2   5
BRANCH   1  19
ATOM     18  C   UNL     1       1.373   6.646  20.682  0.00  0.00    +0.000 C 
ATOM     19  N   UNL     1       1.773   7.844  20.959  0.00  0.00    +0.000 NA
BRANCH  18  23
ATOM     20  C   UNL     1       4.140   2.479  19.929  0.00  0.00    +0.000 C 
ATOM     21  C   UNL     1       3.545   3.832  19.727  0.00  0.00    +0.000 A 
ATOM     22  C   UNL     1       2.554   4.389  20.509  0.00  0.00    +0.000 A 
ATOM     23  C   UNL     1       2.333   5.720  20.099  0.00  0.00    +0.000 A 
ATOM     24  C   UNL     1       3.191   5.952  19.025  0.00  0.00    +0.000 A 
ATOM     25  C   UNL     1       3.245   7.174  18.164  0.00  0.00    +0.000 C 
ATOM     26  N   UNL     1       3.952   4.788  18.791  0.00  0.00    +0.000 N 
BRANCH  26  27
ATOM     27  C   UNL     1       4.948   4.606  17.765  0.00  0.00    +0.000 A 
ATOM     28  C   UNL     1       6.309   4.800  18.034  0.00  0.00    +0.000 A 
ATOM     29  C   UNL     1       7.268   4.688  17.021  0.00  0.00    +0.000 A 
ATOM     30  C   UNL     1       6.886   4.338  15.730  0.00  0.00    +0.000 A 
ATOM     31  C   UNL     1       5.543   4.104  15.454  0.00  0.00    +0.000 A 
ATOM     32  C   UNL     1       4.580   4.249  16.460  0.00  0.00    +0.000 A 
ENDBRANCH  26  27
ENDBRANCH  18  23
ENDBRANCH   1  19
TORSDOF 6
ENDMDL
MODEL 5
REMARK VINA RESULT:      -8.1      7.543     11.367
REMARK  Name = 
REMARK  8 active torsions:
REMARK  status: ('A' for Active; 'I' for Inactive)
REMARK    1  A    between atoms: C_1  and  C_2
REMARK    2  A    between atoms: C_4  and  C_5
REMARK    3  A    between atoms: N_6  and  N_7
REMARK    4  A    between atoms: C_8  and  C_10
REMARK    5  A    between atoms: C_13  and  C_14
REMARK    6  A    between atoms: C_14  and  N_15
REMARK    7  A    between atoms: C_23  and  C_24
REMARK    8  A    between atoms: N_25  and  C_26
REMARK                            x       y       z     vdW  Elec       q    Type
REMARK                         _______ _______ _______ _____ _____    ______ ____
ROOT
ATOM      1  N   UNL     1       0.819   8.736  21.301  0.00  0.00    +0.000 N 
ATOM      2  C   UNL     1       0.478   9.849  20.541  0.00  0.00    +0.000 C 
ATOM      3  O   UNL     1       0.931  10.092  19.423  0.00  0.00    +0.000 OA
ATOM      4  H   UNL     1       0.343   8.511  22.166  0.00  0.00    +0.000 HD
ENDROOT
BRANCH   2   5
ATOM      5  C   UNL     1      -0.528  10.789  21.115  0.00  0.00    +0.000 A 
ATOM      6  C   UNL     1      -1.304  11.656  20.338  0.00  0.00    +0.000 A 
ATOM      7  C   UNL     1      -2.289  12.455  20.949  0.00  0.00    +0.000 A 
ATOM      8  C   UNL     1      -2.521  12.392  22.333  0.00  0.00    +0.000 A 
ATOM      9  C   UNL     1      -1.718  11.535  23.099  0.00  0.00    +0.000 A 
ATOM     10  C   UNL     1      -0.740  10.735  22.496  0.00  0.00    +0.000 A 
BRANCH   8  11
ATOM     11  C   UNL     1      -3.549  13.272  23.017  0.00  0.00    +0.000 C 
BRANCH  11  12
ATOM     12  N   UNL     1      -3.422  14.728  22.954  0.00  0.00    +0.000 NA
ATOM     13  C   UNL     1      -2.517  15.379  23.907  0.00  0.00    +0.000 C 
ATOM     14  C   UNL     1      -3.186  15.843  25.213  0.00  0.00    +0.000 C 
ATOM     15  O   UNL     1      -4.367  16.620  24.970  0.00  0.00    +0.000 OA
ATOM     16  C   UNL     1      -5.297  15.909  24.145  0.00  0.00    +0.000 C 
ATOM     17  C   UNL     1      -4.661  15.495  22.814  0.00  0.00    +0.000 C 
ENDBRANCH  11  12
ENDBRANCH   8  11
ENDBRANCH   2   5
BRANCH   1  19
ATOM     18  C   UNL     1       1.373   6.646  20.570  0.00  0.00    +0.000 C 
ATOM     19  N   UNL     1       1.746   7.863  20.793  0.00  0.00    +0.000 NA
BRANCH  18  23
ATOM     20  C   UNL     1       4.198   2.491  19.984  0.00  0.00    +0.000 C 
ATOM     21  C   UNL     1       3.592   3.831  19.734  0.00  0.00    +0.000 A 
ATOM     22  C   UNL     1       2.581   4.397  20.481  0.00  0.00    +0.000 A 
ATOM     23  C   UNL     1       2.354   5.715  20.031  0.00  0.00    +0.000 A 
ATOM     24  C   UNL     1       3.230   5.927  18.967  0.00  0.00    +0.000 A 
ATOM     25  C   UNL     1       3.287   7.126  18.075  0.00  0.00    +0.000 C 
ATOM     26  N   UNL     1       4.008   4.765  18.780  0.00  0.00    +0.000 N 
BRANCH  26  27
ATOM     27  C   UNL     1       5.025   4.567  17.779  0.00  0.00    +0.000 A 
ATOM     28  C   UNL     1       6.380   4.766  18.074  0.00  0.00    +0.000 A 
ATOM     29  C   UNL     1       7.361   4.637  17.083  0.00  0.00    +0.000 A 
ATOM     30  C   UNL     1       7.005   4.266  15.790  0.00  0.00    +0.000 A 
ATOM     31  C   UNL     1       5.669   4.027  15.490  0.00  0.00    +0.000 A 
ATOM     32  C   UNL     1       4.685   4.189  16.472  0.00  0.00    +0.000 A 
ENDBRANCH  26  27
ENDBRANCH  18  23
ENDBRANCH   1  19
TORSDOF 6
ENDMDL
MODEL 6
REMARK VINA RESULT:      -8.0      8.101     10.234
REMARK  Name = 
REMARK  8 active torsions:
REMARK  status: ('A' for Active; 'I' for Inactive)
REMARK    1  A    between atoms: C_1  and  C_2
REMARK    2  A    between atoms: C_4  and  C_5
REMARK    3  A    between atoms: N_6  and  N_7
REMARK    4  A    between atoms: C_8  and  C_10
REMARK    5  A    between atoms: C_13  and  C_14
REMARK    6  A    between atoms: C_14  and  N_15
REMARK    7  A    between atoms: C_23  and  C_24
REMARK    8  A    between atoms: N_25  and  C_26
REMARK                            x       y       z     vdW  Elec       q    Type
REMARK                         _______ _______ _______ _____ _____    ______ ____
ROOT
ATOM      1  N   UNL     1       1.162   9.701  21.339  0.00  0.00    +0.000 N 
ATOM      2  C   UNL     1       0.780   8.381  21.123  0.00  0.00    +0.000 C 
ATOM      3  O   UNL     1      -0.238   7.869  21.585  0.00  0.00    +0.000 OA
ATOM      4  H   UNL     1       1.945  10.119  20.851  0.00  0.00    +0.000 HD
ENDROOT
BRANCH   2   5
ATOM      5  C   UNL     1       1.655   7.550  20.245  0.00  0.00    +0.000 A 
ATOM      6  C   UNL     1       1.961   6.210  20.510  0.00  0.00    +0.000 A 
ATOM      7  C   UNL     1       2.729   5.471  19.592  0.00  0.00    +0.000 A 
ATOM      8  C   UNL     1       3.189   6.050  18.397  0.00  0.00    +0.000 A 
ATOM      9  C   UNL     1       2.892   7.399  18.159  0.00  0.00    +0.000 A 
ATOM     10  C   UNL     1       2.125   8.138  19.068  0.00  0.00    +0.000 A 
BRANCH   8  11
ATOM     11  C   UNL     1       4.050   5.284  17.412  0.00  0.00    +0.000 C 
BRANCH  11  12
ATOM     12  N   UNL     1       5.241   5.911  16.841  0.00  0.00    +0.000 NA
ATOM     13  C   UNL     1       5.637   5.521  15.483  0.00  0.00    +0.000 C 
ATOM     14  C   UNL     1       6.645   4.359  15.417  0.00  0.00    +0.000 C 
ATOM     15  O   UNL     1       7.777   4.576  16.270  0.00  0.00    +0.000 OA
ATOM     16  C   UNL     1       7.372   4.823  17.621  0.00  0.00    +0.000 C 
ATOM     17  C   UNL     1       6.416   6.018  17.708  0.00  0.00    +0.000 C 
ENDBRANCH  11  12
ENDBRANCH   8  11
ENDBRANCH   2   5
BRANCH   1  19
ATOM     18  C   UNL     1      -0.343  11.400  21.587  0.00  0.00    +0.000 C 
ATOM     19  N   UNL     1       0.374  10.480  22.146  0.00  0.00    +0.000 NA
BRANCH  18  23
ATOM     20  C   UNL     1      -4.131  12.849  24.610  0.00  0.00    +0.000 C 
ATOM     21  C   UNL     1      -2.854  12.873  23.838  0.00  0.00    +0.000 A 
ATOM     22  C   UNL     1      -2.323  11.804  23.149  0.00  0.00    +0.000 A 
ATOM     23  C   UNL     1      -1.180  12.230  22.441  0.00  0.00    +0.000 A 
ATOM     24  C   UNL     1      -1.008  13.580  22.742  0.00  0.00    +0.000 A 
ATOM     25  C   UNL     1       0.136  14.454  22.335  0.00  0.00    +0.000 C 
ATOM     26  N   UNL     1      -2.047  13.990  23.604  0.00  0.00    +0.000 N 
BRANCH  26  27
ATOM     27  C   UNL     1      -2.232  15.307  24.159  0.00  0.00    +0.000 A 
ATOM     28  C   UNL     1      -2.995  16.274  23.491  0.00  0.00    +0.000 A 
ATOM     29  C   UNL     1      -3.118  17.573  23.999  0.00  0.00    +0.000 A 
ATOM     30  C   UNL     1      -2.514  17.914  25.205  0.00  0.00    +0.000 A 
ATOM     31  C   UNL     1      -1.785  16.955  25.900  0.00  0.00    +0.000 A 
ATOM     32  C   UNL     1      -1.633  15.666  25.375  0.00  0.00    +0.000 A 
ENDBRANCH  26  27
ENDBRANCH  18  23
ENDBRANCH   1  19
TORSDOF 6
ENDMDL
MODEL 7
REMARK VINA RESULT:      -8.0      7.450     11.278
REMARK  Name = 
REMARK  8 active torsions:
REMARK  status: ('A' for Active; 'I' for Inactive)
REMARK    1  A    between atoms: C_1  and  C_2
REMARK    2  A    between atoms: C_4  and  C_5
REMARK    3  A    between atoms: N_6  and  N_7
REMARK    4  A    between atoms: C_8  and  C_10
REMARK    5  A    between atoms: C_13  and  C_14
REMARK    6  A    between atoms: C_14  and  N_15
REMARK    7  A    between atoms: C_23  and  C_24
REMARK    8  A    between atoms: N_25  and  C_26
REMARK                            x       y       z     vdW  Elec       q    Type
REMARK                         _______ _______ _______ _____ _____    ______ ____
ROOT
ATOM      1  N   UNL     1       0.905   8.696  21.465  0.00  0.00    +0.000 N 
ATOM      2  C   UNL     1       0.478   9.759  20.677  0.00  0.00    +0.000 C 
ATOM      3  O   UNL     1       0.849   9.961  19.522  0.00  0.00    +0.000 OA
ATOM      4  H   UNL     1       0.493   8.499  22.369  0.00  0.00    +0.000 HD
ENDROOT
BRANCH   2   5
ATOM      5  C   UNL     1      -0.520  10.695  21.272  0.00  0.00    +0.000 A 
ATOM      6  C   UNL     1      -0.834  10.721  22.636  0.00  0.00    +0.000 A 
ATOM      7  C   UNL     1      -1.729  11.687  23.132  0.00  0.00    +0.000 A 
ATOM      8  C   UNL     1      -2.310  12.644  22.283  0.00  0.00    +0.000 A 
ATOM      9  C   UNL     1      -2.002  12.588  20.916  0.00  0.00    +0.000 A 
ATOM     10  C   UNL     1      -1.109  11.632  20.418  0.00  0.00    +0.000 A 
BRANCH   8  11
ATOM     11  C   UNL     1      -3.306  13.669  22.789  0.00  0.00    +0.000 C 
BRANCH  11  12
ATOM     12  N   UNL     1      -2.905  15.068  22.934  0.00  0.00    +0.000 NA
ATOM     13  C   UNL     1      -1.615  15.349  23.575  0.00  0.00    +0.000 C 
ATOM     14  C   UNL     1      -1.689  15.575  25.096  0.00  0.00    +0.000 C 
ATOM     15  O   UNL     1      -2.691  16.538  25.450  0.00  0.00    +0.000 OA
ATOM     16  C   UNL     1      -3.973  16.174  24.926  0.00  0.00    +0.000 C 
ATOM     17  C   UNL     1      -3.927  16.005  23.403  0.00  0.00    +0.000 C 
ENDBRANCH  11  12
ENDBRANCH   8  11
ENDBRANCH   2   5
BRANCH   1  19
ATOM     18  C   UNL     1       1.412   6.664  20.556  0.00  0.00    +0.000 C 
ATOM     19  N   UNL     1       1.826   7.828  20.938  0.00  0.00    +0.000 NA
BRANCH  18  23
ATOM     20  C   UNL     1       4.234   2.517  19.901  0.00  0.00    +0.000 C 
ATOM     21  C   UNL     1       3.623   3.859  19.669  0.00  0.00    +0.000 A 
ATOM     22  C   UNL     1       2.622   4.418  20.434  0.00  0.00    +0.000 A 
ATOM     23  C   UNL     1       2.387   5.738  19.997  0.00  0.00    +0.000 A 
ATOM     24  C   UNL     1       3.247   5.960  18.923  0.00  0.00    +0.000 A 
ATOM     25  C   UNL     1       3.290   7.164  18.038  0.00  0.00    +0.000 C 
ATOM     26  N   UNL     1       4.024   4.800  18.716  0.00  0.00    +0.000 N 
BRANCH  26  27
ATOM     27  C   UNL     1       5.027   4.610  17.699  0.00  0.00    +0.000 A 
ATOM     28  C   UNL     1       4.684   4.145  16.422  0.00  0.00    +0.000 A 
ATOM     29  C   UNL     1       5.668   3.898  15.457  0.00  0.00    +0.000 A 
ATOM     30  C   UNL     1       7.006   4.152  15.739  0.00  0.00    +0.000 A 
ATOM     31  C   UNL     1       7.359   4.651  16.988  0.00  0.00    +0.000 A 
ATOM     32  C   UNL     1       6.380   4.866  17.965  0.00  0.00    +0.000 A 
ENDBRANCH  26  27
ENDBRANCH  18  23
ENDBRANCH   1  19
TORSDOF 6
ENDMDL
MODEL 8
REMARK VINA RESULT:      -8.0      7.277     11.126
REMARK  Name = 
REMARK  8 active torsions:
REMARK  status: ('A' for Active; 'I' for Inactive)
REMARK    1  A    between atoms: C_1  and  C_2
REMARK    2  A    between atoms: C_4  and  C_5
REMARK    3  A    between atoms: N_6  and  N_7
REMARK    4  A    between atoms: C_8  and  C_10
REMARK    5  A    between atoms: C_13  and  C_14
REMARK    6  A    between atoms: C_14  and  N_15
REMARK    7  A    between atoms: C_23  and  C_24
REMARK    8  A    between atoms: N_25  and  C_26
REMARK                            x       y       z     vdW  Elec       q    Type
REMARK                         _______ _______ _______ _____ _____    ______ ____
ROOT
ATOM      1  N   UNL     1       0.711   8.608  21.160  0.00  0.00    +0.000 N 
ATOM      2  C   UNL     1       0.570   9.875  20.604  0.00  0.00    +0.000 C 
ATOM      3  O   UNL     1       1.215  10.287  19.641  0.00  0.00    +0.000 OA
ATOM      4  H   UNL     1       0.085   8.266  21.878  0.00  0.00    +0.000 HD
ENDROOT
BRANCH   2   5
ATOM      5  C   UNL     1      -0.458  10.776  21.204  0.00  0.00    +0.000 A 
ATOM      6  C   UNL     1      -0.828  10.731  22.552  0.00  0.00    +0.000 A 
ATOM      7  C   UNL     1      -1.747  11.667  23.060  0.00  0.00    +0.000 A 
ATOM      8  C   UNL     1      -2.299  12.665  22.237  0.00  0.00    +0.000 A 
ATOM      9  C   UNL     1      -1.934  12.679  20.883  0.00  0.00    +0.000 A 
ATOM     10  C   UNL     1      -1.016  11.753  20.375  0.00  0.00    +0.000 A 
BRANCH   8  11
ATOM     11  C   UNL     1      -3.320  13.658  22.753  0.00  0.00    +0.000 C 
BRANCH  11  12
ATOM     12  N   UNL     1      -4.719  13.259  22.899  0.00  0.00    +0.000 NA
ATOM     13  C   UNL     1      -5.398  12.696  21.726  0.00  0.00    +0.000 C 
ATOM     14  C   UNL     1      -6.145  13.727  20.861  0.00  0.00    +0.000 C 
ATOM     15  O   UNL     1      -7.014  14.559  21.641  0.00  0.00    +0.000 OA
ATOM     16  C   UNL     1      -6.302  15.205  22.702  0.00  0.00    +0.000 C 
ATOM     17  C   UNL     1      -5.603  14.186  23.609  0.00  0.00    +0.000 C 
ENDBRANCH  11  12
ENDBRANCH   8  11
ENDBRANCH   2   5
BRANCH   1  19
ATOM     18  C   UNL     1       1.382   6.504  20.582  0.00  0.00    +0.000 C 
ATOM     19  N   UNL     1       1.653   7.768  20.626  0.00  0.00    +0.000 NA
BRANCH  18  23
ATOM     20  C   UNL     1       4.312   2.437  19.903  0.00  0.00    +0.000 C 
ATOM     21  C   UNL     1       3.666   3.763  19.678  0.00  0.00    +0.000 A 
ATOM     22  C   UNL     1       2.651   4.292  20.448  0.00  0.00    +0.000 A 
ATOM     23  C   UNL     1       2.380   5.607  20.017  0.00  0.00    +0.000 A 
ATOM     24  C   UNL     1       3.233   5.857  18.943  0.00  0.00    +0.000 A 
ATOM     25  C   UNL     1       3.243   7.067  18.065  0.00  0.00    +0.000 C 
ATOM     26  N   UNL     1       4.040   4.719  18.730  0.00  0.00    +0.000 N 
BRANCH  26  27
ATOM     27  C   UNL     1       5.046   4.561  17.711  0.00  0.00    +0.000 A 
ATOM     28  C   UNL     1       4.715   4.094  16.432  0.00  0.00    +0.000 A 
ATOM     29  C   UNL     1       5.703   3.878  15.464  0.00  0.00    +0.000 A 
ATOM     30  C   UNL     1       7.035   4.165  15.746  0.00  0.00    +0.000 A 
ATOM     31  C   UNL     1       7.376   4.666  16.998  0.00  0.00    +0.000 A 
ATOM     32  C   UNL     1       6.392   4.850  17.977  0.00  0.00    +0.000 A 
ENDBRANCH  26  27
ENDBRANCH  18  23
ENDBRANCH   1  19
TORSDOF 6
ENDMDL
MODEL 9
REMARK VINA RESULT:      -7.9      7.405     11.271
REMARK  Name = 
REMARK  8 active torsions:
REMARK  status: ('A' for Active; 'I' for Inactive)
REMARK    1  A    between atoms: C_1  and  C_2
REMARK    2  A    between atoms: C_4  and  C_5
REMARK    3  A    between atoms: N_6  and  N_7
REMARK    4  A    between atoms: C_8  and  C_10
REMARK    5  A    between atoms: C_13  and  C_14
REMARK    6  A    between atoms: C_14  and  N_15
REMARK    7  A    between atoms: C_23  and  C_24
REMARK    8  A    between atoms: N_25  and  C_26
REMARK                            x       y       z     vdW  Elec       q    Type
REMARK                         _______ _______ _______ _____ _____    ______ ____
ROOT
ATOM      1  N   UNL     1       0.881   8.752  21.550  0.00  0.00    +0.000 N 
ATOM      2  C   UNL     1       0.473   9.813  20.749  0.00  0.00    +0.000 C 
ATOM      3  O   UNL     1       0.861  10.003  19.598  0.00  0.00    +0.000 OA
ATOM      4  H   UNL     1       0.455   8.565  22.450  0.00  0.00    +0.000 HD
ENDROOT
BRANCH   2   5
ATOM      5  C   UNL     1      -0.528  10.760  21.323  0.00  0.00    +0.000 A 
ATOM      6  C   UNL     1      -1.222  11.704  20.559  0.00  0.00    +0.000 A 
ATOM      7  C   UNL     1      -2.208  12.507  21.161  0.00  0.00    +0.000 A 
ATOM      8  C   UNL     1      -2.523  12.372  22.524  0.00  0.00    +0.000 A 
ATOM      9  C   UNL     1      -1.800  11.438  23.279  0.00  0.00    +0.000 A 
ATOM     10  C   UNL     1      -0.822  10.633  22.684  0.00  0.00    +0.000 A 
BRANCH   8  11
ATOM     11  C   UNL     1      -3.553  13.254  23.202  0.00  0.00    +0.000 C 
BRANCH  11  12
ATOM     12  N   UNL     1      -3.121  14.333  24.089  0.00  0.00    +0.000 NA
ATOM     13  C   UNL     1      -4.095  15.379  24.422  0.00  0.00    +0.000 C 
ATOM     14  C   UNL     1      -4.064  16.604  23.490  0.00  0.00    +0.000 C 
ATOM     15  O   UNL     1      -2.739  17.128  23.330  0.00  0.00    +0.000 OA
ATOM     16  C   UNL     1      -1.831  16.120  22.875  0.00  0.00    +0.000 C 
ATOM     17  C   UNL     1      -1.805  14.919  23.828  0.00  0.00    +0.000 C 
ENDBRANCH  11  12
ENDBRANCH   8  11
ENDBRANCH   2   5
BRANCH   1  19
ATOM     18  C   UNL     1       1.369   6.769  20.531  0.00  0.00    +0.000 C 
ATOM     19  N   UNL     1       1.804   7.874  21.043  0.00  0.00    +0.000 NA
BRANCH  18  23
ATOM     20  C   UNL     1       4.160   2.592  19.934  0.00  0.00    +0.000 C 
ATOM     21  C   UNL     1       3.568   3.940  19.689  0.00  0.00    +0.000 A 
ATOM     22  C   UNL     1       2.558   4.510  20.434  0.00  0.00    +0.000 A 
ATOM     23  C   UNL     1       2.345   5.833  19.992  0.00  0.00    +0.000 A 
ATOM     24  C   UNL     1       3.229   6.045  18.936  0.00  0.00    +0.000 A 
ATOM     25  C   UNL     1       3.303   7.248  18.052  0.00  0.00    +0.000 C 
ATOM     26  N   UNL     1       3.998   4.877  18.745  0.00  0.00    +0.000 N 
BRANCH  26  27
ATOM     27  C   UNL     1       5.019   4.676  17.748  0.00  0.00    +0.000 A 
ATOM     28  C   UNL     1       4.694   4.254  16.452  0.00  0.00    +0.000 A 
ATOM     29  C   UNL     1       5.692   3.996  15.505  0.00  0.00    +0.000 A 
ATOM     30  C   UNL     1       7.031   4.195  15.827  0.00  0.00    +0.000 A 
ATOM     31  C   UNL     1       7.369   4.650  17.096  0.00  0.00    +0.000 A 
ATOM     32  C   UNL     1       6.373   4.876  18.054  0.00  0.00    +0.000 A 
ENDBRANCH  26  27
ENDBRANCH  18  23
ENDBRANCH   1  19
TORSDOF 6
ENDMDL
