MODEL 1
REMARK VINA RESULT:      -8.5      0.000      0.000
REMARK  Name = 
REMARK  7 active torsions:
REMARK  status: ('A' for Active; 'I' for Inactive)
REMARK    1  A    between atoms: C_1  and  C_2
REMARK    2  A    between atoms: C_2  and  C_3
REMARK    3  A    between atoms: C_2  and  O_4
REMARK    4  A    between atoms: C_2  and  C_5
REMARK    5  A    between atoms: C_10  and  C_11
REMARK    6  A    between atoms: C_16  and  O_17
REMARK    7  A    between atoms: C_25  and  O_26
REMARK                            x       y       z     vdW  Elec       q    Type
REMARK                         _______ _______ _______ _____ _____    ______ ____
ROOT
ATOM      1  C   UNL     1       2.922   4.422  18.819  0.00  0.00    +0.000 C 
ATOM      2  O   UNL     1       2.919   5.530  17.864  0.00  0.00    +0.000 OA
ATOM      3  C   UNL     1       2.441   6.608  18.554  0.00  0.00    +0.000 A 
ATOM      4  C   UNL     1       2.232   7.865  18.004  0.00  0.00    +0.000 A 
ATOM      5  C   UNL     1       1.732   8.890  18.826  0.00  0.00    +0.000 A 
ATOM      6  C   UNL     1       1.469   8.649  20.186  0.00  0.00    +0.000 A 
ATOM      7  C   UNL     1       1.672   7.352  20.706  0.00  0.00    +0.000 A 
ATOM      8  C   UNL     1       2.158   6.351  19.878  0.00  0.00    +0.000 A 
ATOM      9  C   UNL     1       2.413   4.926  20.193  0.00  0.00    +0.000 C 
ENDROOT
BRANCH   6  10
ATOM     10  C   UNL     1       1.018   9.708  21.099  0.00  0.00    +0.000 A 
ATOM     11  C   UNL     1       0.704   9.374  22.359  0.00  0.00    +0.000 A 
ATOM     12  O   UNL     1       0.051  10.182  23.256  0.00  0.00    +0.000 OA
ATOM     13  C   UNL     1      -0.748  11.134  22.675  0.00  0.00    +0.000 A 
ATOM     14  C   UNL     1      -1.962  11.403  23.291  0.00  0.00    +0.000 A 
ATOM     15  C   UNL     1      -2.853  12.254  22.653  0.00  0.00    +0.000 A 
ATOM     16  C   UNL     1      -2.489  12.938  21.491  0.00  0.00    +0.000 A 
ATOM     17  C   UNL     1      -1.252  12.685  20.888  0.00  0.00    +0.000 A 
ATOM     18  C   UNL     1      -0.414  11.721  21.453  0.00  0.00    +0.000 A 
ATOM     19  C   UNL     1       0.711  11.115  20.696  0.00  0.00    +0.000 A 
ATOM     20  O   UNL     1       1.264  11.696  19.772  0.00  0.00    +0.000 OA
BRANCH  15  21
ATOM     21  O   UNL     1      -4.128  12.389  23.114  0.00  0.00    +0.000 OA
ATOM     22  H   UNL     1      -4.336  13.339  23.158  0.00  0.00    +0.000 HD
ENDBRANCH  15  21
ENDBRANCH   6  10
BRANCH   1  24
ATOM     23  C   UNL     1       4.400   2.582  19.858  0.00  0.00    +0.000 C 
ATOM     24  C   UNL     1       4.323   3.746  18.866  0.00  0.00    +0.000 C 
ATOM     25  C   UNL     1       5.403   4.779  19.219  0.00  0.00    +0.000 C 
BRANCH  24  26
ATOM     26  O   UNL     1       4.635   3.232  17.563  0.00  0.00    +0.000 OA
ATOM     27  H   UNL     1       5.387   2.620  17.648  0.00  0.00    +0.000 HD
ENDBRANCH  24  26
ENDBRANCH   1  24
BRANCH   9  28
ATOM     28  O   UNL     1       1.183   4.307  20.565  0.00  0.00    +0.000 OA
ATOM     29  H   UNL     1       1.299   3.955  21.466  0.00  0.00    +0.000 HD
ENDBRANCH   9  28
TORSDOF 5
ENDMDL
MODEL 2
REMARK VINA RESULT:      -8.4      2.542      8.969
REMARK  Name = 
REMARK  7 active torsions:
REMARK  status: ('A' for Active; 'I' for Inactive)
REMARK    1  A    between atoms: C_1  and  C_2
REMARK    2  A    between atoms: C_2  and  C_3
REMARK    3  A    between atoms: C_2  and  O_4
REMARK    4  A    between atoms: C_2  and  C_5
REMARK    5  A    between atoms: C_10  and  C_11
REMARK    6  A    between atoms: C_16  and  O_17
REMARK    7  A    between atoms: C_25  and  O_26
REMARK                            x       y       z     vdW  Elec       q    Type
REMARK                         _______ _______ _______ _____ _____    ______ ____
ROOT
ATOM      1  C   UNL     1       0.440   9.169  20.474  0.00  0.00    +0.000 C 
ATOM      2  O   UNL     1       0.337   7.901  21.196  0.00  0.00    +0.000 OA
ATOM      3  C   UNL     1       1.250   7.069  20.611  0.00  0.00    +0.000 A 
ATOM      4  C   UNL     1       1.448   5.743  20.967  0.00  0.00    +0.000 A 
ATOM      5  C   UNL     1       2.421   4.995  20.282  0.00  0.00    +0.000 A 
ATOM      6  C   UNL     1       3.193   5.589  19.268  0.00  0.00    +0.000 A 
ATOM      7  C   UNL     1       2.950   6.935  18.918  0.00  0.00    +0.000 A 
ATOM      8  C   UNL     1       1.980   7.654  19.599  0.00  0.00    +0.000 A 
ATOM      9  C   UNL     1       1.535   9.051  19.383  0.00  0.00    +0.000 C 
ENDROOT
BRANCH   6  10
ATOM     10  C   UNL     1       4.272   4.869  18.578  0.00  0.00    +0.000 A 
ATOM     11  C   UNL     1       5.537   5.091  18.963  0.00  0.00    +0.000 A 
ATOM     12  O   UNL     1       6.659   4.692  18.280  0.00  0.00    +0.000 OA
ATOM     13  C   UNL     1       6.466   4.533  16.931  0.00  0.00    +0.000 A 
ATOM     14  C   UNL     1       7.494   4.941  16.092  0.00  0.00    +0.000 A 
ATOM     15  C   UNL     1       7.275   4.926  14.722  0.00  0.00    +0.000 A 
ATOM     16  C   UNL     1       6.106   4.384  14.185  0.00  0.00    +0.000 A 
ATOM     17  C   UNL     1       5.082   3.947  15.034  0.00  0.00    +0.000 A 
ATOM     18  C   UNL     1       5.244   4.094  16.414  0.00  0.00    +0.000 A 
ATOM     19  C   UNL     1       4.097   4.029  17.354  0.00  0.00    +0.000 A 
ATOM     20  O   UNL     1       3.074   3.410  17.091  0.00  0.00    +0.000 OA
BRANCH  15  21
ATOM     21  O   UNL     1       8.172   5.502  13.875  0.00  0.00    +0.000 OA
ATOM     22  H   UNL     1       7.877   5.338  12.962  0.00  0.00    +0.000 HD
ENDBRANCH  15  21
ENDBRANCH   6  10
BRANCH   1  24
ATOM     23  C   UNL     1      -0.590  10.667  22.302  0.00  0.00    +0.000 C 
ATOM     24  C   UNL     1       0.653  10.347  21.467  0.00  0.00    +0.000 C 
ATOM     25  C   UNL     1       1.090  11.610  20.711  0.00  0.00    +0.000 C 
BRANCH  24  26
ATOM     26  O   UNL     1       1.713  10.004  22.373  0.00  0.00    +0.000 OA
ATOM     27  H   UNL     1       2.560  10.109  21.905  0.00  0.00    +0.000 HD
ENDBRANCH  24  26
ENDBRANCH   1  24
BRANCH   9  28
ATOM     28  O   UNL     1       0.991   9.165  18.069  0.00  0.00    +0.000 OA
ATOM     29  H   UNL     1       0.257   9.804  18.116  0.00  0.00    +0.000 HD
ENDBRANCH   9  28
TORSDOF 5
ENDMDL
MODEL 3
REMARK VINA RESULT:      -8.4      2.367      8.884
REMARK  Name = 
REMARK  7 active torsions:
REMARK  status: ('A' for Active; 'I' for Inactive)
REMARK    1  A    between atoms: C_1  and  C_2
REMARK    2  A    between atoms: C_2  and  C_3
REMARK    3  A    between atoms: C_2  and  O_4
REMARK    4  A    between atoms: C_2  and  C_5
REMARK    5  A    between atoms: C_10  and  C_11
REMARK    6  A    between atoms: C_16  and  O_17
REMARK    7  A    between atoms: C_25  and  O_26
REMARK                            x       y       z     vdW  Elec       q    Type
REMARK                         _______ _______ _______ _____ _____    ______ ____
ROOT
ATOM      1  C   UNL     1       0.226  10.253  19.774  0.00  0.00    +0.000 C 
ATOM      2  O   UNL     1       0.192   9.230  20.818  0.00  0.00    +0.000 OA
ATOM      3  C   UNL     1       1.040   8.245  20.396  0.00  0.00    +0.000 A 
ATOM      4  C   UNL     1       1.268   7.058  21.077  0.00  0.00    +0.000 A 
ATOM      5  C   UNL     1       2.166   6.125  20.531  0.00  0.00    +0.000 A 
ATOM      6  C   UNL     1       2.835   6.401  19.325  0.00  0.00    +0.000 A 
ATOM      7  C   UNL     1       2.562   7.609  18.648  0.00  0.00    +0.000 A 
ATOM      8  C   UNL     1       1.666   8.514  19.199  0.00  0.00    +0.000 A 
ATOM      9  C   UNL     1       1.206   9.814  18.656  0.00  0.00    +0.000 C 
ENDROOT
BRANCH   6  10
ATOM     10  C   UNL     1       3.837   5.490  18.756  0.00  0.00    +0.000 A 
ATOM     11  C   UNL     1       5.095   5.556  19.216  0.00  0.00    +0.000 A 
ATOM     12  O   UNL     1       6.186   4.956  18.638  0.00  0.00    +0.000 OA
ATOM     13  C   UNL     1       6.055   4.735  17.290  0.00  0.00    +0.000 A 
ATOM     14  C   UNL     1       7.182   4.935  16.504  0.00  0.00    +0.000 A 
ATOM     15  C   UNL     1       7.047   4.859  15.125  0.00  0.00    +0.000 A 
ATOM     16  C   UNL     1       5.847   4.453  14.539  0.00  0.00    +0.000 A 
ATOM     17  C   UNL     1       4.720   4.225  15.338  0.00  0.00    +0.000 A 
ATOM     18  C   UNL     1       4.817   4.441  16.714  0.00  0.00    +0.000 A 
ATOM     19  C   UNL     1       3.616   4.602  17.573  0.00  0.00    +0.000 A 
ATOM     20  O   UNL     1       2.532   4.119  17.275  0.00  0.00    +0.000 OA
BRANCH  15  21
ATOM     21  O   UNL     1       8.070   5.244  14.311  0.00  0.00    +0.000 OA
ATOM     22  H   UNL     1       8.865   4.743  14.566  0.00  0.00    +0.000 HD
ENDBRANCH  15  21
ENDBRANCH   6  10
BRANCH   1  24
ATOM     23  C   UNL     1      -0.705  12.516  20.587  0.00  0.00    +0.000 C 
ATOM     24  C   UNL     1       0.541  11.648  20.386  0.00  0.00    +0.000 C 
ATOM     25  C   UNL     1       1.543  12.405  19.503  0.00  0.00    +0.000 C 
BRANCH  24  26
ATOM     26  O   UNL     1       1.157  11.464  21.669  0.00  0.00    +0.000 OA
ATOM     27  H   UNL     1       1.046  10.533  21.930  0.00  0.00    +0.000 HD
ENDBRANCH  24  26
ENDBRANCH   1  24
BRANCH   9  28
ATOM     28  O   UNL     1       0.533   9.586  17.419  0.00  0.00    +0.000 OA
ATOM     29  H   UNL     1       0.785   8.696  17.113  0.00  0.00    +0.000 HD
ENDBRANCH   9  28
TORSDOF 5
ENDMDL
MODEL 4
REMARK VINA RESULT:      -8.4      0.864      1.101
REMARK  Name = 
REMARK  7 active torsions:
REMARK  status: ('A' for Active; 'I' for Inactive)
REMARK    1  A    between atoms: C_1  and  C_2
REMARK    2  A    between atoms: C_2  and  C_3
REMARK    3  A    between atoms: C_2  and  O_4
REMARK    4  A    between atoms: C_2  and  C_5
REMARK    5  A    between atoms: C_10  and  C_11
REMARK    6  A    between atoms: C_16  and  O_17
REMARK    7  A    between atoms: C_25  and  O_26
REMARK                            x       y       z     vdW  Elec       q    Type
REMARK                         _______ _______ _______ _____ _____    ______ ____
ROOT
ATOM      1  C   UNL     1       2.459   3.880  18.967  0.00  0.00    +0.000 C 
ATOM      2  O   UNL     1       2.762   4.964  18.034  0.00  0.00    +0.000 OA
ATOM      3  C   UNL     1       2.373   6.112  18.665  0.00  0.00    +0.000 A 
ATOM      4  C   UNL     1       2.444   7.381  18.107  0.00  0.00    +0.000 A 
ATOM      5  C   UNL     1       2.008   8.481  18.866  0.00  0.00    +0.000 A 
ATOM      6  C   UNL     1       1.527   8.298  20.174  0.00  0.00    +0.000 A 
ATOM      7  C   UNL     1       1.449   6.991  20.702  0.00  0.00    +0.000 A 
ATOM      8  C   UNL     1       1.876   5.917  19.935  0.00  0.00    +0.000 A 
ATOM      9  C   UNL     1       1.855   4.473  20.265  0.00  0.00    +0.000 C 
ENDROOT
BRANCH   6  10
ATOM     10  C   UNL     1       1.132   9.425  21.030  0.00  0.00    +0.000 A 
ATOM     11  C   UNL     1       0.904   9.190  22.330  0.00  0.00    +0.000 A 
ATOM     12  O   UNL     1       0.307  10.064  23.204  0.00  0.00    +0.000 OA
ATOM     13  C   UNL     1      -0.534  10.968  22.606  0.00  0.00    +0.000 A 
ATOM     14  C   UNL     1      -1.707  11.283  23.279  0.00  0.00    +0.000 A 
ATOM     15  C   UNL     1      -2.643  12.081  22.637  0.00  0.00    +0.000 A 
ATOM     16  C   UNL     1      -2.362  12.672  21.404  0.00  0.00    +0.000 A 
ATOM     17  C   UNL     1      -1.165  12.375  20.741  0.00  0.00    +0.000 A 
ATOM     18  C   UNL     1      -0.286  11.458  21.322  0.00  0.00    +0.000 A 
ATOM     19  C   UNL     1       0.790  10.796  20.541  0.00  0.00    +0.000 A 
ATOM     20  O   UNL     1       1.276  11.304  19.540  0.00  0.00    +0.000 OA
BRANCH  15  21
ATOM     21  O   UNL     1      -3.885  12.250  23.170  0.00  0.00    +0.000 OA
ATOM     22  H   UNL     1      -3.906  11.806  24.036  0.00  0.00    +0.000 HD
ENDBRANCH  15  21
ENDBRANCH   6  10
BRANCH   1  24
ATOM     23  C   UNL     1       5.033   3.730  18.953  0.00  0.00    +0.000 C 
ATOM     24  C   UNL     1       3.714   2.989  19.195  0.00  0.00    +0.000 C 
ATOM     25  C   UNL     1       3.660   1.749  18.291  0.00  0.00    +0.000 C 
BRANCH  24  26
ATOM     26  O   UNL     1       3.714   2.527  20.553  0.00  0.00    +0.000 OA
ATOM     27  H   UNL     1       2.939   2.905  21.005  0.00  0.00    +0.000 HD
ENDBRANCH  24  26
ENDBRANCH   1  24
BRANCH   9  28
ATOM     28  O   UNL     1       0.503   4.062  20.460  0.00  0.00    +0.000 OA
ATOM     29  H   UNL     1       0.359   3.990  21.421  0.00  0.00    +0.000 HD
ENDBRANCH   9  28
TORSDOF 5
ENDMDL
MODEL 5
REMARK VINA RESULT:      -8.0      2.285      8.800
REMARK  Name = 
REMARK  7 active torsions:
REMARK  status: ('A' for Active; 'I' for Inactive)
REMARK    1  A    between atoms: C_1  and  C_2
REMARK    2  A    between atoms: C_2  and  C_3
REMARK    3  A    between atoms: C_2  and  O_4
REMARK    4  A    between atoms: C_2  and  C_5
REMARK    5  A    between atoms: C_10  and  C_11
REMARK    6  A    between atoms: C_16  and  O_17
REMARK    7  A    between atoms: C_25  and  O_26
REMARK                            x       y       z     vdW  Elec       q    Type
REMARK                         _______ _______ _______ _____ _____    ______ ____
ROOT
ATOM      1  C   UNL     1      -0.017  10.501  19.712  0.00  0.00    +0.000 C 
ATOM      2  O   UNL     1      -0.026   9.539  20.814  0.00  0.00    +0.000 OA
ATOM      3  C   UNL     1       0.824   8.538  20.435  0.00  0.00    +0.000 A 
ATOM      4  C   UNL     1       1.073   7.393  21.179  0.00  0.00    +0.000 A 
ATOM      5  C   UNL     1       1.971   6.438  20.672  0.00  0.00    +0.000 A 
ATOM      6  C   UNL     1       2.618   6.650  19.442  0.00  0.00    +0.000 A 
ATOM      7  C   UNL     1       2.324   7.816  18.702  0.00  0.00    +0.000 A 
ATOM      8  C   UNL     1       1.429   8.744  19.215  0.00  0.00    +0.000 A 
ATOM      9  C   UNL     1       0.949  10.007  18.606  0.00  0.00    +0.000 C 
ENDROOT
BRANCH   6  10
ATOM     10  C   UNL     1       3.619   5.716  18.910  0.00  0.00    +0.000 A 
ATOM     11  C   UNL     1       4.868   5.774  19.394  0.00  0.00    +0.000 A 
ATOM     12  O   UNL     1       5.963   5.149  18.849  0.00  0.00    +0.000 OA
ATOM     13  C   UNL     1       5.856   4.906  17.503  0.00  0.00    +0.000 A 
ATOM     14  C   UNL     1       7.001   5.077  16.737  0.00  0.00    +0.000 A 
ATOM     15  C   UNL     1       6.893   4.977  15.357  0.00  0.00    +0.000 A 
ATOM     16  C   UNL     1       5.699   4.577  14.754  0.00  0.00    +0.000 A 
ATOM     17  C   UNL     1       4.554   4.377  15.534  0.00  0.00    +0.000 A 
ATOM     18  C   UNL     1       4.626   4.617  16.908  0.00  0.00    +0.000 A 
ATOM     19  C   UNL     1       3.411   4.810  17.739  0.00  0.00    +0.000 A 
ATOM     20  O   UNL     1       2.326   4.335  17.428  0.00  0.00    +0.000 OA
BRANCH  15  21
ATOM     21  O   UNL     1       7.937   5.334  14.557  0.00  0.00    +0.000 OA
ATOM     22  H   UNL     1       8.647   4.678  14.674  0.00  0.00    +0.000 HD
ENDBRANCH  15  21
ENDBRANCH   6  10
BRANCH   1  24
ATOM     23  C   UNL     1       1.778  12.302  20.140  0.00  0.00    +0.000 C 
ATOM     24  C   UNL     1       0.295  11.931  20.239  0.00  0.00    +0.000 C 
ATOM     25  C   UNL     1      -0.162  12.074  21.699  0.00  0.00    +0.000 C 
BRANCH  24  26
ATOM     26  O   UNL     1      -0.447  12.884  19.465  0.00  0.00    +0.000 OA
ATOM     27  H   UNL     1      -0.188  13.778  19.751  0.00  0.00    +0.000 HD
ENDBRANCH  24  26
ENDBRANCH   1  24
BRANCH   9  28
ATOM     28  O   UNL     1       0.260   9.704  17.394  0.00  0.00    +0.000 OA
ATOM     29  H   UNL     1       0.500  10.392  16.747  0.00  0.00    +0.000 HD
ENDBRANCH   9  28
TORSDOF 5
ENDMDL
MODEL 6
REMARK VINA RESULT:      -7.8      1.252      1.561
REMARK  Name = 
REMARK  7 active torsions:
REMARK  status: ('A' for Active; 'I' for Inactive)
REMARK    1  A    between atoms: C_1  and  C_2
REMARK    2  A    between atoms: C_2  and  C_3
REMARK    3  A    between atoms: C_2  and  O_4
REMARK    4  A    between atoms: C_2  and  C_5
REMARK    5  A    between atoms: C_10  and  C_11
REMARK    6  A    between atoms: C_16  and  O_17
REMARK    7  A    between atoms: C_25  and  O_26
REMARK                            x       y       z     vdW  Elec       q    Type
REMARK                         _______ _______ _______ _____ _____    ______ ____
ROOT
ATOM      1  C   UNL     1       3.072   5.724  18.485  0.00  0.00    +0.000 C 
ATOM      2  O   UNL     1       2.762   6.899  17.672  0.00  0.00    +0.000 OA
ATOM      3  C   UNL     1       2.168   7.788  18.522  0.00  0.00    +0.000 A 
ATOM      4  C   UNL     1       1.672   9.028  18.145  0.00  0.00    +0.000 A 
ATOM      5  C   UNL     1       1.081   9.848  19.122  0.00  0.00    +0.000 A 
ATOM      6  C   UNL     1       1.012   9.425  20.461  0.00  0.00    +0.000 A 
ATOM      7  C   UNL     1       1.508   8.149  20.805  0.00  0.00    +0.000 A 
ATOM      8  C   UNL     1       2.080   7.350  19.825  0.00  0.00    +0.000 A 
ATOM      9  C   UNL     1       2.627   5.979  19.947  0.00  0.00    +0.000 C 
ENDROOT
BRANCH   6  10
ATOM     10  C   UNL     1       0.473  10.279  21.528  0.00  0.00    +0.000 A 
ATOM     11  C   UNL     1      -0.247   9.705  22.502  0.00  0.00    +0.000 A 
ATOM     12  O   UNL     1      -1.010  10.374  23.427  0.00  0.00    +0.000 OA
ATOM     13  C   UNL     1      -1.451  11.603  23.006  0.00  0.00    +0.000 A 
ATOM     14  C   UNL     1      -2.740  11.971  23.366  0.00  0.00    +0.000 A 
ATOM     15  C   UNL     1      -3.264  13.142  22.839  0.00  0.00    +0.000 A 
ATOM     16  C   UNL     1      -2.476  14.006  22.077  0.00  0.00    +0.000 A 
ATOM     17  C   UNL     1      -1.166  13.645  21.739  0.00  0.00    +0.000 A 
ATOM     18  C   UNL     1      -0.686  12.400  22.151  0.00  0.00    +0.000 A 
ATOM     19  C   UNL     1       0.511  11.774  21.533  0.00  0.00    +0.000 A 
ATOM     20  O   UNL     1       1.392  12.436  21.002  0.00  0.00    +0.000 OA
BRANCH  15  21
ATOM     21  O   UNL     1      -4.584  13.439  23.000  0.00  0.00    +0.000 OA
ATOM     22  H   UNL     1      -5.003  12.706  23.485  0.00  0.00    +0.000 HD
ENDBRANCH  15  21
ENDBRANCH   6  10
BRANCH   1  24
ATOM     23  C   UNL     1       5.347   6.271  17.401  0.00  0.00    +0.000 C 
ATOM     24  C   UNL     1       4.571   5.335  18.332  0.00  0.00    +0.000 C 
ATOM     25  C   UNL     1       4.699   3.894  17.817  0.00  0.00    +0.000 C 
BRANCH  24  26
ATOM     26  O   UNL     1       5.197   5.383  19.623  0.00  0.00    +0.000 OA
ATOM     27  H   UNL     1       6.156   5.264  19.501  0.00  0.00    +0.000 HD
ENDBRANCH  24  26
ENDBRANCH   1  24
BRANCH   9  28
ATOM     28  O   UNL     1       1.580   5.096  20.346  0.00  0.00    +0.000 OA
ATOM     29  H   UNL     1       1.688   4.273  19.837  0.00  0.00    +0.000 HD
ENDBRANCH   9  28
TORSDOF 5
ENDMDL
MODEL 7
REMARK VINA RESULT:      -7.7      2.497      3.479
REMARK  Name = 
REMARK  7 active torsions:
REMARK  status: ('A' for Active; 'I' for Inactive)
REMARK    1  A    between atoms: C_1  and  C_2
REMARK    2  A    between atoms: C_2  and  C_3
REMARK    3  A    between atoms: C_2  and  O_4
REMARK    4  A    between atoms: C_2  and  C_5
REMARK    5  A    between atoms: C_10  and  C_11
REMARK    6  A    between atoms: C_16  and  O_17
REMARK    7  A    between atoms: C_25  and  O_26
REMARK                            x       y       z     vdW  Elec       q    Type
REMARK                         _______ _______ _______ _____ _____    ______ ____
ROOT
ATOM      1  C   UNL     1       3.130   4.488  18.846  0.00  0.00    +0.000 C 
ATOM      2  O   UNL     1       2.537   5.006  20.079  0.00  0.00    +0.000 OA
ATOM      3  C   UNL     1       2.215   6.307  19.815  0.00  0.00    +0.000 A 
ATOM      4  C   UNL     1       1.665   7.185  20.738  0.00  0.00    +0.000 A 
ATOM      5  C   UNL     1       1.382   8.502  20.336  0.00  0.00    +0.000 A 
ATOM      6  C   UNL     1       1.633   8.914  19.016  0.00  0.00    +0.000 A 
ATOM      7  C   UNL     1       2.213   8.000  18.109  0.00  0.00    +0.000 A 
ATOM      8  C   UNL     1       2.494   6.707  18.527  0.00  0.00    +0.000 A 
ATOM      9  C   UNL     1       3.126   5.602  17.768  0.00  0.00    +0.000 C 
ENDROOT
BRANCH   6  10
ATOM     10  C   UNL     1       1.284  10.255  18.531  0.00  0.00    +0.000 A 
ATOM     11  C   UNL     1       2.276  11.094  18.201  0.00  0.00    +0.000 A 
ATOM     12  O   UNL     1       2.135  12.439  17.962  0.00  0.00    +0.000 OA
ATOM     13  C   UNL     1       1.057  13.009  18.591  0.00  0.00    +0.000 A 
ATOM     14  C   UNL     1       1.231  14.283  19.114  0.00  0.00    +0.000 A 
ATOM     15  C   UNL     1       0.209  14.829  19.878  0.00  0.00    +0.000 A 
ATOM     16  C   UNL     1      -1.021  14.181  20.004  0.00  0.00    +0.000 A 
ATOM     17  C   UNL     1      -1.202  12.908  19.450  0.00  0.00    +0.000 A 
ATOM     18  C   UNL     1      -0.126  12.297  18.804  0.00  0.00    +0.000 A 
ATOM     19  C   UNL     1      -0.094  10.837  18.534  0.00  0.00    +0.000 A 
ATOM     20  O   UNL     1      -1.115  10.173  18.418  0.00  0.00    +0.000 OA
BRANCH  15  21
ATOM     21  O   UNL     1       0.411  15.981  20.575  0.00  0.00    +0.000 OA
ATOM     22  H   UNL     1      -0.286  16.053  21.251  0.00  0.00    +0.000 HD
ENDBRANCH  15  21
ENDBRANCH   6  10
BRANCH   1  24
ATOM     23  C   UNL     1       1.148   2.879  19.209  0.00  0.00    +0.000 C 
ATOM     24  C   UNL     1       2.421   3.174  18.409  0.00  0.00    +0.000 C 
ATOM     25  C   UNL     1       3.381   1.982  18.534  0.00  0.00    +0.000 C 
BRANCH  24  26
ATOM     26  O   UNL     1       2.054   3.283  17.026  0.00  0.00    +0.000 OA
ATOM     27  H   UNL     1       1.792   4.204  16.851  0.00  0.00    +0.000 HD
ENDBRANCH  24  26
ENDBRANCH   1  24
BRANCH   9  28
ATOM     28  O   UNL     1       4.448   5.990  17.400  0.00  0.00    +0.000 OA
ATOM     29  H   UNL     1       4.420   6.252  16.462  0.00  0.00    +0.000 HD
ENDBRANCH   9  28
TORSDOF 5
ENDMDL
MODEL 8
REMARK VINA RESULT:      -7.7      2.130      8.539
REMARK  Name = 
REMARK  7 active torsions:
REMARK  status: ('A' for Active; 'I' for Inactive)
REMARK    1  A    between atoms: C_1  and  C_2
REMARK    2  A    between atoms: C_2  and  C_3
REMARK    3  A    between atoms: C_2  and  O_4
REMARK    4  A    between atoms: C_2  and  C_5
REMARK    5  A    between atoms: C_10  and  C_11
REMARK    6  A    between atoms: C_16  and  O_17
REMARK    7  A    between atoms: C_25  and  O_26
REMARK                            x       y       z     vdW  Elec       q    Type
REMARK                         _______ _______ _______ _____ _____    ______ ____
ROOT
ATOM      1  C   UNL     1      -0.856  12.060  19.836  0.00  0.00    +0.000 C 
ATOM      2  O   UNL     1      -0.623  11.277  21.050  0.00  0.00    +0.000 OA
ATOM      3  C   UNL     1       0.123  10.203  20.657  0.00  0.00    +0.000 A 
ATOM      4  C   UNL     1       0.530   9.177  21.499  0.00  0.00    +0.000 A 
ATOM      5  C   UNL     1       1.295   8.125  20.966  0.00  0.00    +0.000 A 
ATOM      6  C   UNL     1       1.658   8.125  19.607  0.00  0.00    +0.000 A 
ATOM      7  C   UNL     1       1.209   9.174  18.776  0.00  0.00    +0.000 A 
ATOM      8  C   UNL     1       0.447  10.199  19.318  0.00  0.00    +0.000 A 
ATOM      9  C   UNL     1      -0.155  11.370  18.638  0.00  0.00    +0.000 C 
ENDROOT
BRANCH   6  10
ATOM     10  C   UNL     1       2.519   7.088  19.024  0.00  0.00    +0.000 A 
ATOM     11  C   UNL     1       2.677   5.937  19.693  0.00  0.00    +0.000 A 
ATOM     12  O   UNL     1       3.617   4.977  19.414  0.00  0.00    +0.000 OA
ATOM     13  C   UNL     1       4.735   5.454  18.778  0.00  0.00    +0.000 A 
ATOM     14  C   UNL     1       5.956   4.913  19.154  0.00  0.00    +0.000 A 
ATOM     15  C   UNL     1       7.115   5.473  18.635  0.00  0.00    +0.000 A 
ATOM     16  C   UNL     1       7.059   6.462  17.652  0.00  0.00    +0.000 A 
ATOM     17  C   UNL     1       5.823   6.986  17.254  0.00  0.00    +0.000 A 
ATOM     18  C   UNL     1       4.665   6.523  17.881  0.00  0.00    +0.000 A 
ATOM     19  C   UNL     1       3.382   7.268  17.816  0.00  0.00    +0.000 A 
ATOM     20  O   UNL     1       3.114   8.026  16.893  0.00  0.00    +0.000 OA
BRANCH  15  21
ATOM     21  O   UNL     1       8.334   5.112  19.125  0.00  0.00    +0.000 OA
ATOM     22  H   UNL     1       8.881   5.913  19.199  0.00  0.00    +0.000 HD
ENDBRANCH  15  21
ENDBRANCH   6  10
BRANCH   1  24
ATOM     23  C   UNL     1       0.784  13.953  19.223  0.00  0.00    +0.000 C 
ATOM     24  C   UNL     1      -0.436  13.542  20.053  0.00  0.00    +0.000 C 
ATOM     25  C   UNL     1      -0.144  13.802  21.538  0.00  0.00    +0.000 C 
BRANCH  24  26
ATOM     26  O   UNL     1      -1.529  14.393  19.678  0.00  0.00    +0.000 OA
ATOM     27  H   UNL     1      -2.008  14.649  20.486  0.00  0.00    +0.000 HD
ENDBRANCH  24  26
ENDBRANCH   1  24
BRANCH   9  28
ATOM     28  O   UNL     1      -1.092  10.909  17.667  0.00  0.00    +0.000 OA
ATOM     29  H   UNL     1      -0.592  10.405  17.000  0.00  0.00    +0.000 HD
ENDBRANCH   9  28
TORSDOF 5
ENDMDL
MODEL 9
REMARK VINA RESULT:      -7.7      1.854      8.567
REMARK  Name = 
REMARK  7 active torsions:
REMARK  status: ('A' for Active; 'I' for Inactive)
REMARK    1  A    between atoms: C_1  and  C_2
REMARK    2  A    between atoms: C_2  and  C_3
REMARK    3  A    between atoms: C_2  and  O_4
REMARK    4  A    between atoms: C_2  and  C_5
REMARK    5  A    between atoms: C_10  and  C_11
REMARK    6  A    between atoms: C_16  and  O_17
REMARK    7  A    between atoms: C_25  and  O_26
REMARK                            x       y       z     vdW  Elec       q    Type
REMARK                         _______ _______ _______ _____ _____    ______ ____
ROOT
ATOM      1  C   UNL     1      -2.407  13.216  21.606  0.00  0.00    +0.000 C 
ATOM      2  O   UNL     1      -2.690  12.822  20.227  0.00  0.00    +0.000 OA
ATOM      3  C   UNL     1      -1.740  11.894  19.907  0.00  0.00    +0.000 A 
ATOM      4  C   UNL     1      -1.617  11.290  18.663  0.00  0.00    +0.000 A 
ATOM      5  C   UNL     1      -0.591  10.350  18.465  0.00  0.00    +0.000 A 
ATOM      6  C   UNL     1       0.282  10.015  19.515  0.00  0.00    +0.000 A 
ATOM      7  C   UNL     1       0.141  10.665  20.760  0.00  0.00    +0.000 A 
ATOM      8  C   UNL     1      -0.873  11.597  20.935  0.00  0.00    +0.000 A 
ATOM      9  C   UNL     1      -1.185  12.418  22.128  0.00  0.00    +0.000 C 
ENDROOT
BRANCH   6  10
ATOM     10  C   UNL     1       1.320   8.985  19.376  0.00  0.00    +0.000 A 
ATOM     11  C   UNL     1       1.920   8.838  18.187  0.00  0.00    +0.000 A 
ATOM     12  O   UNL     1       2.725   7.787  17.825  0.00  0.00    +0.000 OA
ATOM     13  C   UNL     1       2.471   6.626  18.511  0.00  0.00    +0.000 A 
ATOM     14  C   UNL     1       2.540   5.439  17.794  0.00  0.00    +0.000 A 
ATOM     15  C   UNL     1       2.151   4.264  18.421  0.00  0.00    +0.000 A 
ATOM     16  C   UNL     1       1.831   4.245  19.780  0.00  0.00    +0.000 A 
ATOM     17  C   UNL     1       1.789   5.440  20.507  0.00  0.00    +0.000 A 
ATOM     18  C   UNL     1       2.042   6.641  19.840  0.00  0.00    +0.000 A 
ATOM     19  C   UNL     1       1.651   7.956  20.410  0.00  0.00    +0.000 A 
ATOM     20  O   UNL     1       1.529   8.134  21.614  0.00  0.00    +0.000 OA
BRANCH  15  21
ATOM     21  O   UNL     1       2.010   3.115  17.704  0.00  0.00    +0.000 OA
ATOM     22  H   UNL     1       2.527   2.417  18.143  0.00  0.00    +0.000 HD
ENDBRANCH  15  21
ENDBRANCH   6  10
BRANCH   1  24
ATOM     23  C   UNL     1      -4.324  14.424  22.837  0.00  0.00    +0.000 C 
ATOM     24  C   UNL     1      -3.682  13.078  22.487  0.00  0.00    +0.000 C 
ATOM     25  C   UNL     1      -3.356  12.324  23.784  0.00  0.00    +0.000 C 
BRANCH  24  26
ATOM     26  O   UNL     1      -4.656  12.300  21.775  0.00  0.00    +0.000 OA
ATOM     27  H   UNL     1      -4.306  11.397  21.669  0.00  0.00    +0.000 HD
ENDBRANCH  24  26
ENDBRANCH   1  24
BRANCH   9  28
ATOM     28  O   UNL     1      -0.074  13.268  22.409  0.00  0.00    +0.000 OA
ATOM     29  H   UNL     1      -0.431  14.153  22.602  0.00  0.00    +0.000 HD
ENDBRANCH   9  28
TORSDOF 5
ENDMDL
