MODEL 1
REMARK VINA RESULT:      -8.2      0.000      0.000
REMARK  Name = 
REMARK  11 active torsions:
REMARK  status: ('A' for Active; 'I' for Inactive)
REMARK    1  A    between atoms: C_1  and  O_2
REMARK    2  A    between atoms: O_2  and  C_3
REMARK    3  A    between atoms: C_3  and  C_4
REMARK    4  A    between atoms: C_3  and  C_5
REMARK    5  A    between atoms: C_3  and  C_6
REMARK    6  A    between atoms: C_6  and  O_7
REMARK    7  A    between atoms: O_7  and  C_8
REMARK    8  A    between atoms: C_13  and  N_14
REMARK    9  A    between atoms: N_17  and  C_18
REMARK   10  A    between atoms: C_18  and  C_19
REMARK   11  A    between atoms: C_18  and  C_20
REMARK                            x       y       z     vdW  Elec       q    Type
REMARK                         _______ _______ _______ _____ _____    ______ ____
ROOT
ATOM      1  C   UNL     1       3.675   4.034  17.904  0.00  0.00    +0.000 A 
ATOM      2  N   UNL     1       3.319   2.915  18.541  0.00  0.00    +0.000 NA
ATOM      3  N   UNL     1       2.584   3.367  19.573  0.00  0.00    +0.000 N 
ATOM      4  C   UNL     1       2.470   4.729  19.627  0.00  0.00    +0.000 A 
ATOM      5  C   UNL     1       1.815   5.579  20.523  0.00  0.00    +0.000 A 
ATOM      6  C   UNL     1       1.926   6.936  20.237  0.00  0.00    +0.000 A 
ATOM      7  N   UNL     1       2.620   7.413  19.173  0.00  0.00    +0.000 NA
ATOM      8  C   UNL     1       3.251   6.568  18.317  0.00  0.00    +0.000 A 
ATOM      9  C   UNL     1       3.185   5.197  18.531  0.00  0.00    +0.000 A 
ATOM     10  H   UNL     1       2.189   2.685  20.208  0.00  0.00    +0.000 HD
ENDROOT
BRANCH   6  11
ATOM     11  N   UNL     1       1.280   7.843  21.095  0.00  0.00    +0.000 N 
ATOM     12  C   UNL     1       0.825   9.105  20.808  0.00  0.00    +0.000 C 
ATOM     13  O   UNL     1       0.250   9.768  21.665  0.00  0.00    +0.000 OA
ATOM     14  N   UNL     1       1.060   9.540  19.549  0.00  0.00    +0.000 N 
ATOM     15  H   UNL     1       1.109   7.570  22.049  0.00  0.00    +0.000 HD
ATOM     16  H   UNL     1       1.589   8.897  18.969  0.00  0.00    +0.000 HD
BRANCH  14  17
ATOM     17  C   UNL     1       0.728  10.828  18.989  0.00  0.00    +0.000 C 
ATOM     18  C   UNL     1       1.000  11.966  19.975  0.00  0.00    +0.000 C 
BRANCH  17  19
ATOM     19  C   UNL     1      -0.736  10.811  18.577  0.00  0.00    +0.000 A 
ATOM     20  C   UNL     1      -1.633  11.731  19.135  0.00  0.00    +0.000 A 
ATOM     21  C   UNL     1      -2.983  11.705  18.783  0.00  0.00    +0.000 A 
ATOM     22  C   UNL     1      -3.450  10.770  17.861  0.00  0.00    +0.000 A 
ATOM     23  C   UNL     1      -2.564   9.874  17.268  0.00  0.00    +0.000 A 
ATOM     24  C   UNL     1      -1.215   9.898  17.619  0.00  0.00    +0.000 A 
ENDBRANCH  17  19
ENDBRANCH  14  17
ENDBRANCH   6  11
BRANCH   1  25
ATOM     25  O   UNL     1       4.444   3.987  16.791  0.00  0.00    +0.000 OA
BRANCH  25  26
ATOM     26  C   UNL     1       5.795   4.419  17.007  0.00  0.00    +0.000 C 
BRANCH  26  27
ATOM     27  C   UNL     1       6.325   5.249  15.807  0.00  0.00    +0.000 C 
ATOM     28  C   UNL     1       5.218   6.239  15.405  0.00  0.00    +0.000 C 
ATOM     29  C   UNL     1       6.662   4.314  14.637  0.00  0.00    +0.000 C 
BRANCH  27  31
ATOM     30  C   UNL     1       7.319   6.858  17.349  0.00  0.00    +0.000 C 
ATOM     31  O   UNL     1       7.495   5.949  16.273  0.00  0.00    +0.000 OA
ENDBRANCH  27  31
ENDBRANCH  26  27
ENDBRANCH  25  26
ENDBRANCH   1  25
TORSDOF 7
ENDMDL
MODEL 2
REMARK VINA RESULT:      -8.1      0.972      2.410
REMARK  Name = 
REMARK  11 active torsions:
REMARK  status: ('A' for Active; 'I' for Inactive)
REMARK    1  A    between atoms: C_1  and  O_2
REMARK    2  A    between atoms: O_2  and  C_3
REMARK    3  A    between atoms: C_3  and  C_4
REMARK    4  A    between atoms: C_3  and  C_5
REMARK    5  A    between atoms: C_3  and  C_6
REMARK    6  A    between atoms: C_6  and  O_7
REMARK    7  A    between atoms: O_7  and  C_8
REMARK    8  A    between atoms: C_13  and  N_14
REMARK    9  A    between atoms: N_17  and  C_18
REMARK   10  A    between atoms: C_18  and  C_19
REMARK   11  A    between atoms: C_18  and  C_20
REMARK                            x       y       z     vdW  Elec       q    Type
REMARK                         _______ _______ _______ _____ _____    ______ ____
ROOT
ATOM      1  C   UNL     1       3.176   4.166  17.669  0.00  0.00    +0.000 A 
ATOM      2  N   UNL     1       2.724   3.042  18.230  0.00  0.00    +0.000 NA
ATOM      3  N   UNL     1       2.106   3.478  19.343  0.00  0.00    +0.000 N 
ATOM      4  C   UNL     1       2.161   4.834  19.520  0.00  0.00    +0.000 A 
ATOM      5  C   UNL     1       1.664   5.667  20.526  0.00  0.00    +0.000 A 
ATOM      6  C   UNL     1       1.923   7.023  20.351  0.00  0.00    +0.000 A 
ATOM      7  N   UNL     1       2.610   7.513  19.288  0.00  0.00    +0.000 NA
ATOM      8  C   UNL     1       3.086   6.683  18.324  0.00  0.00    +0.000 A 
ATOM      9  C   UNL     1       2.867   5.315  18.424  0.00  0.00    +0.000 A 
ATOM     10  H   UNL     1       1.666   2.791  19.941  0.00  0.00    +0.000 HD
ENDROOT
BRANCH   6  11
ATOM     11  N   UNL     1       1.439   7.914  21.324  0.00  0.00    +0.000 N 
ATOM     12  C   UNL     1       0.676   9.039  21.138  0.00  0.00    +0.000 C 
ATOM     13  O   UNL     1       0.305   9.704  22.100  0.00  0.00    +0.000 OA
ATOM     14  N   UNL     1       0.383   9.343  19.853  0.00  0.00    +0.000 N 
ATOM     15  H   UNL     1       1.656   7.741  22.292  0.00  0.00    +0.000 HD
ATOM     16  H   UNL     1       0.801   8.725  19.164  0.00  0.00    +0.000 HD
BRANCH  14  17
ATOM     17  C   UNL     1      -0.364  10.478  19.367  0.00  0.00    +0.000 C 
ATOM     18  C   UNL     1      -1.068  10.174  18.043  0.00  0.00    +0.000 C 
BRANCH  17  19
ATOM     19  C   UNL     1       0.590  11.653  19.212  0.00  0.00    +0.000 A 
ATOM     20  C   UNL     1       1.703  11.545  18.369  0.00  0.00    +0.000 A 
ATOM     21  C   UNL     1       2.599  12.608  18.241  0.00  0.00    +0.000 A 
ATOM     22  C   UNL     1       2.385  13.793  18.942  0.00  0.00    +0.000 A 
ATOM     23  C   UNL     1       1.262  13.930  19.754  0.00  0.00    +0.000 A 
ATOM     24  C   UNL     1       0.367  12.869  19.884  0.00  0.00    +0.000 A 
ENDBRANCH  17  19
ENDBRANCH  14  17
ENDBRANCH   6  11
BRANCH   1  25
ATOM     25  O   UNL     1       3.872   4.134  16.508  0.00  0.00    +0.000 OA
BRANCH  25  26
ATOM     26  C   UNL     1       5.288   3.985  16.690  0.00  0.00    +0.000 C 
BRANCH  26  27
ATOM     27  C   UNL     1       6.085   4.849  15.675  0.00  0.00    +0.000 C 
ATOM     28  C   UNL     1       5.265   6.123  15.409  0.00  0.00    +0.000 C 
ATOM     29  C   UNL     1       6.294   4.062  14.375  0.00  0.00    +0.000 C 
BRANCH  27  31
ATOM     30  C   UNL     1       7.343   6.231  17.245  0.00  0.00    +0.000 C 
ATOM     31  O   UNL     1       7.341   5.170  16.303  0.00  0.00    +0.000 OA
ENDBRANCH  27  31
ENDBRANCH  26  27
ENDBRANCH  25  26
ENDBRANCH   1  25
TORSDOF 7
ENDMDL
MODEL 3
REMARK VINA RESULT:      -8.1      1.111      2.552
REMARK  Name = 
REMARK  11 active torsions:
REMARK  status: ('A' for Active; 'I' for Inactive)
REMARK    1  A    between atoms: C_1  and  O_2
REMARK    2  A    between atoms: O_2  and  C_3
REMARK    3  A    between atoms: C_3  and  C_4
REMARK    4  A    between atoms: C_3  and  C_5
REMARK    5  A    between atoms: C_3  and  C_6
REMARK    6  A    between atoms: C_6  and  O_7
REMARK    7  A    between atoms: O_7  and  C_8
REMARK    8  A    between atoms: C_13  and  N_14
REMARK    9  A    between atoms: N_17  and  C_18
REMARK   10  A    between atoms: C_18  and  C_19
REMARK   11  A    between atoms: C_18  and  C_20
REMARK                            x       y       z     vdW  Elec       q    Type
REMARK                         _______ _______ _______ _____ _____    ______ ____
ROOT
ATOM      1  C   UNL     1       3.501   4.613  18.030  0.00  0.00    +0.000 A 
ATOM      2  N   UNL     1       3.294   3.473  18.693  0.00  0.00    +0.000 NA
ATOM      3  N   UNL     1       2.581   3.864  19.765  0.00  0.00    +0.000 N 
ATOM      4  C   UNL     1       2.338   5.210  19.818  0.00  0.00    +0.000 A 
ATOM      5  C   UNL     1       1.658   6.003  20.746  0.00  0.00    +0.000 A 
ATOM      6  C   UNL     1       1.620   7.361  20.446  0.00  0.00    +0.000 A 
ATOM      7  N   UNL     1       2.200   7.890  19.340  0.00  0.00    +0.000 NA
ATOM      8  C   UNL     1       2.859   7.099  18.452  0.00  0.00    +0.000 A 
ATOM      9  C   UNL     1       2.939   5.731  18.678  0.00  0.00    +0.000 A 
ATOM     10  H   UNL     1       2.291   3.155  20.427  0.00  0.00    +0.000 HD
ENDROOT
BRANCH   6  11
ATOM     11  N   UNL     1       0.941   8.211  21.336  0.00  0.00    +0.000 N 
ATOM     12  C   UNL     1       0.140   9.284  21.038  0.00  0.00    +0.000 C 
ATOM     13  O   UNL     1      -0.410   9.916  21.935  0.00  0.00    +0.000 OA
ATOM     14  N   UNL     1       0.019   9.579  19.724  0.00  0.00    +0.000 N 
ATOM     15  H   UNL     1       1.026   8.045  22.326  0.00  0.00    +0.000 HD
ATOM     16  H   UNL     1       0.573   8.995  19.105  0.00  0.00    +0.000 HD
BRANCH  14  17
ATOM     17  C   UNL     1      -0.724  10.665  19.132  0.00  0.00    +0.000 C 
ATOM     18  C   UNL     1      -1.402  10.248  17.826  0.00  0.00    +0.000 C 
BRANCH  17  19
ATOM     19  C   UNL     1       0.229  11.828  18.896  0.00  0.00    +0.000 A 
ATOM     20  C   UNL     1       1.562  11.581  18.542  0.00  0.00    +0.000 A 
ATOM     21  C   UNL     1       2.450  12.641  18.350  0.00  0.00    +0.000 A 
ATOM     22  C   UNL     1       2.014  13.957  18.496  0.00  0.00    +0.000 A 
ATOM     23  C   UNL     1       0.683  14.219  18.811  0.00  0.00    +0.000 A 
ATOM     24  C   UNL     1      -0.205  13.162  19.003  0.00  0.00    +0.000 A 
ENDBRANCH  17  19
ENDBRANCH  14  17
ENDBRANCH   6  11
BRANCH   1  25
ATOM     25  O   UNL     1       4.204   4.628  16.873  0.00  0.00    +0.000 OA
BRANCH  25  26
ATOM     26  C   UNL     1       5.626   4.649  17.064  0.00  0.00    +0.000 C 
BRANCH  26  27
ATOM     27  C   UNL     1       6.267   5.908  16.420  0.00  0.00    +0.000 C 
ATOM     28  C   UNL     1       6.857   6.758  17.558  0.00  0.00    +0.000 C 
ATOM     29  C   UNL     1       5.199   6.700  15.654  0.00  0.00    +0.000 C 
BRANCH  27  31
ATOM     30  C   UNL     1       6.911   4.606  14.459  0.00  0.00    +0.000 C 
ATOM     31  O   UNL     1       7.305   5.438  15.539  0.00  0.00    +0.000 OA
ENDBRANCH  27  31
ENDBRANCH  26  27
ENDBRANCH  25  26
ENDBRANCH   1  25
TORSDOF 7
ENDMDL
MODEL 4
REMARK VINA RESULT:      -8.0      0.520      1.120
REMARK  Name = 
REMARK  11 active torsions:
REMARK  status: ('A' for Active; 'I' for Inactive)
REMARK    1  A    between atoms: C_1  and  O_2
REMARK    2  A    between atoms: O_2  and  C_3
REMARK    3  A    between atoms: C_3  and  C_4
REMARK    4  A    between atoms: C_3  and  C_5
REMARK    5  A    between atoms: C_3  and  C_6
REMARK    6  A    between atoms: C_6  and  O_7
REMARK    7  A    between atoms: O_7  and  C_8
REMARK    8  A    between atoms: C_13  and  N_14
REMARK    9  A    between atoms: N_17  and  C_18
REMARK   10  A    between atoms: C_18  and  C_19
REMARK   11  A    between atoms: C_18  and  C_20
REMARK                            x       y       z     vdW  Elec       q    Type
REMARK                         _______ _______ _______ _____ _____    ______ ____
ROOT
ATOM      1  C   UNL     1       3.616   4.371  17.998  0.00  0.00    +0.000 A 
ATOM      2  N   UNL     1       3.351   3.287  18.730  0.00  0.00    +0.000 NA
ATOM      3  N   UNL     1       2.625   3.773  19.752  0.00  0.00    +0.000 N 
ATOM      4  C   UNL     1       2.429   5.127  19.708  0.00  0.00    +0.000 A 
ATOM      5  C   UNL     1       1.754   6.004  20.561  0.00  0.00    +0.000 A 
ATOM      6  C   UNL     1       1.773   7.339  20.170  0.00  0.00    +0.000 A 
ATOM      7  N   UNL     1       2.400   7.772  19.047  0.00  0.00    +0.000 NA
ATOM      8  C   UNL     1       3.053   6.901  18.234  0.00  0.00    +0.000 A 
ATOM      9  C   UNL     1       3.078   5.549  18.554  0.00  0.00    +0.000 A 
ATOM     10  H   UNL     1       2.293   3.121  20.451  0.00  0.00    +0.000 HD
ENDROOT
BRANCH   6  11
ATOM     11  N   UNL     1       1.101   8.270  20.981  0.00  0.00    +0.000 N 
ATOM     12  C   UNL     1       0.561   9.478  20.616  0.00  0.00    +0.000 C 
ATOM     13  O   UNL     1      -0.024  10.171  21.443  0.00  0.00    +0.000 OA
ATOM     14  N   UNL     1       0.728   9.828  19.321  0.00  0.00    +0.000 N 
ATOM     15  H   UNL     1       0.979   8.063  21.959  0.00  0.00    +0.000 HD
ATOM     16  H   UNL     1       1.275   9.173  18.771  0.00  0.00    +0.000 HD
BRANCH  14  17
ATOM     17  C   UNL     1       0.300  11.047  18.678  0.00  0.00    +0.000 C 
ATOM     18  C   UNL     1       0.558  12.274  19.555  0.00  0.00    +0.000 C 
BRANCH  17  19
ATOM     19  C   UNL     1      -1.180  10.923  18.347  0.00  0.00    +0.000 A 
ATOM     20  C   UNL     1      -2.104  11.799  18.929  0.00  0.00    +0.000 A 
ATOM     21  C   UNL     1      -3.467  11.676  18.652  0.00  0.00    +0.000 A 
ATOM     22  C   UNL     1      -3.918  10.687  17.780  0.00  0.00    +0.000 A 
ATOM     23  C   UNL     1      -3.008   9.832  17.164  0.00  0.00    +0.000 A 
ATOM     24  C   UNL     1      -1.647   9.954  17.440  0.00  0.00    +0.000 A 
ENDBRANCH  17  19
ENDBRANCH  14  17
ENDBRANCH   6  11
BRANCH   1  25
ATOM     25  O   UNL     1       4.349   4.283  16.863  0.00  0.00    +0.000 OA
BRANCH  25  26
ATOM     26  C   UNL     1       5.764   4.371  17.084  0.00  0.00    +0.000 C 
BRANCH  26  27
ATOM     27  C   UNL     1       6.386   5.570  16.317  0.00  0.00    +0.000 C 
ATOM     28  C   UNL     1       6.975   6.532  17.362  0.00  0.00    +0.000 C 
ATOM     29  C   UNL     1       5.302   6.273  15.487  0.00  0.00    +0.000 C 
BRANCH  27  31
ATOM     30  C   UNL     1       7.072   4.715  14.136  0.00  0.00    +0.000 C 
ATOM     31  O   UNL     1       7.422   5.028  15.475  0.00  0.00    +0.000 OA
ENDBRANCH  27  31
ENDBRANCH  26  27
ENDBRANCH  25  26
ENDBRANCH   1  25
TORSDOF 7
ENDMDL
MODEL 5
REMARK VINA RESULT:      -8.0      1.030      2.550
REMARK  Name = 
REMARK  11 active torsions:
REMARK  status: ('A' for Active; 'I' for Inactive)
REMARK    1  A    between atoms: C_1  and  O_2
REMARK    2  A    between atoms: O_2  and  C_3
REMARK    3  A    between atoms: C_3  and  C_4
REMARK    4  A    between atoms: C_3  and  C_5
REMARK    5  A    between atoms: C_3  and  C_6
REMARK    6  A    between atoms: C_6  and  O_7
REMARK    7  A    between atoms: O_7  and  C_8
REMARK    8  A    between atoms: C_13  and  N_14
REMARK    9  A    between atoms: N_17  and  C_18
REMARK   10  A    between atoms: C_18  and  C_19
REMARK   11  A    between atoms: C_18  and  C_20
REMARK                            x       y       z     vdW  Elec       q    Type
REMARK                         _______ _______ _______ _____ _____    ______ ____
ROOT
ATOM      1  C   UNL     1       3.344   4.241  17.667  0.00  0.00    +0.000 A 
ATOM      2  N   UNL     1       2.994   3.077  18.222  0.00  0.00    +0.000 NA
ATOM      3  N   UNL     1       2.376   3.449  19.357  0.00  0.00    +0.000 N 
ATOM      4  C   UNL     1       2.332   4.803  19.555  0.00  0.00    +0.000 A 
ATOM      5  C   UNL     1       1.801   5.581  20.587  0.00  0.00    +0.000 A 
ATOM      6  C   UNL     1       1.951   6.955  20.427  0.00  0.00    +0.000 A 
ATOM      7  N   UNL     1       2.569   7.511  19.354  0.00  0.00    +0.000 NA
ATOM      8  C   UNL     1       3.081   6.734  18.364  0.00  0.00    +0.000 A 
ATOM      9  C   UNL     1       2.969   5.351  18.448  0.00  0.00    +0.000 A 
ATOM     10  H   UNL     1       2.007   2.723  19.956  0.00  0.00    +0.000 HD
ENDROOT
BRANCH   6  11
ATOM     11  N   UNL     1       1.428   7.794  21.426  0.00  0.00    +0.000 N 
ATOM     12  C   UNL     1       0.695   8.943  21.270  0.00  0.00    +0.000 C 
ATOM     13  O   UNL     1       0.282   9.554  22.251  0.00  0.00    +0.000 OA
ATOM     14  N   UNL     1       0.481   9.334  19.993  0.00  0.00    +0.000 N 
ATOM     15  H   UNL     1       1.587   7.555  22.392  0.00  0.00    +0.000 HD
ATOM     16  H   UNL     1       0.927   8.751  19.291  0.00  0.00    +0.000 HD
BRANCH  14  17
ATOM     17  C   UNL     1      -0.218  10.512  19.540  0.00  0.00    +0.000 C 
ATOM     18  C   UNL     1      -0.919  10.279  18.201  0.00  0.00    +0.000 C 
BRANCH  17  19
ATOM     19  C   UNL     1       0.782  11.654  19.433  0.00  0.00    +0.000 A 
ATOM     20  C   UNL     1       0.766  12.691  20.375  0.00  0.00    +0.000 A 
ATOM     21  C   UNL     1       1.661  13.756  20.269  0.00  0.00    +0.000 A 
ATOM     22  C   UNL     1       2.590  13.790  19.231  0.00  0.00    +0.000 A 
ATOM     23  C   UNL     1       2.644  12.748  18.309  0.00  0.00    +0.000 A 
ATOM     24  C   UNL     1       1.751  11.683  18.413  0.00  0.00    +0.000 A 
ENDBRANCH  17  19
ENDBRANCH  14  17
ENDBRANCH   6  11
BRANCH   1  25
ATOM     25  O   UNL     1       4.008   4.278  16.488  0.00  0.00    +0.000 OA
BRANCH  25  26
ATOM     26  C   UNL     1       5.422   4.073  16.617  0.00  0.00    +0.000 C 
BRANCH  26  27
ATOM     27  C   UNL     1       6.218   5.358  16.260  0.00  0.00    +0.000 C 
ATOM     28  C   UNL     1       6.739   5.960  17.575  0.00  0.00    +0.000 C 
ATOM     29  C   UNL     1       5.298   6.354  15.539  0.00  0.00    +0.000 C 
BRANCH  27  31
ATOM     30  C   UNL     1       7.006   4.651  14.061  0.00  0.00    +0.000 C 
ATOM     31  O   UNL     1       7.310   4.946  15.415  0.00  0.00    +0.000 OA
ENDBRANCH  27  31
ENDBRANCH  26  27
ENDBRANCH  25  26
ENDBRANCH   1  25
TORSDOF 7
ENDMDL
MODEL 6
REMARK VINA RESULT:      -7.8      1.360      2.862
REMARK  Name = 
REMARK  11 active torsions:
REMARK  status: ('A' for Active; 'I' for Inactive)
REMARK    1  A    between atoms: C_1  and  O_2
REMARK    2  A    between atoms: O_2  and  C_3
REMARK    3  A    between atoms: C_3  and  C_4
REMARK    4  A    between atoms: C_3  and  C_5
REMARK    5  A    between atoms: C_3  and  C_6
REMARK    6  A    between atoms: C_6  and  O_7
REMARK    7  A    between atoms: O_7  and  C_8
REMARK    8  A    between atoms: C_13  and  N_14
REMARK    9  A    between atoms: N_17  and  C_18
REMARK   10  A    between atoms: C_18  and  C_19
REMARK   11  A    between atoms: C_18  and  C_20
REMARK                            x       y       z     vdW  Elec       q    Type
REMARK                         _______ _______ _______ _____ _____    ______ ____
ROOT
ATOM      1  C   UNL     1       2.776   3.977  17.571  0.00  0.00    +0.000 A 
ATOM      2  N   UNL     1       1.924   2.995  17.875  0.00  0.00    +0.000 NA
ATOM      3  N   UNL     1       1.263   3.477  18.942  0.00  0.00    +0.000 N 
ATOM      4  C   UNL     1       1.669   4.722  19.340  0.00  0.00    +0.000 A 
ATOM      5  C   UNL     1       1.255   5.554  20.383  0.00  0.00    +0.000 A 
ATOM      6  C   UNL     1       1.919   6.773  20.465  0.00  0.00    +0.000 A 
ATOM      7  N   UNL     1       2.902   7.139  19.604  0.00  0.00    +0.000 NA
ATOM      8  C   UNL     1       3.291   6.312  18.598  0.00  0.00    +0.000 A 
ATOM      9  C   UNL     1       2.674   5.076  18.447  0.00  0.00    +0.000 A 
ATOM     10  H   UNL     1       0.542   2.899  19.354  0.00  0.00    +0.000 HD
ENDROOT
BRANCH   6  11
ATOM     11  N   UNL     1       1.539   7.660  21.488  0.00  0.00    +0.000 N 
ATOM     12  C   UNL     1       0.850   8.841  21.373  0.00  0.00    +0.000 C 
ATOM     13  O   UNL     1       0.567   9.494  22.372  0.00  0.00    +0.000 OA
ATOM     14  N   UNL     1       0.527   9.211  20.113  0.00  0.00    +0.000 N 
ATOM     15  H   UNL     1       1.783   7.437  22.439  0.00  0.00    +0.000 HD
ATOM     16  H   UNL     1       0.871   8.591  19.386  0.00  0.00    +0.000 HD
BRANCH  14  17
ATOM     17  C   UNL     1      -0.158  10.412  19.699  0.00  0.00    +0.000 C 
ATOM     18  C   UNL     1      -0.939  10.204  18.400  0.00  0.00    +0.000 C 
BRANCH  17  19
ATOM     19  C   UNL     1       0.870  11.522  19.538  0.00  0.00    +0.000 A 
ATOM     20  C   UNL     1       1.653  11.589  18.378  0.00  0.00    +0.000 A 
ATOM     21  C   UNL     1       2.617  12.588  18.233  0.00  0.00    +0.000 A 
ATOM     22  C   UNL     1       2.800  13.537  19.237  0.00  0.00    +0.000 A 
ATOM     23  C   UNL     1       2.004  13.506  20.378  0.00  0.00    +0.000 A 
ATOM     24  C   UNL     1       1.040  12.510  20.525  0.00  0.00    +0.000 A 
ENDBRANCH  17  19
ENDBRANCH  14  17
ENDBRANCH   6  11
BRANCH   1  25
ATOM     25  O   UNL     1       3.635   3.858  16.533  0.00  0.00    +0.000 OA
BRANCH  25  26
ATOM     26  C   UNL     1       4.996   3.638  16.934  0.00  0.00    +0.000 C 
BRANCH  26  27
ATOM     27  C   UNL     1       5.990   4.387  16.006  0.00  0.00    +0.000 C 
ATOM     28  C   UNL     1       7.278   4.631  16.809  0.00  0.00    +0.000 C 
ATOM     29  C   UNL     1       5.375   5.720  15.555  0.00  0.00    +0.000 C 
BRANCH  27  31
ATOM     30  C   UNL     1       6.172   4.096  13.589  0.00  0.00    +0.000 C 
ATOM     31  O   UNL     1       6.242   3.519  14.884  0.00  0.00    +0.000 OA
ENDBRANCH  27  31
ENDBRANCH  26  27
ENDBRANCH  25  26
ENDBRANCH   1  25
TORSDOF 7
ENDMDL
MODEL 7
REMARK VINA RESULT:      -7.7      0.704      1.152
REMARK  Name = 
REMARK  11 active torsions:
REMARK  status: ('A' for Active; 'I' for Inactive)
REMARK    1  A    between atoms: C_1  and  O_2
REMARK    2  A    between atoms: O_2  and  C_3
REMARK    3  A    between atoms: C_3  and  C_4
REMARK    4  A    between atoms: C_3  and  C_5
REMARK    5  A    between atoms: C_3  and  C_6
REMARK    6  A    between atoms: C_6  and  O_7
REMARK    7  A    between atoms: O_7  and  C_8
REMARK    8  A    between atoms: C_13  and  N_14
REMARK    9  A    between atoms: N_17  and  C_18
REMARK   10  A    between atoms: C_18  and  C_19
REMARK   11  A    between atoms: C_18  and  C_20
REMARK                            x       y       z     vdW  Elec       q    Type
REMARK                         _______ _______ _______ _____ _____    ______ ____
ROOT
ATOM      1  C   UNL     1       3.779   3.751  18.769  0.00  0.00    +0.000 A 
ATOM      2  N   UNL     1       3.184   2.684  19.307  0.00  0.00    +0.000 NA
ATOM      3  N   UNL     1       2.246   3.224  20.107  0.00  0.00    +0.000 N 
ATOM      4  C   UNL     1       2.230   4.593  20.109  0.00  0.00    +0.000 A 
ATOM      5  C   UNL     1       1.437   5.519  20.791  0.00  0.00    +0.000 A 
ATOM      6  C   UNL     1       1.726   6.853  20.525  0.00  0.00    +0.000 A 
ATOM      7  N   UNL     1       2.706   7.241  19.671  0.00  0.00    +0.000 NA
ATOM      8  C   UNL     1       3.467   6.322  19.020  0.00  0.00    +0.000 A 
ATOM      9  C   UNL     1       3.239   4.968  19.230  0.00  0.00    +0.000 A 
ATOM     10  H   UNL     1       1.647   2.596  20.627  0.00  0.00    +0.000 HD
ENDROOT
BRANCH   6  11
ATOM     11  N   UNL     1       0.955   7.834  21.173  0.00  0.00    +0.000 N 
ATOM     12  C   UNL     1       0.556   9.055  20.689  0.00  0.00    +0.000 C 
ATOM     13  O   UNL     1      -0.145   9.794  21.372  0.00  0.00    +0.000 OA
ATOM     14  N   UNL     1       0.991   9.364  19.446  0.00  0.00    +0.000 N 
ATOM     15  H   UNL     1       0.632   7.657  22.110  0.00  0.00    +0.000 HD
ATOM     16  H   UNL     1       1.603   8.671  19.026  0.00  0.00    +0.000 HD
BRANCH  14  17
ATOM     17  C   UNL     1       0.757  10.584  18.712  0.00  0.00    +0.000 C 
ATOM     18  C   UNL     1       1.213  11.816  19.496  0.00  0.00    +0.000 C 
BRANCH  17  19
ATOM     19  C   UNL     1      -0.726  10.672  18.384  0.00  0.00    +0.000 A 
ATOM     20  C   UNL     1      -1.301   9.763  17.488  0.00  0.00    +0.000 A 
ATOM     21  C   UNL     1      -2.655   9.854  17.161  0.00  0.00    +0.000 A 
ATOM     22  C   UNL     1      -3.451  10.844  17.735  0.00  0.00    +0.000 A 
ATOM     23  C   UNL     1      -2.902  11.731  18.657  0.00  0.00    +0.000 A 
ATOM     24  C   UNL     1      -1.550  11.642  18.985  0.00  0.00    +0.000 A 
ENDBRANCH  17  19
ENDBRANCH  14  17
ENDBRANCH   6  11
BRANCH   1  25
ATOM     25  O   UNL     1       4.803   3.609  17.894  0.00  0.00    +0.000 OA
BRANCH  25  26
ATOM     26  C   UNL     1       4.466   3.975  16.549  0.00  0.00    +0.000 C 
BRANCH  26  27
ATOM     27  C   UNL     1       5.607   4.786  15.877  0.00  0.00    +0.000 C 
ATOM     28  C   UNL     1       5.155   6.255  15.815  0.00  0.00    +0.000 C 
ATOM     29  C   UNL     1       5.868   4.243  14.465  0.00  0.00    +0.000 C 
BRANCH  27  31
ATOM     30  C   UNL     1       7.271   5.816  17.335  0.00  0.00    +0.000 C 
ATOM     31  O   UNL     1       6.767   4.641  16.718  0.00  0.00    +0.000 OA
ENDBRANCH  27  31
ENDBRANCH  26  27
ENDBRANCH  25  26
ENDBRANCH   1  25
TORSDOF 7
ENDMDL
MODEL 8
REMARK VINA RESULT:      -7.6      1.794      3.114
REMARK  Name = 
REMARK  11 active torsions:
REMARK  status: ('A' for Active; 'I' for Inactive)
REMARK    1  A    between atoms: C_1  and  O_2
REMARK    2  A    between atoms: O_2  and  C_3
REMARK    3  A    between atoms: C_3  and  C_4
REMARK    4  A    between atoms: C_3  and  C_5
REMARK    5  A    between atoms: C_3  and  C_6
REMARK    6  A    between atoms: C_6  and  O_7
REMARK    7  A    between atoms: O_7  and  C_8
REMARK    8  A    between atoms: C_13  and  N_14
REMARK    9  A    between atoms: N_17  and  C_18
REMARK   10  A    between atoms: C_18  and  C_19
REMARK   11  A    between atoms: C_18  and  C_20
REMARK                            x       y       z     vdW  Elec       q    Type
REMARK                         _______ _______ _______ _____ _____    ______ ____
ROOT
ATOM      1  C   UNL     1       2.590   6.668  18.889  0.00  0.00    +0.000 A 
ATOM      2  N   UNL     1       2.601   5.733  19.843  0.00  0.00    +0.000 NA
ATOM      3  N   UNL     1       2.011   6.348  20.885  0.00  0.00    +0.000 N 
ATOM      4  C   UNL     1       1.639   7.641  20.636  0.00  0.00    +0.000 A 
ATOM      5  C   UNL     1       1.020   8.607  21.434  0.00  0.00    +0.000 A 
ATOM      6  C   UNL     1       0.797   9.832  20.812  0.00  0.00    +0.000 A 
ATOM      7  N   UNL     1       1.154  10.084  19.528  0.00  0.00    +0.000 NA
ATOM      8  C   UNL     1       1.758   9.130  18.772  0.00  0.00    +0.000 A 
ATOM      9  C   UNL     1       2.013   7.879  19.319  0.00  0.00    +0.000 A 
ATOM     10  H   UNL     1       1.896   5.823  21.742  0.00  0.00    +0.000 HD
ENDROOT
BRANCH   6  11
ATOM     11  N   UNL     1       0.167  10.842  21.559  0.00  0.00    +0.000 N 
ATOM     12  C   UNL     1      -0.883  11.643  21.185  0.00  0.00    +0.000 C 
ATOM     13  O   UNL     1      -1.344  12.467  21.968  0.00  0.00    +0.000 OA
ATOM     14  N   UNL     1      -1.344  11.456  19.927  0.00  0.00    +0.000 N 
ATOM     15  H   UNL     1       0.496  11.033  22.491  0.00  0.00    +0.000 HD
ATOM     16  H   UNL     1      -0.829  10.770  19.384  0.00  0.00    +0.000 HD
BRANCH  14  17
ATOM     17  C   UNL     1      -2.404  12.177  19.265  0.00  0.00    +0.000 C 
ATOM     18  C   UNL     1      -3.634  12.334  20.162  0.00  0.00    +0.000 C 
BRANCH  17  19
ATOM     19  C   UNL     1      -2.762  11.438  17.984  0.00  0.00    +0.000 A 
ATOM     20  C   UNL     1      -1.887  10.479  17.459  0.00  0.00    +0.000 A 
ATOM     21  C   UNL     1      -2.195   9.815  16.271  0.00  0.00    +0.000 A 
ATOM     22  C   UNL     1      -3.385  10.092  15.602  0.00  0.00    +0.000 A 
ATOM     23  C   UNL     1      -4.284  11.015  16.130  0.00  0.00    +0.000 A 
ATOM     24  C   UNL     1      -3.978  11.679  17.317  0.00  0.00    +0.000 A 
ENDBRANCH  17  19
ENDBRANCH  14  17
ENDBRANCH   6  11
BRANCH   1  25
ATOM     25  O   UNL     1       3.114   6.419  17.666  0.00  0.00    +0.000 OA
BRANCH  25  26
ATOM     26  C   UNL     1       4.548   6.367  17.655  0.00  0.00    +0.000 C 
BRANCH  26  27
ATOM     27  C   UNL     1       5.067   5.187  16.789  0.00  0.00    +0.000 C 
ATOM     28  C   UNL     1       6.342   4.648  17.459  0.00  0.00    +0.000 C 
ATOM     29  C   UNL     1       5.373   5.682  15.368  0.00  0.00    +0.000 C 
BRANCH  27  31
ATOM     30  C   UNL     1       4.131   3.144  17.740  0.00  0.00    +0.000 C 
ATOM     31  O   UNL     1       4.028   4.189  16.786  0.00  0.00    +0.000 OA
ENDBRANCH  27  31
ENDBRANCH  26  27
ENDBRANCH  25  26
ENDBRANCH   1  25
TORSDOF 7
ENDMDL
MODEL 9
REMARK VINA RESULT:      -7.5      1.795      2.993
REMARK  Name = 
REMARK  11 active torsions:
REMARK  status: ('A' for Active; 'I' for Inactive)
REMARK    1  A    between atoms: C_1  and  O_2
REMARK    2  A    between atoms: O_2  and  C_3
REMARK    3  A    between atoms: C_3  and  C_4
REMARK    4  A    between atoms: C_3  and  C_5
REMARK    5  A    between atoms: C_3  and  C_6
REMARK    6  A    between atoms: C_6  and  O_7
REMARK    7  A    between atoms: O_7  and  C_8
REMARK    8  A    between atoms: C_13  and  N_14
REMARK    9  A    between atoms: N_17  and  C_18
REMARK   10  A    between atoms: C_18  and  C_19
REMARK   11  A    between atoms: C_18  and  C_20
REMARK                            x       y       z     vdW  Elec       q    Type
REMARK                         _______ _______ _______ _____ _____    ______ ____
ROOT
ATOM      1  C   UNL     1       2.460   6.734  19.073  0.00  0.00    +0.000 A 
ATOM      2  N   UNL     1       2.428   5.832  20.057  0.00  0.00    +0.000 NA
ATOM      3  N   UNL     1       1.842   6.499  21.069  0.00  0.00    +0.000 N 
ATOM      4  C   UNL     1       1.514   7.794  20.772  0.00  0.00    +0.000 A 
ATOM      5  C   UNL     1       0.913   8.804  21.527  0.00  0.00    +0.000 A 
ATOM      6  C   UNL     1       0.737  10.014  20.863  0.00  0.00    +0.000 A 
ATOM      7  N   UNL     1       1.121  10.212  19.576  0.00  0.00    +0.000 NA
ATOM      8  C   UNL     1       1.707   9.216  18.862  0.00  0.00    +0.000 A 
ATOM      9  C   UNL     1       1.914   7.976  19.454  0.00  0.00    +0.000 A 
ATOM     10  H   UNL     1       1.697   6.006  21.940  0.00  0.00    +0.000 HD
ENDROOT
BRANCH   6  11
ATOM     11  N   UNL     1       0.128  11.067  21.566  0.00  0.00    +0.000 N 
ATOM     12  C   UNL     1      -0.946  11.831  21.184  0.00  0.00    +0.000 C 
ATOM     13  O   UNL     1      -1.383  12.703  21.928  0.00  0.00    +0.000 OA
ATOM     14  N   UNL     1      -1.458  11.555  19.963  0.00  0.00    +0.000 N 
ATOM     15  H   UNL     1       0.494  11.324  22.468  0.00  0.00    +0.000 HD
ATOM     16  H   UNL     1      -0.958  10.839  19.445  0.00  0.00    +0.000 HD
BRANCH  14  17
ATOM     17  C   UNL     1      -2.553  12.220  19.299  0.00  0.00    +0.000 C 
ATOM     18  C   UNL     1      -3.799  12.287  20.184  0.00  0.00    +0.000 C 
BRANCH  17  19
ATOM     19  C   UNL     1      -2.851  11.481  18.003  0.00  0.00    +0.000 A 
ATOM     20  C   UNL     1      -4.050  11.720  17.320  0.00  0.00    +0.000 A 
ATOM     21  C   UNL     1      -4.344  11.026  16.145  0.00  0.00    +0.000 A 
ATOM     22  C   UNL     1      -3.439  10.099  15.633  0.00  0.00    +0.000 A 
ATOM     23  C   UNL     1      -2.226   9.878  16.279  0.00  0.00    +0.000 A 
ATOM     24  C   UNL     1      -1.930  10.570  17.453  0.00  0.00    +0.000 A 
ENDBRANCH  17  19
ENDBRANCH  14  17
ENDBRANCH   6  11
BRANCH   1  25
ATOM     25  O   UNL     1       2.995   6.430  17.867  0.00  0.00    +0.000 OA
BRANCH  25  26
ATOM     26  C   UNL     1       3.623   5.140  17.825  0.00  0.00    +0.000 C 
BRANCH  26  27
ATOM     27  C   UNL     1       4.983   5.194  17.079  0.00  0.00    +0.000 C 
ATOM     28  C   UNL     1       5.250   6.663  16.709  0.00  0.00    +0.000 C 
ATOM     29  C   UNL     1       4.917   4.324  15.816  0.00  0.00    +0.000 C 
BRANCH  27  31
ATOM     30  C   UNL     1       6.013   5.300  19.289  0.00  0.00    +0.000 C 
ATOM     31  O   UNL     1       5.979   4.708  18.000  0.00  0.00    +0.000 OA
ENDBRANCH  27  31
ENDBRANCH  26  27
ENDBRANCH  25  26
ENDBRANCH   1  25
TORSDOF 7
ENDMDL
