MODEL 1
REMARK VINA RESULT:      -8.4      0.000      0.000
REMARK  Name = 
REMARK  4 active torsions:
REMARK  status: ('A' for Active; 'I' for Inactive)
REMARK    1  A    between atoms: C_4  and  C_5
REMARK    2  A    between atoms: C_9  and  O_10
REMARK    3  A    between atoms: O_10  and  C_11
REMARK    4  A    between atoms: C_11  and  C_12
REMARK                            x       y       z     vdW  Elec       q    Type
REMARK                         _______ _______ _______ _____ _____    ______ ____
ROOT
ATOM      1  O   UNL     1       6.453   4.743  19.453  0.00  0.00    +0.000 OA
ATOM      2  C   UNL     1       5.703   4.422  18.540  0.00  0.00    +0.000 A 
ATOM      3  N   UNL     1       6.120   4.400  17.234  0.00  0.00    +0.000 N 
ATOM      4  C   UNL     1       5.293   4.101  16.180  0.00  0.00    +0.000 A 
ATOM      5  N   UNL     1       4.045   3.788  16.335  0.00  0.00    +0.000 NA
ATOM      6  C   UNL     1       3.531   3.729  17.642  0.00  0.00    +0.000 A 
ATOM      7  C   UNL     1       2.204   3.341  17.833  0.00  0.00    +0.000 A 
ATOM      8  C   UNL     1       1.683   3.262  19.124  0.00  0.00    +0.000 A 
ATOM      9  F   UNL     1       0.412   2.876  19.294  0.00  0.00    +0.000 F 
ATOM     10  C   UNL     1       2.469   3.576  20.228  0.00  0.00    +0.000 A 
ATOM     11  F   UNL     1       1.959   3.495  21.464  0.00  0.00    +0.000 F 
ATOM     12  C   UNL     1       3.789   3.968  20.063  0.00  0.00    +0.000 A 
ATOM     13  C   UNL     1       4.306   4.032  18.767  0.00  0.00    +0.000 A 
ATOM     14  H   UNL     1       7.072   4.709  17.094  0.00  0.00    +0.000 HD
ENDROOT
BRANCH   4  15
ATOM     15  C   UNL     1       5.908   4.169  14.832  0.00  0.00    +0.000 A 
ATOM     16  C   UNL     1       7.088   4.883  14.618  0.00  0.00    +0.000 A 
ATOM     17  C   UNL     1       7.599   4.921  13.335  0.00  0.00    +0.000 A 
ATOM     18  N   UNL     1       7.027   4.294  12.288  0.00  0.00    +0.000 NA
ATOM     19  C   UNL     1       5.897   3.597  12.532  0.00  0.00    +0.000 A 
ATOM     20  C   UNL     1       5.300   3.501  13.772  0.00  0.00    +0.000 A 
BRANCH  19  21
ATOM     21  O   UNL     1       5.290   2.932  11.491  0.00  0.00    +0.000 OA
BRANCH  21  22
ATOM     22  C   UNL     1       3.890   3.226  11.368  0.00  0.00    +0.000 C 
BRANCH  22  23
ATOM     23  C   UNL     1       3.507   3.675   9.963  0.00  0.00    +0.000 C 
ATOM     24  F   UNL     1       2.593   2.810   9.445  0.00  0.00    +0.000 F 
ATOM     25  F   UNL     1       2.893   4.885  10.020  0.00  0.00    +0.000 F 
ENDBRANCH  22  23
ENDBRANCH  21  22
ENDBRANCH  19  21
ENDBRANCH   4  15
TORSDOF 4
ENDMDL
MODEL 2
REMARK VINA RESULT:      -8.2      5.592      7.745
REMARK  Name = 
REMARK  4 active torsions:
REMARK  status: ('A' for Active; 'I' for Inactive)
REMARK    1  A    between atoms: C_4  and  C_5
REMARK    2  A    between atoms: C_9  and  O_10
REMARK    3  A    between atoms: O_10  and  C_11
REMARK    4  A    between atoms: C_11  and  C_12
REMARK                            x       y       z     vdW  Elec       q    Type
REMARK                         _______ _______ _______ _____ _____    ______ ____
ROOT
ATOM      1  O   UNL     1       1.892   9.561  17.486  0.00  0.00    +0.000 OA
ATOM      2  C   UNL     1       1.811   8.918  18.524  0.00  0.00    +0.000 A 
ATOM      3  N   UNL     1       2.351   7.663  18.642  0.00  0.00    +0.000 N 
ATOM      4  C   UNL     1       2.230   6.889  19.770  0.00  0.00    +0.000 A 
ATOM      5  N   UNL     1       1.613   7.295  20.835  0.00  0.00    +0.000 NA
ATOM      6  C   UNL     1       1.069   8.591  20.836  0.00  0.00    +0.000 A 
ATOM      7  C   UNL     1       0.448   9.066  21.993  0.00  0.00    +0.000 A 
ATOM      8  C   UNL     1      -0.082  10.355  22.016  0.00  0.00    +0.000 A 
ATOM      9  F   UNL     1      -0.664  10.803  23.136  0.00  0.00    +0.000 F 
ATOM     10  C   UNL     1      -0.009  11.175  20.894  0.00  0.00    +0.000 A 
ATOM     11  F   UNL     1      -0.521  12.412  20.928  0.00  0.00    +0.000 F 
ATOM     12  C   UNL     1       0.599  10.724  19.732  0.00  0.00    +0.000 A 
ATOM     13  C   UNL     1       1.139   9.435  19.722  0.00  0.00    +0.000 A 
ATOM     14  H   UNL     1       2.774   7.308  17.795  0.00  0.00    +0.000 HD
ENDROOT
BRANCH   4  15
ATOM     15  C   UNL     1       2.842   5.540  19.701  0.00  0.00    +0.000 A 
ATOM     16  C   UNL     1       2.082   4.396  19.951  0.00  0.00    +0.000 A 
ATOM     17  C   UNL     1       2.716   3.170  19.889  0.00  0.00    +0.000 A 
ATOM     18  N   UNL     1       4.022   3.023  19.586  0.00  0.00    +0.000 NA
ATOM     19  C   UNL     1       4.724   4.148  19.332  0.00  0.00    +0.000 A 
ATOM     20  C   UNL     1       4.190   5.420  19.375  0.00  0.00    +0.000 A 
BRANCH  19  21
ATOM     21  O   UNL     1       6.057   4.039  19.007  0.00  0.00    +0.000 OA
BRANCH  21  22
ATOM     22  C   UNL     1       6.548   5.149  18.240  0.00  0.00    +0.000 C 
BRANCH  22  23
ATOM     23  C   UNL     1       7.816   5.753  18.830  0.00  0.00    +0.000 C 
ATOM     24  F   UNL     1       7.860   7.083  18.546  0.00  0.00    +0.000 F 
ATOM     25  F   UNL     1       7.783   5.656  20.184  0.00  0.00    +0.000 F 
ENDBRANCH  22  23
ENDBRANCH  21  22
ENDBRANCH  19  21
ENDBRANCH   4  15
TORSDOF 4
ENDMDL
MODEL 3
REMARK VINA RESULT:      -7.9      2.282      2.638
REMARK  Name = 
REMARK  4 active torsions:
REMARK  status: ('A' for Active; 'I' for Inactive)
REMARK    1  A    between atoms: C_4  and  C_5
REMARK    2  A    between atoms: C_9  and  O_10
REMARK    3  A    between atoms: O_10  and  C_11
REMARK    4  A    between atoms: C_11  and  C_12
REMARK                            x       y       z     vdW  Elec       q    Type
REMARK                         _______ _______ _______ _____ _____    ______ ____
ROOT
ATOM      1  O   UNL     1       3.826   0.910  18.134  0.00  0.00    +0.000 OA
ATOM      2  C   UNL     1       3.893   2.126  18.008  0.00  0.00    +0.000 A 
ATOM      3  N   UNL     1       4.719   2.714  17.083  0.00  0.00    +0.000 N 
ATOM      4  C   UNL     1       4.863   4.072  16.952  0.00  0.00    +0.000 A 
ATOM      5  N   UNL     1       4.207   4.920  17.680  0.00  0.00    +0.000 NA
ATOM      6  C   UNL     1       3.292   4.420  18.623  0.00  0.00    +0.000 A 
ATOM      7  C   UNL     1       2.536   5.318  19.378  0.00  0.00    +0.000 A 
ATOM      8  C   UNL     1       1.613   4.839  20.307  0.00  0.00    +0.000 A 
ATOM      9  F   UNL     1       0.885   5.711  21.016  0.00  0.00    +0.000 F 
ATOM     10  C   UNL     1       1.441   3.471  20.498  0.00  0.00    +0.000 A 
ATOM     11  F   UNL     1       0.551   3.022  21.391  0.00  0.00    +0.000 F 
ATOM     12  C   UNL     1       2.184   2.560  19.762  0.00  0.00    +0.000 A 
ATOM     13  C   UNL     1       3.097   3.049  18.825  0.00  0.00    +0.000 A 
ATOM     14  H   UNL     1       5.287   2.064  16.557  0.00  0.00    +0.000 HD
ENDROOT
BRANCH   4  15
ATOM     15  C   UNL     1       5.834   4.527  15.927  0.00  0.00    +0.000 A 
ATOM     16  C   UNL     1       6.820   5.463  16.240  0.00  0.00    +0.000 A 
ATOM     17  C   UNL     1       7.682   5.858  15.234  0.00  0.00    +0.000 A 
ATOM     18  N   UNL     1       7.627   5.376  13.977  0.00  0.00    +0.000 NA
ATOM     19  C   UNL     1       6.673   4.458  13.712  0.00  0.00    +0.000 A 
ATOM     20  C   UNL     1       5.759   4.002  14.639  0.00  0.00    +0.000 A 
BRANCH  19  21
ATOM     21  O   UNL     1       6.593   3.933  12.442  0.00  0.00    +0.000 OA
BRANCH  21  22
ATOM     22  C   UNL     1       5.732   2.787  12.355  0.00  0.00    +0.000 C 
BRANCH  22  23
ATOM     23  C   UNL     1       6.105   1.861  11.204  0.00  0.00    +0.000 C 
ATOM     24  F   UNL     1       7.460   1.804  11.089  0.00  0.00    +0.000 F 
ATOM     25  F   UNL     1       5.695   0.596  11.481  0.00  0.00    +0.000 F 
ENDBRANCH  22  23
ENDBRANCH  21  22
ENDBRANCH  19  21
ENDBRANCH   4  15
TORSDOF 4
ENDMDL
MODEL 4
REMARK VINA RESULT:      -7.9      1.919      2.372
REMARK  Name = 
REMARK  4 active torsions:
REMARK  status: ('A' for Active; 'I' for Inactive)
REMARK    1  A    between atoms: C_4  and  C_5
REMARK    2  A    between atoms: C_9  and  O_10
REMARK    3  A    between atoms: O_10  and  C_11
REMARK    4  A    between atoms: C_11  and  C_12
REMARK                            x       y       z     vdW  Elec       q    Type
REMARK                         _______ _______ _______ _____ _____    ______ ____
ROOT
ATOM      1  O   UNL     1       5.301   1.736  20.524  0.00  0.00    +0.000 OA
ATOM      2  C   UNL     1       4.772   2.541  19.768  0.00  0.00    +0.000 A 
ATOM      3  N   UNL     1       5.394   2.977  18.626  0.00  0.00    +0.000 N 
ATOM      4  C   UNL     1       4.858   3.921  17.786  0.00  0.00    +0.000 A 
ATOM      5  N   UNL     1       3.699   4.465  17.990  0.00  0.00    +0.000 NA
ATOM      6  C   UNL     1       2.955   4.046  19.107  0.00  0.00    +0.000 A 
ATOM      7  C   UNL     1       1.682   4.579  19.314  0.00  0.00    +0.000 A 
ATOM      8  C   UNL     1       0.925   4.163  20.409  0.00  0.00    +0.000 A 
ATOM      9  F   UNL     1      -0.300   4.673  20.589  0.00  0.00    +0.000 F 
ATOM     10  C   UNL     1       1.427   3.225  21.306  0.00  0.00    +0.000 A 
ATOM     11  F   UNL     1       0.691   2.832  22.353  0.00  0.00    +0.000 F 
ATOM     12  C   UNL     1       2.691   2.685  21.124  0.00  0.00    +0.000 A 
ATOM     13  C   UNL     1       3.438   3.098  20.018  0.00  0.00    +0.000 A 
ATOM     14  H   UNL     1       6.327   2.613  18.493  0.00  0.00    +0.000 HD
ENDROOT
BRANCH   4  15
ATOM     15  C   UNL     1       5.691   4.302  16.620  0.00  0.00    +0.000 A 
ATOM     16  C   UNL     1       6.934   4.913  16.798  0.00  0.00    +0.000 A 
ATOM     17  C   UNL     1       7.653   5.259  15.669  0.00  0.00    +0.000 A 
ATOM     18  N   UNL     1       7.224   5.025  14.413  0.00  0.00    +0.000 NA
ATOM     19  C   UNL     1       6.026   4.417  14.277  0.00  0.00    +0.000 A 
ATOM     20  C   UNL     1       5.226   4.037  15.335  0.00  0.00    +0.000 A 
BRANCH  19  21
ATOM     21  O   UNL     1       5.559   4.149  13.010  0.00  0.00    +0.000 OA
BRANCH  21  22
ATOM     22  C   UNL     1       6.438   3.308  12.247  0.00  0.00    +0.000 C 
BRANCH  22  23
ATOM     23  C   UNL     1       5.739   2.064  11.711  0.00  0.00    +0.000 C 
ATOM     24  F   UNL     1       4.625   2.432  11.021  0.00  0.00    +0.000 F 
ATOM     25  F   UNL     1       6.546   1.434  10.819  0.00  0.00    +0.000 F 
ENDBRANCH  22  23
ENDBRANCH  21  22
ENDBRANCH  19  21
ENDBRANCH   4  15
TORSDOF 4
ENDMDL
MODEL 5
REMARK VINA RESULT:      -7.8      2.477      2.790
REMARK  Name = 
REMARK  4 active torsions:
REMARK  status: ('A' for Active; 'I' for Inactive)
REMARK    1  A    between atoms: C_4  and  C_5
REMARK    2  A    between atoms: C_9  and  O_10
REMARK    3  A    between atoms: O_10  and  C_11
REMARK    4  A    between atoms: C_11  and  C_12
REMARK                            x       y       z     vdW  Elec       q    Type
REMARK                         _______ _______ _______ _____ _____    ______ ____
ROOT
ATOM      1  O   UNL     1       3.918   2.104  18.437  0.00  0.00    +0.000 OA
ATOM      2  C   UNL     1       4.068   3.196  17.904  0.00  0.00    +0.000 A 
ATOM      3  N   UNL     1       4.776   3.342  16.738  0.00  0.00    +0.000 N 
ATOM      4  C   UNL     1       5.014   4.555  16.143  0.00  0.00    +0.000 A 
ATOM      5  N   UNL     1       4.563   5.672  16.623  0.00  0.00    +0.000 NA
ATOM      6  C   UNL     1       3.777   5.626  17.788  0.00  0.00    +0.000 A 
ATOM      7  C   UNL     1       3.237   6.812  18.290  0.00  0.00    +0.000 A 
ATOM      8  C   UNL     1       2.444   6.783  19.435  0.00  0.00    +0.000 A 
ATOM      9  F   UNL     1       1.921   7.925  19.899  0.00  0.00    +0.000 F 
ATOM     10  C   UNL     1       2.188   5.583  20.093  0.00  0.00    +0.000 A 
ATOM     11  F   UNL     1       1.423   5.566  21.192  0.00  0.00    +0.000 F 
ATOM     12  C   UNL     1       2.717   4.393  19.616  0.00  0.00    +0.000 A 
ATOM     13  C   UNL     1       3.501   4.430  18.461  0.00  0.00    +0.000 A 
ATOM     14  H   UNL     1       5.191   2.487  16.392  0.00  0.00    +0.000 HD
ENDROOT
BRANCH   4  15
ATOM     15  C   UNL     1       5.836   4.524  14.909  0.00  0.00    +0.000 A 
ATOM     16  C   UNL     1       7.116   5.081  14.888  0.00  0.00    +0.000 A 
ATOM     17  C   UNL     1       7.823   5.035  13.701  0.00  0.00    +0.000 A 
ATOM     18  N   UNL     1       7.347   4.470  12.574  0.00  0.00    +0.000 NA
ATOM     19  C   UNL     1       6.113   3.925  12.633  0.00  0.00    +0.000 A 
ATOM     20  C   UNL     1       5.322   3.923  13.763  0.00  0.00    +0.000 A 
BRANCH  19  21
ATOM     21  O   UNL     1       5.598   3.326  11.506  0.00  0.00    +0.000 OA
BRANCH  21  22
ATOM     22  C   UNL     1       5.436   1.906  11.640  0.00  0.00    +0.000 C 
BRANCH  22  23
ATOM     23  C   UNL     1       6.444   1.121  10.809  0.00  0.00    +0.000 C 
ATOM     24  F   UNL     1       7.702   1.551  11.098  0.00  0.00    +0.000 F 
ATOM     25  F   UNL     1       6.402  -0.191  11.157  0.00  0.00    +0.000 F 
ENDBRANCH  22  23
ENDBRANCH  21  22
ENDBRANCH  19  21
ENDBRANCH   4  15
TORSDOF 4
ENDMDL
MODEL 6
REMARK VINA RESULT:      -7.8      5.298      7.145
REMARK  Name = 
REMARK  4 active torsions:
REMARK  status: ('A' for Active; 'I' for Inactive)
REMARK    1  A    between atoms: C_4  and  C_5
REMARK    2  A    between atoms: C_9  and  O_10
REMARK    3  A    between atoms: O_10  and  C_11
REMARK    4  A    between atoms: C_11  and  C_12
REMARK                            x       y       z     vdW  Elec       q    Type
REMARK                         _______ _______ _______ _____ _____    ______ ____
ROOT
ATOM      1  O   UNL     1       0.994  10.252  17.562  0.00  0.00    +0.000 OA
ATOM      2  C   UNL     1       1.329   9.371  18.344  0.00  0.00    +0.000 A 
ATOM      3  N   UNL     1       2.046   8.275  17.935  0.00  0.00    +0.000 N 
ATOM      4  C   UNL     1       2.389   7.240  18.769  0.00  0.00    +0.000 A 
ATOM      5  N   UNL     1       2.082   7.224  20.028  0.00  0.00    +0.000 NA
ATOM      6  C   UNL     1       1.393   8.328  20.560  0.00  0.00    +0.000 A 
ATOM      7  C   UNL     1       1.101   8.354  21.925  0.00  0.00    +0.000 A 
ATOM      8  C   UNL     1       0.431   9.447  22.471  0.00  0.00    +0.000 A 
ATOM      9  F   UNL     1       0.169   9.465  23.784  0.00  0.00    +0.000 F 
ATOM     10  C   UNL     1       0.040  10.515  21.668  0.00  0.00    +0.000 A 
ATOM     11  F   UNL     1      -0.602  11.561  22.203  0.00  0.00    +0.000 F 
ATOM     12  C   UNL     1       0.314  10.510  20.309  0.00  0.00    +0.000 A 
ATOM     13  C   UNL     1       0.997   9.415  19.772  0.00  0.00    +0.000 A 
ATOM     14  H   UNL     1       2.231   8.243  16.942  0.00  0.00    +0.000 HD
ENDROOT
BRANCH   4  15
ATOM     15  C   UNL     1       3.129   6.119  18.142  0.00  0.00    +0.000 A 
ATOM     16  C   UNL     1       2.503   4.894  17.901  0.00  0.00    +0.000 A 
ATOM     17  C   UNL     1       3.255   3.884  17.331  0.00  0.00    +0.000 A 
ATOM     18  N   UNL     1       4.549   4.025  16.985  0.00  0.00    +0.000 NA
ATOM     19  C   UNL     1       5.120   5.227  17.215  0.00  0.00    +0.000 A 
ATOM     20  C   UNL     1       4.463   6.298  17.785  0.00  0.00    +0.000 A 
BRANCH  19  21
ATOM     21  O   UNL     1       6.437   5.415  16.863  0.00  0.00    +0.000 OA
BRANCH  21  22
ATOM     22  C   UNL     1       7.363   4.858  17.810  0.00  0.00    +0.000 C 
BRANCH  22  23
ATOM     23  C   UNL     1       7.691   5.822  18.944  0.00  0.00    +0.000 C 
ATOM     24  F   UNL     1       8.698   5.305  19.699  0.00  0.00    +0.000 F 
ATOM     25  F   UNL     1       8.161   6.988  18.432  0.00  0.00    +0.000 F 
ENDBRANCH  22  23
ENDBRANCH  21  22
ENDBRANCH  19  21
ENDBRANCH   4  15
TORSDOF 4
ENDMDL
MODEL 7
REMARK VINA RESULT:      -7.8      5.407      7.237
REMARK  Name = 
REMARK  4 active torsions:
REMARK  status: ('A' for Active; 'I' for Inactive)
REMARK    1  A    between atoms: C_4  and  C_5
REMARK    2  A    between atoms: C_9  and  O_10
REMARK    3  A    between atoms: O_10  and  C_11
REMARK    4  A    between atoms: C_11  and  C_12
REMARK                            x       y       z     vdW  Elec       q    Type
REMARK                         _______ _______ _______ _____ _____    ______ ____
ROOT
ATOM      1  O   UNL     1       1.862   9.760  17.453  0.00  0.00    +0.000 OA
ATOM      2  C   UNL     1       1.808   9.049  18.449  0.00  0.00    +0.000 A 
ATOM      3  N   UNL     1       2.354   7.792  18.471  0.00  0.00    +0.000 N 
ATOM      4  C   UNL     1       2.263   6.945  19.548  0.00  0.00    +0.000 A 
ATOM      5  N   UNL     1       1.670   7.277  20.652  0.00  0.00    +0.000 NA
ATOM      6  C   UNL     1       1.123   8.567  20.752  0.00  0.00    +0.000 A 
ATOM      7  C   UNL     1       0.528   8.962  21.951  0.00  0.00    +0.000 A 
ATOM      8  C   UNL     1      -0.006  10.244  22.072  0.00  0.00    +0.000 A 
ATOM      9  F   UNL     1      -0.562  10.615  23.232  0.00  0.00    +0.000 F 
ATOM     10  C   UNL     1       0.038  11.137  21.005  0.00  0.00    +0.000 A 
ATOM     11  F   UNL     1      -0.477  12.366  21.132  0.00  0.00    +0.000 F 
ATOM     12  C   UNL     1       0.619  10.766  19.802  0.00  0.00    +0.000 A 
ATOM     13  C   UNL     1       1.163   9.484  19.694  0.00  0.00    +0.000 A 
ATOM     14  H   UNL     1       2.758   7.496  17.593  0.00  0.00    +0.000 HD
ENDROOT
BRANCH   4  15
ATOM     15  C   UNL     1       2.878   5.607  19.376  0.00  0.00    +0.000 A 
ATOM     16  C   UNL     1       2.661   4.594  20.313  0.00  0.00    +0.000 A 
ATOM     17  C   UNL     1       3.277   3.375  20.103  0.00  0.00    +0.000 A 
ATOM     18  N   UNL     1       4.060   3.111  19.038  0.00  0.00    +0.000 NA
ATOM     19  C   UNL     1       4.235   4.106  18.142  0.00  0.00    +0.000 A 
ATOM     20  C   UNL     1       3.673   5.360  18.260  0.00  0.00    +0.000 A 
BRANCH  19  21
ATOM     21  O   UNL     1       5.018   3.871  17.035  0.00  0.00    +0.000 OA
BRANCH  21  22
ATOM     22  C   UNL     1       6.074   4.830  16.872  0.00  0.00    +0.000 C 
BRANCH  22  23
ATOM     23  C   UNL     1       7.121   4.741  17.975  0.00  0.00    +0.000 C 
ATOM     24  F   UNL     1       8.262   4.194  17.474  0.00  0.00    +0.000 F 
ATOM     25  F   UNL     1       7.452   5.989  18.395  0.00  0.00    +0.000 F 
ENDBRANCH  22  23
ENDBRANCH  21  22
ENDBRANCH  19  21
ENDBRANCH   4  15
TORSDOF 4
ENDMDL
MODEL 8
REMARK VINA RESULT:      -7.7      5.120      7.169
REMARK  Name = 
REMARK  4 active torsions:
REMARK  status: ('A' for Active; 'I' for Inactive)
REMARK    1  A    between atoms: C_4  and  C_5
REMARK    2  A    between atoms: C_9  and  O_10
REMARK    3  A    between atoms: O_10  and  C_11
REMARK    4  A    between atoms: C_11  and  C_12
REMARK                            x       y       z     vdW  Elec       q    Type
REMARK                         _______ _______ _______ _____ _____    ______ ____
ROOT
ATOM      1  O   UNL     1       1.218  10.879  17.884  0.00  0.00    +0.000 OA
ATOM      2  C   UNL     1       1.445   9.894  18.574  0.00  0.00    +0.000 A 
ATOM      3  N   UNL     1       2.128   8.809  18.085  0.00  0.00    +0.000 N 
ATOM      4  C   UNL     1       2.351   7.665  18.810  0.00  0.00    +0.000 A 
ATOM      5  N   UNL     1       1.955   7.524  20.036  0.00  0.00    +0.000 NA
ATOM      6  C   UNL     1       1.292   8.601  20.650  0.00  0.00    +0.000 A 
ATOM      7  C   UNL     1       0.906   8.488  21.987  0.00  0.00    +0.000 A 
ATOM      8  C   UNL     1       0.261   9.552  22.615  0.00  0.00    +0.000 A 
ATOM      9  F   UNL     1      -0.093   9.436  23.901  0.00  0.00    +0.000 F 
ATOM     10  C   UNL     1      -0.012  10.728  21.921  0.00  0.00    +0.000 A 
ATOM     11  F   UNL     1      -0.631  11.744  22.535  0.00  0.00    +0.000 F 
ATOM     12  C   UNL     1       0.358  10.862  20.592  0.00  0.00    +0.000 A 
ATOM     13  C   UNL     1       1.015   9.795  19.974  0.00  0.00    +0.000 A 
ATOM     14  H   UNL     1       2.381   8.880  17.109  0.00  0.00    +0.000 HD
ENDROOT
BRANCH   4  15
ATOM     15  C   UNL     1       3.070   6.578  18.104  0.00  0.00    +0.000 A 
ATOM     16  C   UNL     1       4.244   6.839  17.394  0.00  0.00    +0.000 A 
ATOM     17  C   UNL     1       4.855   5.784  16.743  0.00  0.00    +0.000 A 
ATOM     18  N   UNL     1       4.386   4.521  16.770  0.00  0.00    +0.000 NA
ATOM     19  C   UNL     1       3.259   4.300  17.480  0.00  0.00    +0.000 A 
ATOM     20  C   UNL     1       2.567   5.281  18.159  0.00  0.00    +0.000 A 
BRANCH  19  21
ATOM     21  O   UNL     1       2.756   3.020  17.543  0.00  0.00    +0.000 OA
BRANCH  21  22
ATOM     22  C   UNL     1       1.526   2.929  18.277  0.00  0.00    +0.000 C 
BRANCH  22  23
ATOM     23  C   UNL     1       1.670   2.123  19.563  0.00  0.00    +0.000 C 
ATOM     24  F   UNL     1       2.954   2.202  20.005  0.00  0.00    +0.000 F 
ATOM     25  F   UNL     1       0.899   2.672  20.536  0.00  0.00    +0.000 F 
ENDBRANCH  22  23
ENDBRANCH  21  22
ENDBRANCH  19  21
ENDBRANCH   4  15
TORSDOF 4
ENDMDL
MODEL 9
REMARK VINA RESULT:      -7.7      5.276      6.800
REMARK  Name = 
REMARK  4 active torsions:
REMARK  status: ('A' for Active; 'I' for Inactive)
REMARK    1  A    between atoms: C_4  and  C_5
REMARK    2  A    between atoms: C_9  and  O_10
REMARK    3  A    between atoms: O_10  and  C_11
REMARK    4  A    between atoms: C_11  and  C_12
REMARK                            x       y       z     vdW  Elec       q    Type
REMARK                         _______ _______ _______ _____ _____    ______ ____
ROOT
ATOM      1  O   UNL     1       1.794   9.764  17.479  0.00  0.00    +0.000 OA
ATOM      2  C   UNL     1       1.770   9.052  18.475  0.00  0.00    +0.000 A 
ATOM      3  N   UNL     1       2.420   7.844  18.516  0.00  0.00    +0.000 N 
ATOM      4  C   UNL     1       2.369   6.993  19.592  0.00  0.00    +0.000 A 
ATOM      5  N   UNL     1       1.718   7.274  20.677  0.00  0.00    +0.000 NA
ATOM      6  C   UNL     1       1.061   8.514  20.757  0.00  0.00    +0.000 A 
ATOM      7  C   UNL     1       0.400   8.857  21.938  0.00  0.00    +0.000 A 
ATOM      8  C   UNL     1      -0.243  10.090  22.040  0.00  0.00    +0.000 A 
ATOM      9  F   UNL     1      -0.863  10.412  23.183  0.00  0.00    +0.000 F 
ATOM     10  C   UNL     1      -0.243  10.983  20.972  0.00  0.00    +0.000 A 
ATOM     11  F   UNL     1      -0.863  12.165  21.082  0.00  0.00    +0.000 F 
ATOM     12  C   UNL     1       0.403  10.662  19.788  0.00  0.00    +0.000 A 
ATOM     13  C   UNL     1       1.055   9.430  19.699  0.00  0.00    +0.000 A 
ATOM     14  H   UNL     1       2.873   7.583  17.651  0.00  0.00    +0.000 HD
ENDROOT
BRANCH   4  15
ATOM     15  C   UNL     1       3.098   5.711  19.441  0.00  0.00    +0.000 A 
ATOM     16  C   UNL     1       2.723   4.584  20.175  0.00  0.00    +0.000 A 
ATOM     17  C   UNL     1       3.455   3.425  20.002  0.00  0.00    +0.000 A 
ATOM     18  N   UNL     1       4.498   3.324  19.154  0.00  0.00    +0.000 NA
ATOM     19  C   UNL     1       4.824   4.427  18.446  0.00  0.00    +0.000 A 
ATOM     20  C   UNL     1       4.164   5.634  18.549  0.00  0.00    +0.000 A 
BRANCH  19  21
ATOM     21  O   UNL     1       5.875   4.361  17.560  0.00  0.00    +0.000 OA
BRANCH  21  22
ATOM     22  C   UNL     1       5.473   4.007  16.227  0.00  0.00    +0.000 C 
BRANCH  22  23
ATOM     23  C   UNL     1       6.122   4.889  15.167  0.00  0.00    +0.000 C 
ATOM     24  F   UNL     1       7.226   5.487  15.690  0.00  0.00    +0.000 F 
ATOM     25  F   UNL     1       6.560   4.119  14.138  0.00  0.00    +0.000 F 
ENDBRANCH  22  23
ENDBRANCH  21  22
ENDBRANCH  19  21
ENDBRANCH   4  15
TORSDOF 4
ENDMDL
