MODEL 1
REMARK VINA RESULT:      -8.5      0.000      0.000
REMARK  Name = 
REMARK  4 active torsions:
REMARK  status: ('A' for Active; 'I' for Inactive)
REMARK    1  A    between atoms: C_1  and  C_2
REMARK    2  A    between atoms: C_5  and  C_6
REMARK    3  A    between atoms: N_15  and  C_16
REMARK    4  A    between atoms: C_16  and  C_17
REMARK                            x       y       z     vdW  Elec       q    Type
REMARK                         _______ _______ _______ _____ _____    ______ ____
ROOT
ATOM      1  C   UNL     1       6.219   5.875  16.549  0.00  0.00    +0.000 C 
ATOM      2  O   UNL     1       6.357   5.820  15.327  0.00  0.00    +0.000 OA
ATOM      3  N   UNL     1       5.183   5.197  17.188  0.00  0.00    +0.000 N 
ATOM      4  C   UNL     1       4.337   4.238  16.485  0.00  0.00    +0.000 C 
ATOM      5  C   UNL     1       3.147   4.012  17.418  0.00  0.00    +0.000 C 
ATOM      6  O   UNL     1       2.706   2.659  17.523  0.00  0.00    +0.000 OA
ATOM      7  C   UNL     1       1.673   2.560  18.509  0.00  0.00    +0.000 C 
ATOM      8  C   UNL     1       1.627   3.530  19.738  0.00  0.00    +0.000 C 
ATOM      9  O   UNL     1       0.753   3.430  20.598  0.00  0.00    +0.000 OA
ATOM     10  N   UNL     1       2.554   4.572  19.713  0.00  0.00    +0.000 N 
ATOM     11  C   UNL     1       3.675   4.423  18.797  0.00  0.00    +0.000 C 
ATOM     12  C   UNL     1       4.572   5.597  18.456  0.00  0.00    +0.000 C 
ENDROOT
BRANCH   1  17
ATOM     13  C   UNL     1       8.545   9.863  17.944  0.00  0.00    +0.000 C 
ATOM     14  C   UNL     1       8.184   8.438  18.082  0.00  0.00    +0.000 A 
ATOM     15  C   UNL     1       8.554   7.428  18.942  0.00  0.00    +0.000 A 
ATOM     16  C   UNL     1       7.845   6.271  18.525  0.00  0.00    +0.000 A 
ATOM     17  C   UNL     1       7.114   6.629  17.410  0.00  0.00    +0.000 A 
ATOM     18  O   UNL     1       7.295   7.965  17.171  0.00  0.00    +0.000 OA
ENDBRANCH   1  17
BRANCH  10  19
ATOM     19  C   UNL     1       2.349   5.759  20.533  0.00  0.00    +0.000 C 
BRANCH  19  20
ATOM     20  C   UNL     1       1.879   7.002  19.834  0.00  0.00    +0.000 A 
ATOM     21  C   UNL     1       2.100   7.193  18.466  0.00  0.00    +0.000 A 
ATOM     22  C   UNL     1       1.842   8.433  17.887  0.00  0.00    +0.000 A 
ATOM     23  C   UNL     1       1.345   9.443  18.691  0.00  0.00    +0.000 A 
ATOM     24  N   UNL     1       1.071   9.286  20.004  0.00  0.00    +0.000 NA
ATOM     25  C   UNL     1       1.346   8.075  20.541  0.00  0.00    +0.000 A 
ENDBRANCH  19  20
ENDBRANCH  10  19
TORSDOF 3
ENDMDL
MODEL 2
REMARK VINA RESULT:      -8.2      2.240      5.597
REMARK  Name = 
REMARK  4 active torsions:
REMARK  status: ('A' for Active; 'I' for Inactive)
REMARK    1  A    between atoms: C_1  and  C_2
REMARK    2  A    between atoms: C_5  and  C_6
REMARK    3  A    between atoms: N_15  and  C_16
REMARK    4  A    between atoms: C_16  and  C_17
REMARK                            x       y       z     vdW  Elec       q    Type
REMARK                         _______ _______ _______ _____ _____    ______ ____
ROOT
ATOM      1  C   UNL     1       1.514   8.010  20.603  0.00  0.00    +0.000 C 
ATOM      2  O   UNL     1       1.321   8.232  21.799  0.00  0.00    +0.000 OA
ATOM      3  N   UNL     1       1.794   6.724  20.146  0.00  0.00    +0.000 N 
ATOM      4  C   UNL     1       1.679   5.554  21.011  0.00  0.00    +0.000 C 
ATOM      5  C   UNL     1       2.400   4.438  20.254  0.00  0.00    +0.000 C 
ATOM      6  O   UNL     1       1.758   3.164  20.292  0.00  0.00    +0.000 OA
ATOM      7  C   UNL     1       2.462   2.241  19.455  0.00  0.00    +0.000 C 
ATOM      8  C   UNL     1       3.237   2.725  18.183  0.00  0.00    +0.000 C 
ATOM      9  O   UNL     1       3.822   1.929  17.450  0.00  0.00    +0.000 OA
ATOM     10  N   UNL     1       3.321   4.109  18.024  0.00  0.00    +0.000 N 
ATOM     11  C   UNL     1       2.383   4.909  18.796  0.00  0.00    +0.000 C 
ATOM     12  C   UNL     1       2.566   6.408  18.945  0.00  0.00    +0.000 C 
ENDROOT
BRANCH   1  17
ATOM     13  C   UNL     1       0.592  12.472  19.024  0.00  0.00    +0.000 C 
ATOM     14  C   UNL     1       1.057  11.084  18.836  0.00  0.00    +0.000 A 
ATOM     15  C   UNL     1       1.507  10.353  17.759  0.00  0.00    +0.000 A 
ATOM     16  C   UNL     1       1.789   9.052  18.249  0.00  0.00    +0.000 A 
ATOM     17  C   UNL     1       1.458   9.048  19.590  0.00  0.00    +0.000 A 
ATOM     18  O   UNL     1       1.050  10.305  19.949  0.00  0.00    +0.000 OA
ENDBRANCH   1  17
BRANCH  10  19
ATOM     19  C   UNL     1       4.344   4.690  17.164  0.00  0.00    +0.000 C 
BRANCH  19  20
ATOM     20  C   UNL     1       5.514   5.345  17.838  0.00  0.00    +0.000 A 
ATOM     21  C   UNL     1       6.296   6.296  17.175  0.00  0.00    +0.000 A 
ATOM     22  C   UNL     1       7.490   6.733  17.743  0.00  0.00    +0.000 A 
ATOM     23  C   UNL     1       7.858   6.221  18.974  0.00  0.00    +0.000 A 
ATOM     24  N   UNL     1       7.109   5.339  19.671  0.00  0.00    +0.000 NA
ATOM     25  C   UNL     1       5.962   4.923  19.087  0.00  0.00    +0.000 A 
ENDBRANCH  19  20
ENDBRANCH  10  19
TORSDOF 3
ENDMDL
MODEL 3
REMARK VINA RESULT:      -7.9      2.216      5.856
REMARK  Name = 
REMARK  4 active torsions:
REMARK  status: ('A' for Active; 'I' for Inactive)
REMARK    1  A    between atoms: C_1  and  C_2
REMARK    2  A    between atoms: C_5  and  C_6
REMARK    3  A    between atoms: N_15  and  C_16
REMARK    4  A    between atoms: C_16  and  C_17
REMARK                            x       y       z     vdW  Elec       q    Type
REMARK                         _______ _______ _______ _____ _____    ______ ____
ROOT
ATOM      1  C   UNL     1       1.511   8.063  20.633  0.00  0.00    +0.000 C 
ATOM      2  O   UNL     1       1.458   8.329  21.834  0.00  0.00    +0.000 OA
ATOM      3  N   UNL     1       1.868   6.790  20.193  0.00  0.00    +0.000 N 
ATOM      4  C   UNL     1       2.002   5.664  21.111  0.00  0.00    +0.000 C 
ATOM      5  C   UNL     1       2.734   4.591  20.306  0.00  0.00    +0.000 C 
ATOM      6  O   UNL     1       2.250   3.260  20.485  0.00  0.00    +0.000 OA
ATOM      7  C   UNL     1       2.931   2.371  19.594  0.00  0.00    +0.000 C 
ATOM      8  C   UNL     1       3.468   2.863  18.207  0.00  0.00    +0.000 C 
ATOM      9  O   UNL     1       4.033   2.093  17.431  0.00  0.00    +0.000 OA
ATOM     10  N   UNL     1       3.374   4.237  17.982  0.00  0.00    +0.000 N 
ATOM     11  C   UNL     1       2.466   4.976  18.846  0.00  0.00    +0.000 C 
ATOM     12  C   UNL     1       2.499   6.491  18.908  0.00  0.00    +0.000 C 
ENDROOT
BRANCH   1  17
ATOM     13  C   UNL     1      -1.277  11.358  18.480  0.00  0.00    +0.000 C 
ATOM     14  C   UNL     1      -0.044  10.552  18.592  0.00  0.00    +0.000 A 
ATOM     15  C   UNL     1       1.093  10.416  17.827  0.00  0.00    +0.000 A 
ATOM     16  C   UNL     1       1.904   9.457  18.487  0.00  0.00    +0.000 A 
ATOM     17  C   UNL     1       1.201   9.032  19.597  0.00  0.00    +0.000 A 
ATOM     18  O   UNL     1       0.029   9.736  19.675  0.00  0.00    +0.000 OA
ENDBRANCH   1  17
BRANCH  10  19
ATOM     19  C   UNL     1       4.199   4.874  16.964  0.00  0.00    +0.000 C 
BRANCH  19  20
ATOM     20  C   UNL     1       5.531   5.412  17.400  0.00  0.00    +0.000 A 
ATOM     21  C   UNL     1       6.116   5.013  18.606  0.00  0.00    +0.000 A 
ATOM     22  C   UNL     1       7.243   5.677  19.085  0.00  0.00    +0.000 A 
ATOM     23  C   UNL     1       7.768   6.708  18.328  0.00  0.00    +0.000 A 
ATOM     24  N   UNL     1       7.265   7.092  17.136  0.00  0.00    +0.000 NA
ATOM     25  C   UNL     1       6.162   6.438  16.704  0.00  0.00    +0.000 A 
ENDBRANCH  19  20
ENDBRANCH  10  19
TORSDOF 3
ENDMDL
MODEL 4
REMARK VINA RESULT:      -7.9      2.313      5.846
REMARK  Name = 
REMARK  4 active torsions:
REMARK  status: ('A' for Active; 'I' for Inactive)
REMARK    1  A    between atoms: C_1  and  C_2
REMARK    2  A    between atoms: C_5  and  C_6
REMARK    3  A    between atoms: N_15  and  C_16
REMARK    4  A    between atoms: C_16  and  C_17
REMARK                            x       y       z     vdW  Elec       q    Type
REMARK                         _______ _______ _______ _____ _____    ______ ____
ROOT
ATOM      1  C   UNL     1       1.213   8.473  20.824  0.00  0.00    +0.000 C 
ATOM      2  O   UNL     1       1.069   8.582  22.043  0.00  0.00    +0.000 OA
ATOM      3  N   UNL     1       1.669   7.285  20.257  0.00  0.00    +0.000 N 
ATOM      4  C   UNL     1       1.808   6.059  21.036  0.00  0.00    +0.000 C 
ATOM      5  C   UNL     1       2.650   5.133  20.158  0.00  0.00    +0.000 C 
ATOM      6  O   UNL     1       2.231   3.769  20.136  0.00  0.00    +0.000 OA
ATOM      7  C   UNL     1       3.017   3.034  19.193  0.00  0.00    +0.000 C 
ATOM      8  C   UNL     1       3.613   3.723  17.919  0.00  0.00    +0.000 C 
ATOM      9  O   UNL     1       4.269   3.087  17.096  0.00  0.00    +0.000 OA
ATOM     10  N   UNL     1       3.456   5.109  17.859  0.00  0.00    +0.000 N 
ATOM     11  C   UNL     1       2.454   5.688  18.742  0.00  0.00    +0.000 C 
ATOM     12  C   UNL     1       2.398   7.182  18.993  0.00  0.00    +0.000 C 
ENDROOT
BRANCH   1  17
ATOM     13  C   UNL     1       2.285  12.464  18.338  0.00  0.00    +0.000 C 
ATOM     14  C   UNL     1       1.377  11.370  18.736  0.00  0.00    +0.000 A 
ATOM     15  C   UNL     1       0.072  11.042  18.441  0.00  0.00    +0.000 A 
ATOM     16  C   UNL     1      -0.215   9.858  19.168  0.00  0.00    +0.000 A 
ATOM     17  C   UNL     1       0.916   9.550  19.897  0.00  0.00    +0.000 A 
ATOM     18  O   UNL     1       1.898  10.456  19.595  0.00  0.00    +0.000 OA
ENDBRANCH   1  17
BRANCH  10  19
ATOM     19  C   UNL     1       4.307   5.909  16.989  0.00  0.00    +0.000 C 
BRANCH  19  20
ATOM     20  C   UNL     1       5.704   6.186  17.463  0.00  0.00    +0.000 A 
ATOM     21  C   UNL     1       6.248   5.505  18.557  0.00  0.00    +0.000 A 
ATOM     22  C   UNL     1       7.459   5.923  19.103  0.00  0.00    +0.000 A 
ATOM     23  C   UNL     1       8.106   6.998  18.521  0.00  0.00    +0.000 A 
ATOM     24  N   UNL     1       7.641   7.651  17.435  0.00  0.00    +0.000 NA
ATOM     25  C   UNL     1       6.456   7.232  16.936  0.00  0.00    +0.000 A 
ENDBRANCH  19  20
ENDBRANCH  10  19
TORSDOF 3
ENDMDL
MODEL 5
REMARK VINA RESULT:      -7.7      2.667      5.865
REMARK  Name = 
REMARK  4 active torsions:
REMARK  status: ('A' for Active; 'I' for Inactive)
REMARK    1  A    between atoms: C_1  and  C_2
REMARK    2  A    between atoms: C_5  and  C_6
REMARK    3  A    between atoms: N_15  and  C_16
REMARK    4  A    between atoms: C_16  and  C_17
REMARK                            x       y       z     vdW  Elec       q    Type
REMARK                         _______ _______ _______ _____ _____    ______ ____
ROOT
ATOM      1  C   UNL     1       0.882   8.286  20.538  0.00  0.00    +0.000 C 
ATOM      2  O   UNL     1       0.101   8.474  21.471  0.00  0.00    +0.000 OA
ATOM      3  N   UNL     1       1.488   7.047  20.345  0.00  0.00    +0.000 N 
ATOM      4  C   UNL     1       1.090   5.864  21.101  0.00  0.00    +0.000 C 
ATOM      5  C   UNL     1       2.206   4.850  20.856  0.00  0.00    +0.000 C 
ATOM      6  O   UNL     1       1.773   3.508  20.640  0.00  0.00    +0.000 OA
ATOM      7  C   UNL     1       2.893   2.683  20.305  0.00  0.00    +0.000 C 
ATOM      8  C   UNL     1       4.137   3.267  19.555  0.00  0.00    +0.000 C 
ATOM      9  O   UNL     1       5.090   2.553  19.246  0.00  0.00    +0.000 OA
ATOM     10  N   UNL     1       4.138   4.652  19.385  0.00  0.00    +0.000 N 
ATOM     11  C   UNL     1       2.860   5.328  19.554  0.00  0.00    +0.000 C 
ATOM     12  C   UNL     1       2.782   6.836  19.695  0.00  0.00    +0.000 C 
ENDROOT
BRANCH   1  17
ATOM     13  C   UNL     1       1.322  12.858  19.065  0.00  0.00    +0.000 C 
ATOM     14  C   UNL     1       1.445  11.399  18.872  0.00  0.00    +0.000 A 
ATOM     15  C   UNL     1       1.834  10.593  17.825  0.00  0.00    +0.000 A 
ATOM     16  C   UNL     1       1.714   9.256  18.286  0.00  0.00    +0.000 A 
ATOM     17  C   UNL     1       1.220   9.319  19.574  0.00  0.00    +0.000 A 
ATOM     18  O   UNL     1       1.097  10.633  19.939  0.00  0.00    +0.000 OA
ENDBRANCH   1  17
BRANCH  10  19
ATOM     19  C   UNL     1       5.381   5.359  19.108  0.00  0.00    +0.000 C 
BRANCH  19  20
ATOM     20  C   UNL     1       5.896   5.314  17.699  0.00  0.00    +0.000 A 
ATOM     21  C   UNL     1       5.089   5.686  16.619  0.00  0.00    +0.000 A 
ATOM     22  C   UNL     1       5.515   5.440  15.316  0.00  0.00    +0.000 A 
ATOM     23  C   UNL     1       6.751   4.848  15.129  0.00  0.00    +0.000 A 
ATOM     24  N   UNL     1       7.582   4.519  16.141  0.00  0.00    +0.000 NA
ATOM     25  C   UNL     1       7.135   4.757  17.396  0.00  0.00    +0.000 A 
ENDBRANCH  19  20
ENDBRANCH  10  19
TORSDOF 3
ENDMDL
MODEL 6
REMARK VINA RESULT:      -7.5      2.832      6.363
REMARK  Name = 
REMARK  4 active torsions:
REMARK  status: ('A' for Active; 'I' for Inactive)
REMARK    1  A    between atoms: C_1  and  C_2
REMARK    2  A    between atoms: C_5  and  C_6
REMARK    3  A    between atoms: N_15  and  C_16
REMARK    4  A    between atoms: C_16  and  C_17
REMARK                            x       y       z     vdW  Elec       q    Type
REMARK                         _______ _______ _______ _____ _____    ______ ____
ROOT
ATOM      1  C   UNL     1       0.889   9.292  19.047  0.00  0.00    +0.000 C 
ATOM      2  O   UNL     1       0.366   9.908  18.117  0.00  0.00    +0.000 OA
ATOM      3  N   UNL     1       2.001   8.480  18.836  0.00  0.00    +0.000 N 
ATOM      4  C   UNL     1       2.721   8.468  17.567  0.00  0.00    +0.000 C 
ATOM      5  C   UNL     1       3.608   7.225  17.634  0.00  0.00    +0.000 C 
ATOM      6  O   UNL     1       4.930   7.393  17.124  0.00  0.00    +0.000 OA
ATOM      7  C   UNL     1       5.693   6.203  17.351  0.00  0.00    +0.000 C 
ATOM      8  C   UNL     1       5.406   5.275  18.579  0.00  0.00    +0.000 C 
ATOM      9  O   UNL     1       6.077   4.266  18.788  0.00  0.00    +0.000 OA
ATOM     10  N   UNL     1       4.274   5.604  19.326  0.00  0.00    +0.000 N 
ATOM     11  C   UNL     1       3.736   6.943  19.135  0.00  0.00    +0.000 C 
ATOM     12  C   UNL     1       2.358   7.316  19.646  0.00  0.00    +0.000 C 
ENDROOT
BRANCH   1  17
ATOM     13  C   UNL     1      -1.002  11.580  22.849  0.00  0.00    +0.000 C 
ATOM     14  C   UNL     1      -0.469  10.382  22.169  0.00  0.00    +0.000 A 
ATOM     15  C   UNL     1      -0.229   9.081  22.553  0.00  0.00    +0.000 A 
ATOM     16  C   UNL     1       0.309   8.424  21.416  0.00  0.00    +0.000 A 
ATOM     17  C   UNL     1       0.405   9.369  20.414  0.00  0.00    +0.000 A 
ATOM     18  O   UNL     1      -0.110  10.553  20.870  0.00  0.00    +0.000 OA
ENDBRANCH   1  17
BRANCH  10  19
ATOM     19  C   UNL     1       3.655   4.615  20.199  0.00  0.00    +0.000 C 
BRANCH  19  20
ATOM     20  C   UNL     1       2.499   3.837  19.641  0.00  0.00    +0.000 A 
ATOM     21  C   UNL     1       1.306   3.695  20.357  0.00  0.00    +0.000 A 
ATOM     22  C   UNL     1       0.331   2.804  19.915  0.00  0.00    +0.000 A 
ATOM     23  C   UNL     1       0.569   2.095  18.751  0.00  0.00    +0.000 A 
ATOM     24  N   UNL     1       1.684   2.238  18.004  0.00  0.00    +0.000 NA
ATOM     25  C   UNL     1       2.618   3.100  18.467  0.00  0.00    +0.000 A 
ENDBRANCH  19  20
ENDBRANCH  10  19
TORSDOF 3
ENDMDL
MODEL 7
REMARK VINA RESULT:      -7.5      3.983      6.778
REMARK  Name = 
REMARK  4 active torsions:
REMARK  status: ('A' for Active; 'I' for Inactive)
REMARK    1  A    between atoms: C_1  and  C_2
REMARK    2  A    between atoms: C_5  and  C_6
REMARK    3  A    between atoms: N_15  and  C_16
REMARK    4  A    between atoms: C_16  and  C_17
REMARK                            x       y       z     vdW  Elec       q    Type
REMARK                         _______ _______ _______ _____ _____    ______ ____
ROOT
ATOM      1  C   UNL     1       1.860   6.910  20.339  0.00  0.00    +0.000 C 
ATOM      2  O   UNL     1       1.597   5.897  20.989  0.00  0.00    +0.000 OA
ATOM      3  N   UNL     1       1.330   8.149  20.691  0.00  0.00    +0.000 N 
ATOM      4  C   UNL     1       0.607   8.354  21.943  0.00  0.00    +0.000 C 
ATOM      5  C   UNL     1      -0.092   9.702  21.772  0.00  0.00    +0.000 C 
ATOM      6  O   UNL     1      -0.073  10.547  22.922  0.00  0.00    +0.000 OA
ATOM      7  C   UNL     1      -0.650  11.817  22.601  0.00  0.00    +0.000 C 
ATOM      8  C   UNL     1      -0.561  12.409  21.154  0.00  0.00    +0.000 C 
ATOM      9  O   UNL     1      -1.036  13.511  20.884  0.00  0.00    +0.000 OA
ATOM     10  N   UNL     1      -0.029  11.552  20.189  0.00  0.00    +0.000 N 
ATOM     11  C   UNL     1       0.721  10.406  20.680  0.00  0.00    +0.000 C 
ATOM     12  C   UNL     1       1.084   9.253  19.764  0.00  0.00    +0.000 C 
ENDROOT
BRANCH   1  17
ATOM     13  C   UNL     1       5.594   5.291  17.752  0.00  0.00    +0.000 C 
ATOM     14  C   UNL     1       4.430   6.173  17.966  0.00  0.00    +0.000 A 
ATOM     15  C   UNL     1       3.855   7.202  17.254  0.00  0.00    +0.000 A 
ATOM     16  C   UNL     1       2.750   7.650  18.023  0.00  0.00    +0.000 A 
ATOM     17  C   UNL     1       2.736   6.898  19.181  0.00  0.00    +0.000 A 
ATOM     18  O   UNL     1       3.742   5.970  19.119  0.00  0.00    +0.000 OA
ENDBRANCH   1  17
BRANCH  10  19
ATOM     19  C   UNL     1      -0.279  11.792  18.774  0.00  0.00    +0.000 C 
BRANCH  19  20
ATOM     20  C   UNL     1      -1.548  11.232  18.199  0.00  0.00    +0.000 A 
ATOM     21  C   UNL     1      -1.532  10.120  17.351  0.00  0.00    +0.000 A 
ATOM     22  C   UNL     1      -2.687   9.748  16.669  0.00  0.00    +0.000 A 
ATOM     23  C   UNL     1      -3.838  10.489  16.875  0.00  0.00    +0.000 A 
ATOM     24  N   UNL     1      -3.910  11.538  17.721  0.00  0.00    +0.000 NA
ATOM     25  C   UNL     1      -2.767  11.883  18.358  0.00  0.00    +0.000 A 
ENDBRANCH  19  20
ENDBRANCH  10  19
TORSDOF 3
ENDMDL
MODEL 8
REMARK VINA RESULT:      -7.4      7.941     11.243
REMARK  Name = 
REMARK  4 active torsions:
REMARK  status: ('A' for Active; 'I' for Inactive)
REMARK    1  A    between atoms: C_1  and  C_2
REMARK    2  A    between atoms: C_5  and  C_6
REMARK    3  A    between atoms: N_15  and  C_16
REMARK    4  A    between atoms: C_16  and  C_17
REMARK                            x       y       z     vdW  Elec       q    Type
REMARK                         _______ _______ _______ _____ _____    ______ ____
ROOT
ATOM      1  C   UNL     1      -5.474  12.140  17.877  0.00  0.00    +0.000 C 
ATOM      2  O   UNL     1      -6.397  12.624  17.222  0.00  0.00    +0.000 OA
ATOM      3  N   UNL     1      -5.311  12.446  19.227  0.00  0.00    +0.000 N 
ATOM      4  C   UNL     1      -6.321  13.185  19.979  0.00  0.00    +0.000 C 
ATOM      5  C   UNL     1      -5.614  13.608  21.266  0.00  0.00    +0.000 C 
ATOM      6  O   UNL     1      -6.395  13.492  22.455  0.00  0.00    +0.000 OA
ATOM      7  C   UNL     1      -5.590  13.802  23.597  0.00  0.00    +0.000 C 
ATOM      8  C   UNL     1      -4.049  13.524  23.606  0.00  0.00    +0.000 C 
ATOM      9  O   UNL     1      -3.361  13.767  24.596  0.00  0.00    +0.000 OA
ATOM     10  N   UNL     1      -3.509  13.111  22.387  0.00  0.00    +0.000 N 
ATOM     11  C   UNL     1      -4.450  12.618  21.393  0.00  0.00    +0.000 C 
ATOM     12  C   UNL     1      -4.038  12.428  19.946  0.00  0.00    +0.000 C 
ENDROOT
BRANCH   1  17
ATOM     13  C   UNL     1      -3.023  10.127  14.244  0.00  0.00    +0.000 C 
ATOM     14  C   UNL     1      -3.356  10.285  15.674  0.00  0.00    +0.000 A 
ATOM     15  C   UNL     1      -2.949   9.666  16.834  0.00  0.00    +0.000 A 
ATOM     16  C   UNL     1      -3.668  10.285  17.890  0.00  0.00    +0.000 A 
ATOM     17  C   UNL     1      -4.503  11.220  17.311  0.00  0.00    +0.000 A 
ATOM     18  O   UNL     1      -4.277  11.242  15.961  0.00  0.00    +0.000 OA
ENDBRANCH   1  17
BRANCH  10  19
ATOM     19  C   UNL     1      -2.079  13.234  22.136  0.00  0.00    +0.000 C 
BRANCH  19  20
ATOM     20  C   UNL     1      -1.280  11.963  22.094  0.00  0.00    +0.000 A 
ATOM     21  C   UNL     1      -1.374  11.011  23.114  0.00  0.00    +0.000 A 
ATOM     22  C   UNL     1      -0.476   9.947  23.157  0.00  0.00    +0.000 A 
ATOM     23  C   UNL     1       0.478   9.853  22.160  0.00  0.00    +0.000 A 
ATOM     24  N   UNL     1       0.572  10.721  21.131  0.00  0.00    +0.000 NA
ATOM     25  C   UNL     1      -0.305  11.751  21.124  0.00  0.00    +0.000 A 
ENDBRANCH  19  20
ENDBRANCH  10  19
TORSDOF 3
ENDMDL
MODEL 9
REMARK VINA RESULT:      -7.4      2.243      5.838
REMARK  Name = 
REMARK  4 active torsions:
REMARK  status: ('A' for Active; 'I' for Inactive)
REMARK    1  A    between atoms: C_1  and  C_2
REMARK    2  A    between atoms: C_5  and  C_6
REMARK    3  A    between atoms: N_15  and  C_16
REMARK    4  A    between atoms: C_16  and  C_17
REMARK                            x       y       z     vdW  Elec       q    Type
REMARK                         _______ _______ _______ _____ _____    ______ ____
ROOT
ATOM      1  C   UNL     1       1.533   7.885  20.299  0.00  0.00    +0.000 C 
ATOM      2  O   UNL     1       1.221   7.747  21.482  0.00  0.00    +0.000 OA
ATOM      3  N   UNL     1       2.074   6.829  19.570  0.00  0.00    +0.000 N 
ATOM      4  C   UNL     1       2.117   5.468  20.094  0.00  0.00    +0.000 C 
ATOM      5  C   UNL     1       3.080   4.724  19.170  0.00  0.00    +0.000 C 
ATOM      6  O   UNL     1       2.682   3.401  18.814  0.00  0.00    +0.000 OA
ATOM      7  C   UNL     1       3.598   2.858  17.858  0.00  0.00    +0.000 C 
ATOM      8  C   UNL     1       4.358   3.780  16.845  0.00  0.00    +0.000 C 
ATOM      9  O   UNL     1       5.127   3.312  16.007  0.00  0.00    +0.000 OA
ATOM     10  N   UNL     1       4.197   5.152  17.048  0.00  0.00    +0.000 N 
ATOM     11  C   UNL     1       3.077   5.558  17.884  0.00  0.00    +0.000 C 
ATOM     12  C   UNL     1       2.971   6.971  18.423  0.00  0.00    +0.000 C 
ENDROOT
BRANCH   1  17
ATOM     13  C   UNL     1       0.243  12.516  19.912  0.00  0.00    +0.000 C 
ATOM     14  C   UNL     1       0.786  11.255  19.369  0.00  0.00    +0.000 A 
ATOM     15  C   UNL     1       1.225  10.848  18.128  0.00  0.00    +0.000 A 
ATOM     16  C   UNL     1       1.615   9.491  18.270  0.00  0.00    +0.000 A 
ATOM     17  C   UNL     1       1.356   9.133  19.578  0.00  0.00    +0.000 A 
ATOM     18  O   UNL     1       0.888  10.229  20.253  0.00  0.00    +0.000 OA
ENDBRANCH   1  17
BRANCH  10  19
ATOM     19  C   UNL     1       5.152   6.096  16.483  0.00  0.00    +0.000 C 
BRANCH  19  20
ATOM     20  C   UNL     1       6.239   6.595  17.390  0.00  0.00    +0.000 A 
ATOM     21  C   UNL     1       6.865   7.825  17.165  0.00  0.00    +0.000 A 
ATOM     22  C   UNL     1       8.003   8.170  17.890  0.00  0.00    +0.000 A 
ATOM     23  C   UNL     1       8.469   7.280  18.841  0.00  0.00    +0.000 A 
ATOM     24  N   UNL     1       7.867   6.106  19.125  0.00  0.00    +0.000 NA
ATOM     25  C   UNL     1       6.773   5.793  18.394  0.00  0.00    +0.000 A 
ENDBRANCH  19  20
ENDBRANCH  10  19
TORSDOF 3
ENDMDL
