MODEL 1
REMARK VINA RESULT:      -8.0      0.000      0.000
REMARK  Name = 
REMARK  4 active torsions:
REMARK  status: ('A' for Active; 'I' for Inactive)
REMARK    1  A    between atoms: C_2  and  C_18
REMARK    2  A    between atoms: N_3  and  C_4
REMARK    3  A    between atoms: C_7  and  S_8
REMARK    4  A    between atoms: S_8  and  N_11
REMARK                            x       y       z     vdW  Elec       q    Type
REMARK                         _______ _______ _______ _____ _____    ______ ____
ROOT
ATOM      1  C   UNL     1       7.713   7.206  18.419  0.00  0.00    +0.000 A 
ATOM      2  C   UNL     1       6.762   7.363  17.408  0.00  0.00    +0.000 A 
ATOM      3  C   UNL     1       5.793   6.383  17.169  0.00  0.00    +0.000 A 
ATOM      4  C   UNL     1       5.783   5.212  17.930  0.00  0.00    +0.000 A 
ATOM      5  C   UNL     1       6.739   5.030  18.933  0.00  0.00    +0.000 A 
ATOM      6  C   UNL     1       7.707   6.016  19.164  0.00  0.00    +0.000 A 
ENDROOT
BRANCH   1   9
ATOM      7  O   UNL     1       7.725  10.077  17.789  0.00  0.00    +0.000 OA
ATOM      8  C   UNL     1       8.645   9.526  18.386  0.00  0.00    +0.000 C 
ATOM      9  N   UNL     1       8.677   8.185  18.746  0.00  0.00    +0.000 N 
ATOM     10  H   UNL     1       9.398   7.908  19.401  0.00  0.00    +0.000 HD
BRANCH   8  11
ATOM     11  C   UNL     1       9.874  10.317  18.855  0.00  0.00    +0.000 C 
ATOM     12  C   UNL     1       9.610  10.940  20.241  0.00  0.00    +0.000 C 
ATOM     13  C   UNL     1      10.627  11.972  20.638  0.00  0.00    +0.000 C 
ATOM     14  C   UNL     1      11.476  12.532  19.768  0.00  0.00    +0.000 C 
ATOM     15  C   UNL     1      11.485  12.204  18.305  0.00  0.00    +0.000 C 
ATOM     16  C   UNL     1      10.258  11.410  17.847  0.00  0.00    +0.000 C 
ENDBRANCH   8  11
ENDBRANCH   1   9
BRANCH   4  17
ATOM     17  S   UNL     1       4.436   4.052  17.750  0.00  0.00    +0.000 S 
ATOM     18  O   UNL     1       4.203   3.889  16.328  0.00  0.00    +0.000 OA
ATOM     19  O   UNL     1       4.735   2.910  18.590  0.00  0.00    +0.000 OA
BRANCH  17  20
ATOM     20  N   UNL     1       3.097   4.839  18.406  0.00  0.00    +0.000 NA
ATOM     21  C   UNL     1       3.225   5.567  19.675  0.00  0.00    +0.000 C 
ATOM     22  C   UNL     1       2.340   4.791  20.632  0.00  0.00    +0.000 C 
ATOM     23  C   UNL     1       1.204   4.285  19.764  0.00  0.00    +0.000 C 
ATOM     24  C   UNL     1       1.774   4.188  18.352  0.00  0.00    +0.000 C 
ENDBRANCH  17  20
ENDBRANCH   4  17
TORSDOF 4
ENDMDL
MODEL 2
REMARK VINA RESULT:      -8.0      4.147      7.387
REMARK  Name = 
REMARK  4 active torsions:
REMARK  status: ('A' for Active; 'I' for Inactive)
REMARK    1  A    between atoms: C_2  and  C_18
REMARK    2  A    between atoms: N_3  and  C_4
REMARK    3  A    between atoms: C_7  and  S_8
REMARK    4  A    between atoms: S_8  and  N_11
REMARK                            x       y       z     vdW  Elec       q    Type
REMARK                         _______ _______ _______ _____ _____    ______ ____
ROOT
ATOM      1  C   UNL     1       2.450   7.491  19.091  0.00  0.00    +0.000 A 
ATOM      2  C   UNL     1       2.914   8.041  17.894  0.00  0.00    +0.000 A 
ATOM      3  C   UNL     1       3.854   7.368  17.107  0.00  0.00    +0.000 A 
ATOM      4  C   UNL     1       4.362   6.137  17.527  0.00  0.00    +0.000 A 
ATOM      5  C   UNL     1       3.924   5.581  18.731  0.00  0.00    +0.000 A 
ATOM      6  C   UNL     1       2.984   6.264  19.515  0.00  0.00    +0.000 A 
ENDROOT
BRANCH   1   9
ATOM      7  O   UNL     1       1.192  10.133  18.814  0.00  0.00    +0.000 OA
ATOM      8  C   UNL     1       0.929   9.367  19.737  0.00  0.00    +0.000 C 
ATOM      9  N   UNL     1       1.460   8.094  19.898  0.00  0.00    +0.000 N 
ATOM     10  H   UNL     1       1.014   7.500  20.586  0.00  0.00    +0.000 HD
BRANCH   8  11
ATOM     11  C   UNL     1      -0.095   9.746  20.815  0.00  0.00    +0.000 C 
ATOM     12  C   UNL     1      -0.447  11.245  20.714  0.00  0.00    +0.000 C 
ATOM     13  C   UNL     1      -1.197  11.767  21.906  0.00  0.00    +0.000 C 
ATOM     14  C   UNL     1      -1.271  11.107  23.068  0.00  0.00    +0.000 C 
ATOM     15  C   UNL     1      -0.594   9.791  23.307  0.00  0.00    +0.000 C 
ATOM     16  C   UNL     1       0.422   9.417  22.223  0.00  0.00    +0.000 C 
ENDBRANCH   8  11
ENDBRANCH   1   9
BRANCH   4  17
ATOM     17  S   UNL     1       5.416   5.196  16.432  0.00  0.00    +0.000 S 
ATOM     18  O   UNL     1       5.160   3.793  16.697  0.00  0.00    +0.000 OA
ATOM     19  O   UNL     1       5.251   5.743  15.100  0.00  0.00    +0.000 OA
BRANCH  17  20
ATOM     20  N   UNL     1       6.985   5.541  16.941  0.00  0.00    +0.000 NA
ATOM     21  C   UNL     1       7.628   4.698  17.958  0.00  0.00    +0.000 C 
ATOM     22  C   UNL     1       7.806   5.628  19.143  0.00  0.00    +0.000 C 
ATOM     23  C   UNL     1       8.062   6.986  18.518  0.00  0.00    +0.000 C 
ATOM     24  C   UNL     1       7.388   6.945  17.149  0.00  0.00    +0.000 C 
ENDBRANCH  17  20
ENDBRANCH   4  17
TORSDOF 4
ENDMDL
MODEL 3
REMARK VINA RESULT:      -7.8      5.489      7.458
REMARK  Name = 
REMARK  4 active torsions:
REMARK  status: ('A' for Active; 'I' for Inactive)
REMARK    1  A    between atoms: C_2  and  C_18
REMARK    2  A    between atoms: N_3  and  C_4
REMARK    3  A    between atoms: C_7  and  S_8
REMARK    4  A    between atoms: S_8  and  N_11
REMARK                            x       y       z     vdW  Elec       q    Type
REMARK                         _______ _______ _______ _____ _____    ______ ____
ROOT
ATOM      1  C   UNL     1       1.725   8.088  19.773  0.00  0.00    +0.000 A 
ATOM      2  C   UNL     1       1.907   6.928  20.528  0.00  0.00    +0.000 A 
ATOM      3  C   UNL     1       2.701   5.877  20.057  0.00  0.00    +0.000 A 
ATOM      4  C   UNL     1       3.306   5.968  18.802  0.00  0.00    +0.000 A 
ATOM      5  C   UNL     1       3.118   7.113  18.024  0.00  0.00    +0.000 A 
ATOM      6  C   UNL     1       2.318   8.160  18.503  0.00  0.00    +0.000 A 
ENDROOT
BRANCH   1   9
ATOM      7  O   UNL     1       1.698   9.353  22.427  0.00  0.00    +0.000 OA
ATOM      8  C   UNL     1       0.986   9.736  21.503  0.00  0.00    +0.000 C 
ATOM      9  N   UNL     1       0.984   9.205  20.219  0.00  0.00    +0.000 N 
ATOM     10  H   UNL     1       0.496   9.737  19.509  0.00  0.00    +0.000 HD
BRANCH   8  11
ATOM     11  C   UNL     1       0.029  10.922  21.678  0.00  0.00    +0.000 C 
ATOM     12  C   UNL     1      -0.820  10.739  22.953  0.00  0.00    +0.000 C 
ATOM     13  C   UNL     1      -1.984  11.685  23.039  0.00  0.00    +0.000 C 
ATOM     14  C   UNL     1      -2.435  12.385  21.992  0.00  0.00    +0.000 C 
ATOM     15  C   UNL     1      -1.840  12.280  20.620  0.00  0.00    +0.000 C 
ATOM     16  C   UNL     1      -0.882  11.096  20.454  0.00  0.00    +0.000 C 
ENDBRANCH   8  11
ENDBRANCH   1   9
BRANCH   4  17
ATOM     17  S   UNL     1       4.467   4.710  18.286  0.00  0.00    +0.000 S 
ATOM     18  O   UNL     1       4.912   5.064  16.953  0.00  0.00    +0.000 OA
ATOM     19  O   UNL     1       5.418   4.534  19.366  0.00  0.00    +0.000 OA
BRANCH  17  20
ATOM     20  N   UNL     1       3.552   3.300  18.170  0.00  0.00    +0.000 NA
ATOM     21  C   UNL     1       2.309   3.295  17.386  0.00  0.00    +0.000 C 
ATOM     22  C   UNL     1       1.226   3.059  18.422  0.00  0.00    +0.000 C 
ATOM     23  C   UNL     1       1.882   2.157  19.450  0.00  0.00    +0.000 C 
ATOM     24  C   UNL     1       3.377   2.447  19.361  0.00  0.00    +0.000 C 
ENDBRANCH  17  20
ENDBRANCH   4  17
TORSDOF 4
ENDMDL
MODEL 4
REMARK VINA RESULT:      -7.8      1.110      1.681
REMARK  Name = 
REMARK  4 active torsions:
REMARK  status: ('A' for Active; 'I' for Inactive)
REMARK    1  A    between atoms: C_2  and  C_18
REMARK    2  A    between atoms: N_3  and  C_4
REMARK    3  A    between atoms: C_7  and  S_8
REMARK    4  A    between atoms: S_8  and  N_11
REMARK                            x       y       z     vdW  Elec       q    Type
REMARK                         _______ _______ _______ _____ _____    ______ ____
ROOT
ATOM      1  C   UNL     1       7.776   8.033  17.860  0.00  0.00    +0.000 A 
ATOM      2  C   UNL     1       8.137   6.946  18.660  0.00  0.00    +0.000 A 
ATOM      3  C   UNL     1       7.299   5.833  18.786  0.00  0.00    +0.000 A 
ATOM      4  C   UNL     1       6.068   5.808  18.127  0.00  0.00    +0.000 A 
ATOM      5  C   UNL     1       5.682   6.896  17.339  0.00  0.00    +0.000 A 
ATOM      6  C   UNL     1       6.527   8.008  17.221  0.00  0.00    +0.000 A 
ENDROOT
BRANCH   1   9
ATOM      7  O   UNL     1       8.894   9.909  19.829  0.00  0.00    +0.000 OA
ATOM      8  C   UNL     1       9.072  10.032  18.620  0.00  0.00    +0.000 C 
ATOM      9  N   UNL     1       8.604   9.157  17.648  0.00  0.00    +0.000 N 
ATOM     10  H   UNL     1       8.987   9.268  16.717  0.00  0.00    +0.000 HD
BRANCH   8  11
ATOM     11  C   UNL     1       9.910  11.186  18.055  0.00  0.00    +0.000 C 
ATOM     12  C   UNL     1      11.193  11.374  18.892  0.00  0.00    +0.000 C 
ATOM     13  C   UNL     1      11.914  12.660  18.605  0.00  0.00    +0.000 C 
ATOM     14  C   UNL     1      11.351  13.680  17.946  0.00  0.00    +0.000 C 
ATOM     15  C   UNL     1       9.938  13.654  17.448  0.00  0.00    +0.000 C 
ATOM     16  C   UNL     1       9.109  12.496  18.012  0.00  0.00    +0.000 C 
ENDBRANCH   8  11
ENDBRANCH   1   9
BRANCH   4  17
ATOM     17  S   UNL     1       5.089   4.313  18.138  0.00  0.00    +0.000 S 
ATOM     18  O   UNL     1       5.196   3.725  16.817  0.00  0.00    +0.000 OA
ATOM     19  O   UNL     1       5.463   3.562  19.320  0.00  0.00    +0.000 OA
BRANCH  17  20
ATOM     20  N   UNL     1       3.500   4.839  18.343  0.00  0.00    +0.000 NA
ATOM     21  C   UNL     1       3.082   5.426  19.623  0.00  0.00    +0.000 C 
ATOM     22  C   UNL     1       2.067   4.437  20.164  0.00  0.00    +0.000 C 
ATOM     23  C   UNL     1       1.380   3.892  18.926  0.00  0.00    +0.000 C 
ATOM     24  C   UNL     1       2.393   4.034  17.794  0.00  0.00    +0.000 C 
ENDBRANCH  17  20
ENDBRANCH   4  17
TORSDOF 4
ENDMDL
MODEL 5
REMARK VINA RESULT:      -7.8      0.961      1.163
REMARK  Name = 
REMARK  4 active torsions:
REMARK  status: ('A' for Active; 'I' for Inactive)
REMARK    1  A    between atoms: C_2  and  C_18
REMARK    2  A    between atoms: N_3  and  C_4
REMARK    3  A    between atoms: C_7  and  S_8
REMARK    4  A    between atoms: S_8  and  N_11
REMARK                            x       y       z     vdW  Elec       q    Type
REMARK                         _______ _______ _______ _____ _____    ______ ____
ROOT
ATOM      1  C   UNL     1       7.676   7.235  18.403  0.00  0.00    +0.000 A 
ATOM      2  C   UNL     1       6.772   7.389  17.350  0.00  0.00    +0.000 A 
ATOM      3  C   UNL     1       5.767   6.445  17.116  0.00  0.00    +0.000 A 
ATOM      4  C   UNL     1       5.672   5.312  17.927  0.00  0.00    +0.000 A 
ATOM      5  C   UNL     1       6.581   5.131  18.974  0.00  0.00    +0.000 A 
ATOM      6  C   UNL     1       7.587   6.082  19.199  0.00  0.00    +0.000 A 
ENDROOT
BRANCH   1   9
ATOM      7  O   UNL     1       7.717  10.129  17.887  0.00  0.00    +0.000 OA
ATOM      8  C   UNL     1       8.652   9.537  18.419  0.00  0.00    +0.000 C 
ATOM      9  N   UNL     1       8.674   8.182  18.724  0.00  0.00    +0.000 N 
ATOM     10  H   UNL     1       9.418   7.866  19.334  0.00  0.00    +0.000 HD
BRANCH   8  11
ATOM     11  C   UNL     1       9.916  10.286  18.862  0.00  0.00    +0.000 C 
ATOM     12  C   UNL     1       9.691  10.945  20.239  0.00  0.00    +0.000 C 
ATOM     13  C   UNL     1      10.752  11.942  20.607  0.00  0.00    +0.000 C 
ATOM     14  C   UNL     1      11.615  12.451  19.719  0.00  0.00    +0.000 C 
ATOM     15  C   UNL     1      11.597  12.095  18.263  0.00  0.00    +0.000 C 
ATOM     16  C   UNL     1      10.335  11.343  17.830  0.00  0.00    +0.000 C 
ENDBRANCH   8  11
ENDBRANCH   1   9
BRANCH   4  17
ATOM     17  S   UNL     1       4.279   4.208  17.746  0.00  0.00    +0.000 S 
ATOM     18  O   UNL     1       3.184   4.991  17.206  0.00  0.00    +0.000 OA
ATOM     19  O   UNL     1       4.755   3.023  17.059  0.00  0.00    +0.000 OA
BRANCH  17  20
ATOM     20  N   UNL     1       3.872   3.764  19.320  0.00  0.00    +0.000 NA
ATOM     21  C   UNL     1       3.497   2.375  19.615  0.00  0.00    +0.000 C 
ATOM     22  C   UNL     1       2.041   2.470  20.030  0.00  0.00    +0.000 C 
ATOM     23  C   UNL     1       1.939   3.811  20.733  0.00  0.00    +0.000 C 
ATOM     24  C   UNL     1       3.050   4.673  20.141  0.00  0.00    +0.000 C 
ENDBRANCH  17  20
ENDBRANCH   4  17
TORSDOF 4
ENDMDL
MODEL 6
REMARK VINA RESULT:      -7.8      5.700      8.122
REMARK  Name = 
REMARK  4 active torsions:
REMARK  status: ('A' for Active; 'I' for Inactive)
REMARK    1  A    between atoms: C_2  and  C_18
REMARK    2  A    between atoms: N_3  and  C_4
REMARK    3  A    between atoms: C_7  and  S_8
REMARK    4  A    between atoms: S_8  and  N_11
REMARK                            x       y       z     vdW  Elec       q    Type
REMARK                         _______ _______ _______ _____ _____    ______ ____
ROOT
ATOM      1  C   UNL     1       0.862   9.031  20.029  0.00  0.00    +0.000 A 
ATOM      2  C   UNL     1       1.281   7.925  20.774  0.00  0.00    +0.000 A 
ATOM      3  C   UNL     1       2.171   6.989  20.238  0.00  0.00    +0.000 A 
ATOM      4  C   UNL     1       2.634   7.137  18.929  0.00  0.00    +0.000 A 
ATOM      5  C   UNL     1       2.210   8.226  18.163  0.00  0.00    +0.000 A 
ATOM      6  C   UNL     1       1.316   9.158  18.707  0.00  0.00    +0.000 A 
ENDROOT
BRANCH   1   9
ATOM      7  O   UNL     1       1.571  11.610  21.248  0.00  0.00    +0.000 OA
ATOM      8  C   UNL     1       0.410  11.227  21.136  0.00  0.00    +0.000 C 
ATOM      9  N   UNL     1       0.012  10.039  20.535  0.00  0.00    +0.000 N 
ATOM     10  H   UNL     1      -0.975   9.940  20.336  0.00  0.00    +0.000 HD
BRANCH   8  11
ATOM     11  C   UNL     1      -0.761  12.089  21.627  0.00  0.00    +0.000 C 
ATOM     12  C   UNL     1      -1.367  11.485  22.911  0.00  0.00    +0.000 C 
ATOM     13  C   UNL     1      -2.693  12.081  23.286  0.00  0.00    +0.000 C 
ATOM     14  C   UNL     1      -3.429  12.813  22.441  0.00  0.00    +0.000 C 
ATOM     15  C   UNL     1      -3.016  13.095  21.028  0.00  0.00    +0.000 C 
ATOM     16  C   UNL     1      -1.844  12.235  20.548  0.00  0.00    +0.000 C 
ENDBRANCH   8  11
ENDBRANCH   1   9
BRANCH   4  17
ATOM     17  S   UNL     1       3.911   6.048  18.315  0.00  0.00    +0.000 S 
ATOM     18  O   UNL     1       4.666   6.792  17.326  0.00  0.00    +0.000 OA
ATOM     19  O   UNL     1       4.569   5.463  19.467  0.00  0.00    +0.000 OA
BRANCH  17  20
ATOM     20  N   UNL     1       3.082   4.818  17.515  0.00  0.00    +0.000 NA
ATOM     21  C   UNL     1       1.649   4.615  17.769  0.00  0.00    +0.000 C 
ATOM     22  C   UNL     1       1.586   3.250  18.430  0.00  0.00    +0.000 C 
ATOM     23  C   UNL     1       2.710   2.467  17.778  0.00  0.00    +0.000 C 
ATOM     24  C   UNL     1       3.732   3.507  17.329  0.00  0.00    +0.000 C 
ENDBRANCH  17  20
ENDBRANCH   4  17
TORSDOF 4
ENDMDL
MODEL 7
REMARK VINA RESULT:      -7.7      5.239      6.901
REMARK  Name = 
REMARK  4 active torsions:
REMARK  status: ('A' for Active; 'I' for Inactive)
REMARK    1  A    between atoms: C_2  and  C_18
REMARK    2  A    between atoms: N_3  and  C_4
REMARK    3  A    between atoms: C_7  and  S_8
REMARK    4  A    between atoms: S_8  and  N_11
REMARK                            x       y       z     vdW  Elec       q    Type
REMARK                         _______ _______ _______ _____ _____    ______ ____
ROOT
ATOM      1  C   UNL     1       2.240   7.892  18.803  0.00  0.00    +0.000 A 
ATOM      2  C   UNL     1       3.034   7.728  17.666  0.00  0.00    +0.000 A 
ATOM      3  C   UNL     1       3.876   6.620  17.526  0.00  0.00    +0.000 A 
ATOM      4  C   UNL     1       3.951   5.668  18.544  0.00  0.00    +0.000 A 
ATOM      5  C   UNL     1       3.179   5.826  19.698  0.00  0.00    +0.000 A 
ATOM      6  C   UNL     1       2.340   6.941  19.831  0.00  0.00    +0.000 A 
ENDROOT
BRANCH   1   9
ATOM      7  O   UNL     1       2.333  10.608  17.683  0.00  0.00    +0.000 OA
ATOM      8  C   UNL     1       1.447  10.236  18.447  0.00  0.00    +0.000 C 
ATOM      9  N   UNL     1       1.329   8.957  18.975  0.00  0.00    +0.000 N 
ATOM     10  H   UNL     1       0.452   8.733  19.429  0.00  0.00    +0.000 HD
BRANCH   8  11
ATOM     11  C   UNL     1       0.311  11.180  18.865  0.00  0.00    +0.000 C 
ATOM     12  C   UNL     1       0.140  11.163  20.398  0.00  0.00    +0.000 C 
ATOM     13  C   UNL     1      -1.132  11.811  20.866  0.00  0.00    +0.000 C 
ATOM     14  C   UNL     1      -2.157  12.082  20.049  0.00  0.00    +0.000 C 
ATOM     15  C   UNL     1      -2.151  11.745  18.588  0.00  0.00    +0.000 C 
ATOM     16  C   UNL     1      -1.011  10.807  18.179  0.00  0.00    +0.000 C 
ENDBRANCH   8  11
ENDBRANCH   1   9
BRANCH   4  17
ATOM     17  S   UNL     1       4.880   4.164  18.283  0.00  0.00    +0.000 S 
ATOM     18  O   UNL     1       5.525   4.282  16.990  0.00  0.00    +0.000 OA
ATOM     19  O   UNL     1       5.657   3.924  19.482  0.00  0.00    +0.000 OA
BRANCH  17  20
ATOM     20  N   UNL     1       3.715   2.951  18.171  0.00  0.00    +0.000 NA
ATOM     21  C   UNL     1       2.543   3.138  17.306  0.00  0.00    +0.000 C 
ATOM     22  C   UNL     1       1.377   3.177  18.275  0.00  0.00    +0.000 C 
ATOM     23  C   UNL     1       1.784   2.230  19.388  0.00  0.00    +0.000 C 
ATOM     24  C   UNL     1       3.309   2.221  19.387  0.00  0.00    +0.000 C 
ENDBRANCH  17  20
ENDBRANCH   4  17
TORSDOF 4
ENDMDL
MODEL 8
REMARK VINA RESULT:      -7.7      5.223      7.026
REMARK  Name = 
REMARK  4 active torsions:
REMARK  status: ('A' for Active; 'I' for Inactive)
REMARK    1  A    between atoms: C_2  and  C_18
REMARK    2  A    between atoms: N_3  and  C_4
REMARK    3  A    between atoms: C_7  and  S_8
REMARK    4  A    between atoms: S_8  and  N_11
REMARK                            x       y       z     vdW  Elec       q    Type
REMARK                         _______ _______ _______ _____ _____    ______ ____
ROOT
ATOM      1  C   UNL     1       2.181   7.825  19.031  0.00  0.00    +0.000 A 
ATOM      2  C   UNL     1       2.980   7.800  17.885  0.00  0.00    +0.000 A 
ATOM      3  C   UNL     1       3.863   6.743  17.643  0.00  0.00    +0.000 A 
ATOM      4  C   UNL     1       3.975   5.703  18.568  0.00  0.00    +0.000 A 
ATOM      5  C   UNL     1       3.198   5.721  19.729  0.00  0.00    +0.000 A 
ATOM      6  C   UNL     1       2.317   6.786  19.965  0.00  0.00    +0.000 A 
ENDROOT
BRANCH   1   9
ATOM      7  O   UNL     1       1.402   8.993  21.614  0.00  0.00    +0.000 OA
ATOM      8  C   UNL     1       0.877   9.320  20.553  0.00  0.00    +0.000 C 
ATOM      9  N   UNL     1       1.230   8.834  19.301  0.00  0.00    +0.000 N 
ATOM     10  H   UNL     1       0.856   9.329  18.500  0.00  0.00    +0.000 HD
BRANCH   8  11
ATOM     11  C   UNL     1      -0.230  10.382  20.510  0.00  0.00    +0.000 C 
ATOM     12  C   UNL     1      -0.948  10.349  19.145  0.00  0.00    +0.000 C 
ATOM     13  C   UNL     1      -1.828  11.541  18.901  0.00  0.00    +0.000 C 
ATOM     14  C   UNL     1      -1.754  12.663  19.627  0.00  0.00    +0.000 C 
ATOM     15  C   UNL     1      -0.771  12.854  20.742  0.00  0.00    +0.000 C 
ATOM     16  C   UNL     1       0.327  11.787  20.782  0.00  0.00    +0.000 C 
ENDBRANCH   8  11
ENDBRANCH   1   9
BRANCH   4  17
ATOM     17  S   UNL     1       4.960   4.266  18.167  0.00  0.00    +0.000 S 
ATOM     18  O   UNL     1       5.594   4.528  16.890  0.00  0.00    +0.000 OA
ATOM     19  O   UNL     1       5.752   3.947  19.339  0.00  0.00    +0.000 OA
BRANCH  17  20
ATOM     20  N   UNL     1       3.843   3.024  17.946  0.00  0.00    +0.000 NA
ATOM     21  C   UNL     1       2.618   3.270  17.173  0.00  0.00    +0.000 C 
ATOM     22  C   UNL     1       1.506   3.119  18.194  0.00  0.00    +0.000 C 
ATOM     23  C   UNL     1       2.013   2.050  19.144  0.00  0.00    +0.000 C 
ATOM     24  C   UNL     1       3.535   2.117  19.067  0.00  0.00    +0.000 C 
ENDBRANCH  17  20
ENDBRANCH   4  17
TORSDOF 4
ENDMDL
MODEL 9
REMARK VINA RESULT:      -7.7      5.346      7.163
REMARK  Name = 
REMARK  4 active torsions:
REMARK  status: ('A' for Active; 'I' for Inactive)
REMARK    1  A    between atoms: C_2  and  C_18
REMARK    2  A    between atoms: N_3  and  C_4
REMARK    3  A    between atoms: C_7  and  S_8
REMARK    4  A    between atoms: S_8  and  N_11
REMARK                            x       y       z     vdW  Elec       q    Type
REMARK                         _______ _______ _______ _____ _____    ______ ____
ROOT
ATOM      1  C   UNL     1       1.997   7.761  19.508  0.00  0.00    +0.000 A 
ATOM      2  C   UNL     1       2.674   7.843  18.288  0.00  0.00    +0.000 A 
ATOM      3  C   UNL     1       3.536   6.824  17.870  0.00  0.00    +0.000 A 
ATOM      4  C   UNL     1       3.752   5.714  18.689  0.00  0.00    +0.000 A 
ATOM      5  C   UNL     1       3.099   5.624  19.921  0.00  0.00    +0.000 A 
ATOM      6  C   UNL     1       2.238   6.651  20.333  0.00  0.00    +0.000 A 
ENDROOT
BRANCH   1   9
ATOM      7  O   UNL     1       1.704   8.944  22.183  0.00  0.00    +0.000 OA
ATOM      8  C   UNL     1       0.957   9.223  21.249  0.00  0.00    +0.000 C 
ATOM      9  N   UNL     1       1.071   8.728  19.956  0.00  0.00    +0.000 N 
ATOM     10  H   UNL     1       0.516   9.187  19.245  0.00  0.00    +0.000 HD
BRANCH   8  11
ATOM     11  C   UNL     1      -0.188  10.229  21.423  0.00  0.00    +0.000 C 
ATOM     12  C   UNL     1       0.213  11.600  20.839  0.00  0.00    +0.000 C 
ATOM     13  C   UNL     1      -0.714  12.714  21.233  0.00  0.00    +0.000 C 
ATOM     14  C   UNL     1      -1.595  12.610  22.235  0.00  0.00    +0.000 C 
ATOM     15  C   UNL     1      -1.733  11.380  23.080  0.00  0.00    +0.000 C 
ATOM     16  C   UNL     1      -0.588  10.378  22.898  0.00  0.00    +0.000 C 
ENDBRANCH   8  11
ENDBRANCH   1   9
BRANCH   4  17
ATOM     17  S   UNL     1       4.702   4.332  18.072  0.00  0.00    +0.000 S 
ATOM     18  O   UNL     1       5.157   4.688  16.742  0.00  0.00    +0.000 OA
ATOM     19  O   UNL     1       5.647   3.963  19.107  0.00  0.00    +0.000 OA
BRANCH  17  20
ATOM     20  N   UNL     1       3.589   3.075  17.919  0.00  0.00    +0.000 NA
ATOM     21  C   UNL     1       2.306   3.312  17.245  0.00  0.00    +0.000 C 
ATOM     22  C   UNL     1       1.277   3.133  18.345  0.00  0.00    +0.000 C 
ATOM     23  C   UNL     1       1.869   2.060  19.240  0.00  0.00    +0.000 C 
ATOM     24  C   UNL     1       3.380   2.150  19.049  0.00  0.00    +0.000 C 
ENDBRANCH  17  20
ENDBRANCH   4  17
TORSDOF 4
ENDMDL
