MODEL 1
REMARK VINA RESULT:      -9.5      0.000      0.000
REMARK  Name = 
REMARK  4 active torsions:
REMARK  status: ('A' for Active; 'I' for Inactive)
REMARK    1  A    between atoms: C_1  and  C_2
REMARK    2  A    between atoms: C_7  and  C_8
REMARK    3  A    between atoms: C_10  and  C_11
REMARK    4  A    between atoms: N_13  and  C_14
REMARK                            x       y       z     vdW  Elec       q    Type
REMARK                         _______ _______ _______ _____ _____    ______ ____
ROOT
ATOM      1  C   UNL     1       4.470   5.142  17.322  0.00  0.00    +0.000 A 
ATOM      2  C   UNL     1       3.644   6.243  17.453  0.00  0.00    +0.000 A 
ATOM      3  C   UNL     1       2.718   6.302  18.508  0.00  0.00    +0.000 A 
ATOM      4  C   UNL     1       2.609   5.224  19.424  0.00  0.00    +0.000 A 
ATOM      5  C   UNL     1       1.684   5.091  20.495  0.00  0.00    +0.000 A 
ATOM      6  C   UNL     1       1.676   3.960  21.316  0.00  0.00    +0.000 A 
ATOM      7  C   UNL     1       2.563   2.923  21.069  0.00  0.00    +0.000 A 
ATOM      8  C   UNL     1       3.460   3.033  20.011  0.00  0.00    +0.000 A 
ATOM      9  C   UNL     1       3.505   4.156  19.201  0.00  0.00    +0.000 A 
ATOM     10  N   UNL     1       4.407   4.135  18.214  0.00  0.00    +0.000 NA
ENDROOT
BRANCH   1  17
ATOM     11  C   UNL     1       7.284   6.316  17.423  0.00  0.00    +0.000 C 
ATOM     12  C   UNL     1       6.760   5.526  16.249  0.00  0.00    +0.000 A 
ATOM     13  C   UNL     1       7.634   5.323  15.163  0.00  0.00    +0.000 A 
ATOM     14  C   UNL     1       7.239   4.592  14.048  0.00  0.00    +0.000 A 
ATOM     15  C   UNL     1       5.957   4.062  13.990  0.00  0.00    +0.000 A 
ATOM     16  C   UNL     1       5.074   4.266  15.053  0.00  0.00    +0.000 A 
ATOM     17  C   UNL     1       5.444   4.990  16.211  0.00  0.00    +0.000 A 
ENDBRANCH   1  17
BRANCH   3  18
ATOM     18  C   UNL     1       1.853   7.516  18.481  0.00  0.00    +0.000 C 
ATOM     19  O   UNL     1       1.205   7.706  17.455  0.00  0.00    +0.000 OA
ATOM     20  N   UNL     1       1.941   8.375  19.560  0.00  0.00    +0.000 N 
ATOM     21  H   UNL     1       2.657   8.166  20.238  0.00  0.00    +0.000 HD
BRANCH  20  22
ATOM     22  C   UNL     1       1.287   9.639  19.691  0.00  0.00    +0.000 A 
ATOM     23  C   UNL     1       1.428  10.634  18.712  0.00  0.00    +0.000 A 
ATOM     24  C   UNL     1       0.877  11.900  18.879  0.00  0.00    +0.000 A 
ATOM     25  C   UNL     1       0.164  12.196  20.032  0.00  0.00    +0.000 A 
ATOM     26  C   UNL     1      -0.038  11.221  21.015  0.00  0.00    +0.000 A 
ATOM     27  C   UNL     1      -0.773  11.553  22.165  0.00  0.00    +0.000 A 
ATOM     28  C   UNL     1      -1.015  10.611  23.160  0.00  0.00    +0.000 A 
ATOM     29  C   UNL     1      -0.530   9.319  23.013  0.00  0.00    +0.000 A 
ATOM     30  C   UNL     1       0.217   8.977  21.882  0.00  0.00    +0.000 A 
ATOM     31  C   UNL     1       0.499   9.913  20.854  0.00  0.00    +0.000 A 
ENDBRANCH  20  22
ENDBRANCH   3  18
TORSDOF 3
ENDMDL
MODEL 2
REMARK VINA RESULT:      -9.3      2.034      8.032
REMARK  Name = 
REMARK  4 active torsions:
REMARK  status: ('A' for Active; 'I' for Inactive)
REMARK    1  A    between atoms: C_1  and  C_2
REMARK    2  A    between atoms: C_7  and  C_8
REMARK    3  A    between atoms: C_10  and  C_11
REMARK    4  A    between atoms: N_13  and  C_14
REMARK                            x       y       z     vdW  Elec       q    Type
REMARK                         _______ _______ _______ _____ _____    ______ ____
ROOT
ATOM      1  C   UNL     1       1.366  12.360  19.416  0.00  0.00    +0.000 A 
ATOM      2  C   UNL     1       1.656  11.186  18.745  0.00  0.00    +0.000 A 
ATOM      3  C   UNL     1       1.250   9.954  19.283  0.00  0.00    +0.000 A 
ATOM      4  C   UNL     1       0.565   9.907  20.525  0.00  0.00    +0.000 A 
ATOM      5  C   UNL     1       0.149   8.751  21.239  0.00  0.00    +0.000 A 
ATOM      6  C   UNL     1      -0.506   8.849  22.469  0.00  0.00    +0.000 A 
ATOM      7  C   UNL     1      -0.732  10.096  23.031  0.00  0.00    +0.000 A 
ATOM      8  C   UNL     1      -0.313  11.235  22.351  0.00  0.00    +0.000 A 
ATOM      9  C   UNL     1       0.314  11.164  21.118  0.00  0.00    +0.000 A 
ATOM     10  N   UNL     1       0.675  12.330  20.572  0.00  0.00    +0.000 NA
ENDROOT
BRANCH   1  17
ATOM     11  C   UNL     1      -0.485  14.785  19.395  0.00  0.00    +0.000 C 
ATOM     12  C   UNL     1       0.948  14.834  18.923  0.00  0.00    +0.000 A 
ATOM     13  C   UNL     1       1.436  16.075  18.466  0.00  0.00    +0.000 A 
ATOM     14  C   UNL     1       2.750  16.215  18.030  0.00  0.00    +0.000 A 
ATOM     15  C   UNL     1       3.595  15.114  18.028  0.00  0.00    +0.000 A 
ATOM     16  C   UNL     1       3.122  13.875  18.466  0.00  0.00    +0.000 A 
ATOM     17  C   UNL     1       1.798  13.696  18.932  0.00  0.00    +0.000 A 
ENDBRANCH   1  17
BRANCH   3  18
ATOM     18  C   UNL     1       1.691   8.775  18.484  0.00  0.00    +0.000 C 
ATOM     19  O   UNL     1       1.192   8.650  17.369  0.00  0.00    +0.000 OA
ATOM     20  N   UNL     1       2.531   7.872  19.107  0.00  0.00    +0.000 N 
ATOM     21  H   UNL     1       2.703   8.027  20.088  0.00  0.00    +0.000 HD
BRANCH  20  22
ATOM     22  C   UNL     1       2.987   6.630  18.568  0.00  0.00    +0.000 A 
ATOM     23  C   UNL     1       3.955   6.590  17.553  0.00  0.00    +0.000 A 
ATOM     24  C   UNL     1       4.331   5.392  16.954  0.00  0.00    +0.000 A 
ATOM     25  C   UNL     1       3.749   4.201  17.366  0.00  0.00    +0.000 A 
ATOM     26  C   UNL     1       2.812   4.189  18.405  0.00  0.00    +0.000 A 
ATOM     27  C   UNL     1       2.251   2.965  18.804  0.00  0.00    +0.000 A 
ATOM     28  C   UNL     1       1.329   2.901  19.844  0.00  0.00    +0.000 A 
ATOM     29  C   UNL     1       0.962   4.064  20.506  0.00  0.00    +0.000 A 
ATOM     30  C   UNL     1       1.500   5.293  20.112  0.00  0.00    +0.000 A 
ATOM     31  C   UNL     1       2.429   5.401  19.045  0.00  0.00    +0.000 A 
ENDBRANCH  20  22
ENDBRANCH   3  18
TORSDOF 3
ENDMDL
MODEL 3
REMARK VINA RESULT:      -9.1      2.116      8.194
REMARK  Name = 
REMARK  4 active torsions:
REMARK  status: ('A' for Active; 'I' for Inactive)
REMARK    1  A    between atoms: C_1  and  C_2
REMARK    2  A    between atoms: C_7  and  C_8
REMARK    3  A    between atoms: C_10  and  C_11
REMARK    4  A    between atoms: N_13  and  C_14
REMARK                            x       y       z     vdW  Elec       q    Type
REMARK                         _______ _______ _______ _____ _____    ______ ____
ROOT
ATOM      1  C   UNL     1       0.670  12.684  19.599  0.00  0.00    +0.000 A 
ATOM      2  C   UNL     1       1.156  11.595  18.899  0.00  0.00    +0.000 A 
ATOM      3  C   UNL     1       1.003  10.301  19.423  0.00  0.00    +0.000 A 
ATOM      4  C   UNL     1       0.374  10.108  20.681  0.00  0.00    +0.000 A 
ATOM      5  C   UNL     1       0.203   8.884  21.382  0.00  0.00    +0.000 A 
ATOM      6  C   UNL     1      -0.423   8.840  22.630  0.00  0.00    +0.000 A 
ATOM      7  C   UNL     1      -0.863  10.015  23.222  0.00  0.00    +0.000 A 
ATOM      8  C   UNL     1      -0.684  11.222  22.553  0.00  0.00    +0.000 A 
ATOM      9  C   UNL     1      -0.090  11.287  21.304  0.00  0.00    +0.000 A 
ATOM     10  N   UNL     1       0.031  12.508  20.771  0.00  0.00    +0.000 NA
ENDROOT
BRANCH   1  17
ATOM     11  C   UNL     1       3.388  13.902  18.938  0.00  0.00    +0.000 C 
ATOM     12  C   UNL     1       2.090  14.661  18.813  0.00  0.00    +0.000 A 
ATOM     13  C   UNL     1       2.159  15.992  18.356  0.00  0.00    +0.000 A 
ATOM     14  C   UNL     1       1.010  16.758  18.193  0.00  0.00    +0.000 A 
ATOM     15  C   UNL     1      -0.229  16.214  18.500  0.00  0.00    +0.000 A 
ATOM     16  C   UNL     1      -0.313  14.901  18.967  0.00  0.00    +0.000 A 
ATOM     17  C   UNL     1       0.830  14.084  19.130  0.00  0.00    +0.000 A 
ENDBRANCH   1  17
BRANCH   3  18
ATOM     18  C   UNL     1       1.634   9.237  18.589  0.00  0.00    +0.000 C 
ATOM     19  O   UNL     1       1.472   9.323  17.376  0.00  0.00    +0.000 OA
ATOM     20  N   UNL     1       2.245   8.194  19.259  0.00  0.00    +0.000 N 
ATOM     21  H   UNL     1       2.132   8.181  20.261  0.00  0.00    +0.000 HD
BRANCH  20  22
ATOM     22  C   UNL     1       2.815   7.026  18.666  0.00  0.00    +0.000 A 
ATOM     23  C   UNL     1       3.773   7.124  17.645  0.00  0.00    +0.000 A 
ATOM     24  C   UNL     1       4.258   5.994  16.994  0.00  0.00    +0.000 A 
ATOM     25  C   UNL     1       3.799   4.736  17.358  0.00  0.00    +0.000 A 
ATOM     26  C   UNL     1       2.876   4.589  18.400  0.00  0.00    +0.000 A 
ATOM     27  C   UNL     1       2.441   3.300  18.749  0.00  0.00    +0.000 A 
ATOM     28  C   UNL     1       1.538   3.103  19.790  0.00  0.00    +0.000 A 
ATOM     29  C   UNL     1       1.067   4.196  20.503  0.00  0.00    +0.000 A 
ATOM     30  C   UNL     1       1.479   5.487  20.159  0.00  0.00    +0.000 A 
ATOM     31  C   UNL     1       2.384   5.730  19.093  0.00  0.00    +0.000 A 
ENDBRANCH  20  22
ENDBRANCH   3  18
TORSDOF 3
ENDMDL
MODEL 4
REMARK VINA RESULT:      -9.1      1.463      2.151
REMARK  Name = 
REMARK  4 active torsions:
REMARK  status: ('A' for Active; 'I' for Inactive)
REMARK    1  A    between atoms: C_1  and  C_2
REMARK    2  A    between atoms: C_7  and  C_8
REMARK    3  A    between atoms: C_10  and  C_11
REMARK    4  A    between atoms: N_13  and  C_14
REMARK                            x       y       z     vdW  Elec       q    Type
REMARK                         _______ _______ _______ _____ _____    ______ ____
ROOT
ATOM      1  C   UNL     1       4.429   5.517  17.167  0.00  0.00    +0.000 A 
ATOM      2  C   UNL     1       3.799   6.739  17.316  0.00  0.00    +0.000 A 
ATOM      3  C   UNL     1       2.892   6.935  18.369  0.00  0.00    +0.000 A 
ATOM      4  C   UNL     1       2.598   5.876  19.268  0.00  0.00    +0.000 A 
ATOM      5  C   UNL     1       1.660   5.884  20.335  0.00  0.00    +0.000 A 
ATOM      6  C   UNL     1       1.457   4.758  21.136  0.00  0.00    +0.000 A 
ATOM      7  C   UNL     1       2.158   3.590  20.873  0.00  0.00    +0.000 A 
ATOM      8  C   UNL     1       3.066   3.564  19.819  0.00  0.00    +0.000 A 
ATOM      9  C   UNL     1       3.303   4.677  19.028  0.00  0.00    +0.000 A 
ATOM     10  N   UNL     1       4.193   4.520  18.042  0.00  0.00    +0.000 NA
ENDROOT
BRANCH   1  17
ATOM     11  C   UNL     1       7.332   6.451  17.167  0.00  0.00    +0.000 C 
ATOM     12  C   UNL     1       6.724   5.644  16.047  0.00  0.00    +0.000 A 
ATOM     13  C   UNL     1       7.560   5.308  14.964  0.00  0.00    +0.000 A 
ATOM     14  C   UNL     1       7.087   4.551  13.897  0.00  0.00    +0.000 A 
ATOM     15  C   UNL     1       5.765   4.130  13.886  0.00  0.00    +0.000 A 
ATOM     16  C   UNL     1       4.920   4.466  14.945  0.00  0.00    +0.000 A 
ATOM     17  C   UNL     1       5.368   5.220  16.056  0.00  0.00    +0.000 A 
ENDBRANCH   1  17
BRANCH   3  18
ATOM     18  C   UNL     1       2.244   8.279  18.361  0.00  0.00    +0.000 C 
ATOM     19  O   UNL     1       2.603   9.056  17.481  0.00  0.00    +0.000 OA
ATOM     20  N   UNL     1       1.385   8.569  19.405  0.00  0.00    +0.000 N 
ATOM     21  H   UNL     1       1.338   7.887  20.146  0.00  0.00    +0.000 HD
BRANCH  20  22
ATOM     22  C   UNL     1       0.745   9.822  19.650  0.00  0.00    +0.000 A 
ATOM     23  C   UNL     1       1.164  10.659  20.696  0.00  0.00    +0.000 A 
ATOM     24  C   UNL     1       0.484  11.833  21.003  0.00  0.00    +0.000 A 
ATOM     25  C   UNL     1      -0.631  12.199  20.263  0.00  0.00    +0.000 A 
ATOM     26  C   UNL     1      -1.059  11.417  19.184  0.00  0.00    +0.000 A 
ATOM     27  C   UNL     1      -2.185  11.823  18.450  0.00  0.00    +0.000 A 
ATOM     28  C   UNL     1      -2.635  11.088  17.358  0.00  0.00    +0.000 A 
ATOM     29  C   UNL     1      -1.957   9.937  16.981  0.00  0.00    +0.000 A 
ATOM     30  C   UNL     1      -0.843   9.511  17.710  0.00  0.00    +0.000 A 
ATOM     31  C   UNL     1      -0.364  10.224  18.839  0.00  0.00    +0.000 A 
ENDBRANCH  20  22
ENDBRANCH   3  18
TORSDOF 3
ENDMDL
MODEL 5
REMARK VINA RESULT:      -8.7      2.030      2.136
REMARK  Name = 
REMARK  4 active torsions:
REMARK  status: ('A' for Active; 'I' for Inactive)
REMARK    1  A    between atoms: C_1  and  C_2
REMARK    2  A    between atoms: C_7  and  C_8
REMARK    3  A    between atoms: C_10  and  C_11
REMARK    4  A    between atoms: N_13  and  C_14
REMARK                            x       y       z     vdW  Elec       q    Type
REMARK                         _______ _______ _______ _____ _____    ______ ____
ROOT
ATOM      1  C   UNL     1       4.188   5.255  17.250  0.00  0.00    +0.000 A 
ATOM      2  C   UNL     1       3.729   6.473  17.718  0.00  0.00    +0.000 A 
ATOM      3  C   UNL     1       2.740   6.512  18.714  0.00  0.00    +0.000 A 
ATOM      4  C   UNL     1       2.191   5.307  19.225  0.00  0.00    +0.000 A 
ATOM      5  C   UNL     1       1.144   5.170  20.175  0.00  0.00    +0.000 A 
ATOM      6  C   UNL     1       0.686   3.914  20.581  0.00  0.00    +0.000 A 
ATOM      7  C   UNL     1       1.237   2.768  20.026  0.00  0.00    +0.000 A 
ATOM      8  C   UNL     1       2.250   2.890  19.080  0.00  0.00    +0.000 A 
ATOM      9  C   UNL     1       2.739   4.124  18.683  0.00  0.00    +0.000 A 
ATOM     10  N   UNL     1       3.708   4.105  17.762  0.00  0.00    +0.000 NA
ENDROOT
BRANCH   1  17
ATOM     11  C   UNL     1       7.018   6.363  17.509  0.00  0.00    +0.000 C 
ATOM     12  C   UNL     1       6.523   5.638  16.281  0.00  0.00    +0.000 A 
ATOM     13  C   UNL     1       7.434   5.467  15.220  0.00  0.00    +0.000 A 
ATOM     14  C   UNL     1       7.068   4.795  14.058  0.00  0.00    +0.000 A 
ATOM     15  C   UNL     1       5.779   4.296  13.929  0.00  0.00    +0.000 A 
ATOM     16  C   UNL     1       4.861   4.470  14.967  0.00  0.00    +0.000 A 
ATOM     17  C   UNL     1       5.200   5.133  16.170  0.00  0.00    +0.000 A 
ENDBRANCH   1  17
BRANCH   3  18
ATOM     18  C   UNL     1       2.299   7.892  19.069  0.00  0.00    +0.000 C 
ATOM     19  O   UNL     1       2.026   8.094  20.248  0.00  0.00    +0.000 OA
ATOM     20  N   UNL     1       2.131   8.785  18.027  0.00  0.00    +0.000 N 
ATOM     21  H   UNL     1       2.223   8.407  17.097  0.00  0.00    +0.000 HD
BRANCH  20  22
ATOM     22  C   UNL     1       1.618  10.115  18.128  0.00  0.00    +0.000 A 
ATOM     23  C   UNL     1       2.475  11.212  18.304  0.00  0.00    +0.000 A 
ATOM     24  C   UNL     1       1.979  12.497  18.503  0.00  0.00    +0.000 A 
ATOM     25  C   UNL     1       0.608  12.712  18.521  0.00  0.00    +0.000 A 
ATOM     26  C   UNL     1      -0.282  11.655  18.306  0.00  0.00    +0.000 A 
ATOM     27  C   UNL     1      -1.663  11.911  18.320  0.00  0.00    +0.000 A 
ATOM     28  C   UNL     1      -2.586  10.894  18.092  0.00  0.00    +0.000 A 
ATOM     29  C   UNL     1      -2.136   9.606  17.838  0.00  0.00    +0.000 A 
ATOM     30  C   UNL     1      -0.766   9.331  17.835  0.00  0.00    +0.000 A 
ATOM     31  C   UNL     1       0.205  10.337  18.079  0.00  0.00    +0.000 A 
ENDBRANCH  20  22
ENDBRANCH   3  18
TORSDOF 3
ENDMDL
MODEL 6
REMARK VINA RESULT:      -8.6      2.066      8.290
REMARK  Name = 
REMARK  4 active torsions:
REMARK  status: ('A' for Active; 'I' for Inactive)
REMARK    1  A    between atoms: C_1  and  C_2
REMARK    2  A    between atoms: C_7  and  C_8
REMARK    3  A    between atoms: C_10  and  C_11
REMARK    4  A    between atoms: N_13  and  C_14
REMARK                            x       y       z     vdW  Elec       q    Type
REMARK                         _______ _______ _______ _____ _____    ______ ____
ROOT
ATOM      1  C   UNL     1       1.519  12.270  19.316  0.00  0.00    +0.000 A 
ATOM      2  C   UNL     1       1.765  11.108  18.607  0.00  0.00    +0.000 A 
ATOM      3  C   UNL     1       1.339   9.872  19.118  0.00  0.00    +0.000 A 
ATOM      4  C   UNL     1       0.679   9.806  20.373  0.00  0.00    +0.000 A 
ATOM      5  C   UNL     1       0.250   8.640  21.062  0.00  0.00    +0.000 A 
ATOM      6  C   UNL     1      -0.377   8.718  22.309  0.00  0.00    +0.000 A 
ATOM      7  C   UNL     1      -0.559   9.954  22.911  0.00  0.00    +0.000 A 
ATOM      8  C   UNL     1      -0.126  11.102  22.254  0.00  0.00    +0.000 A 
ATOM      9  C   UNL     1       0.473  11.050  21.006  0.00  0.00    +0.000 A 
ATOM     10  N   UNL     1       0.852  12.223  20.486  0.00  0.00    +0.000 NA
ENDROOT
BRANCH   1  17
ATOM     11  C   UNL     1      -0.316  14.706  19.262  0.00  0.00    +0.000 C 
ATOM     12  C   UNL     1       1.132  14.751  18.838  0.00  0.00    +0.000 A 
ATOM     13  C   UNL     1       1.642  15.993  18.410  0.00  0.00    +0.000 A 
ATOM     14  C   UNL     1       2.969  16.130  18.018  0.00  0.00    +0.000 A 
ATOM     15  C   UNL     1       3.808  15.024  18.031  0.00  0.00    +0.000 A 
ATOM     16  C   UNL     1       3.314  13.783  18.440  0.00  0.00    +0.000 A 
ATOM     17  C   UNL     1       1.975  13.608  18.861  0.00  0.00    +0.000 A 
ENDBRANCH   1  17
BRANCH   3  18
ATOM     18  C   UNL     1       1.734   8.706  18.276  0.00  0.00    +0.000 C 
ATOM     19  O   UNL     1       1.466   8.777  17.080  0.00  0.00    +0.000 OA
ATOM     20  N   UNL     1       2.260   7.608  18.930  0.00  0.00    +0.000 N 
ATOM     21  H   UNL     1       2.246   7.640  19.937  0.00  0.00    +0.000 HD
BRANCH  20  22
ATOM     22  C   UNL     1       2.603   6.354  18.336  0.00  0.00    +0.000 A 
ATOM     23  C   UNL     1       1.709   5.272  18.358  0.00  0.00    +0.000 A 
ATOM     24  C   UNL     1       2.073   4.021  17.871  0.00  0.00    +0.000 A 
ATOM     25  C   UNL     1       3.342   3.826  17.344  0.00  0.00    +0.000 A 
ATOM     26  C   UNL     1       4.250   4.888  17.263  0.00  0.00    +0.000 A 
ATOM     27  C   UNL     1       5.521   4.658  16.713  0.00  0.00    +0.000 A 
ATOM     28  C   UNL     1       6.451   5.687  16.595  0.00  0.00    +0.000 A 
ATOM     29  C   UNL     1       6.114   6.965  17.019  0.00  0.00    +0.000 A 
ATOM     30  C   UNL     1       4.858   7.208  17.581  0.00  0.00    +0.000 A 
ATOM     31  C   UNL     1       3.890   6.181  17.735  0.00  0.00    +0.000 A 
ENDBRANCH  20  22
ENDBRANCH   3  18
TORSDOF 3
ENDMDL
MODEL 7
REMARK VINA RESULT:      -8.4      2.635      9.125
REMARK  Name = 
REMARK  4 active torsions:
REMARK  status: ('A' for Active; 'I' for Inactive)
REMARK    1  A    between atoms: C_1  and  C_2
REMARK    2  A    between atoms: C_7  and  C_8
REMARK    3  A    between atoms: C_10  and  C_11
REMARK    4  A    between atoms: N_13  and  C_14
REMARK                            x       y       z     vdW  Elec       q    Type
REMARK                         _______ _______ _______ _____ _____    ______ ____
ROOT
ATOM      1  C   UNL     1      -0.942  12.425  20.242  0.00  0.00    +0.000 A 
ATOM      2  C   UNL     1       0.167  11.698  19.848  0.00  0.00    +0.000 A 
ATOM      3  C   UNL     1       0.076  10.817  18.759  0.00  0.00    +0.000 A 
ATOM      4  C   UNL     1      -1.157  10.648  18.076  0.00  0.00    +0.000 A 
ATOM      5  C   UNL     1      -1.437   9.753  17.009  0.00  0.00    +0.000 A 
ATOM      6  C   UNL     1      -2.709   9.677  16.435  0.00  0.00    +0.000 A 
ATOM      7  C   UNL     1      -3.736  10.465  16.932  0.00  0.00    +0.000 A 
ATOM      8  C   UNL     1      -3.479  11.332  17.989  0.00  0.00    +0.000 A 
ATOM      9  C   UNL     1      -2.220  11.444  18.555  0.00  0.00    +0.000 A 
ATOM     10  N   UNL     1      -2.104  12.307  19.570  0.00  0.00    +0.000 NA
ENDROOT
BRANCH   1  17
ATOM     11  C   UNL     1      -1.778  11.546  23.041  0.00  0.00    +0.000 C 
ATOM     12  C   UNL     1      -1.316  12.946  22.717  0.00  0.00    +0.000 A 
ATOM     13  C   UNL     1      -1.265  13.872  23.778  0.00  0.00    +0.000 A 
ATOM     14  C   UNL     1      -0.834  15.178  23.572  0.00  0.00    +0.000 A 
ATOM     15  C   UNL     1      -0.461  15.588  22.300  0.00  0.00    +0.000 A 
ATOM     16  C   UNL     1      -0.519  14.685  21.236  0.00  0.00    +0.000 A 
ATOM     17  C   UNL     1      -0.936  13.344  21.407  0.00  0.00    +0.000 A 
ENDBRANCH   1  17
BRANCH   3  18
ATOM     18  C   UNL     1       1.332  10.056  18.496  0.00  0.00    +0.000 C 
ATOM     19  O   UNL     1       2.233  10.666  17.928  0.00  0.00    +0.000 OA
ATOM     20  N   UNL     1       1.329   8.711  18.811  0.00  0.00    +0.000 N 
ATOM     21  H   UNL     1       0.446   8.323  19.103  0.00  0.00    +0.000 HD
BRANCH  20  22
ATOM     22  C   UNL     1       2.379   7.778  18.546  0.00  0.00    +0.000 A 
ATOM     23  C   UNL     1       3.323   8.016  17.535  0.00  0.00    +0.000 A 
ATOM     24  C   UNL     1       4.287   7.068  17.204  0.00  0.00    +0.000 A 
ATOM     25  C   UNL     1       4.331   5.861  17.887  0.00  0.00    +0.000 A 
ATOM     26  C   UNL     1       3.437   5.599  18.931  0.00  0.00    +0.000 A 
ATOM     27  C   UNL     1       3.517   4.371  19.607  0.00  0.00    +0.000 A 
ATOM     28  C   UNL     1       2.661   4.075  20.664  0.00  0.00    +0.000 A 
ATOM     29  C   UNL     1       1.718   5.010  21.063  0.00  0.00    +0.000 A 
ATOM     30  C   UNL     1       1.615   6.232  20.392  0.00  0.00    +0.000 A 
ATOM     31  C   UNL     1       2.457   6.564  19.299  0.00  0.00    +0.000 A 
ENDBRANCH  20  22
ENDBRANCH   3  18
TORSDOF 3
ENDMDL
MODEL 8
REMARK VINA RESULT:      -8.3      2.210      7.834
REMARK  Name = 
REMARK  4 active torsions:
REMARK  status: ('A' for Active; 'I' for Inactive)
REMARK    1  A    between atoms: C_1  and  C_2
REMARK    2  A    between atoms: C_7  and  C_8
REMARK    3  A    between atoms: C_10  and  C_11
REMARK    4  A    between atoms: N_13  and  C_14
REMARK                            x       y       z     vdW  Elec       q    Type
REMARK                         _______ _______ _______ _____ _____    ______ ____
ROOT
ATOM      1  C   UNL     1       1.813  12.319  19.613  0.00  0.00    +0.000 A 
ATOM      2  C   UNL     1       2.023  11.148  18.908  0.00  0.00    +0.000 A 
ATOM      3  C   UNL     1       1.439   9.950  19.349  0.00  0.00    +0.000 A 
ATOM      4  C   UNL     1       0.654   9.930  20.532  0.00  0.00    +0.000 A 
ATOM      5  C   UNL     1       0.055   8.800  21.151  0.00  0.00    +0.000 A 
ATOM      6  C   UNL     1      -0.683   8.922  22.332  0.00  0.00    +0.000 A 
ATOM      7  C   UNL     1      -0.814  10.162  22.938  0.00  0.00    +0.000 A 
ATOM      8  C   UNL     1      -0.216  11.273  22.350  0.00  0.00    +0.000 A 
ATOM      9  C   UNL     1       0.498  11.181  21.167  0.00  0.00    +0.000 A 
ATOM     10  N   UNL     1       1.031  12.320  20.710  0.00  0.00    +0.000 NA
ENDROOT
BRANCH   1  17
ATOM     11  C   UNL     1       3.583  13.924  21.509  0.00  0.00    +0.000 C 
ATOM     12  C   UNL     1       3.261  14.368  20.104  0.00  0.00    +0.000 A 
ATOM     13  C   UNL     1       3.825  15.582  19.663  0.00  0.00    +0.000 A 
ATOM     14  C   UNL     1       3.595  16.058  18.377  0.00  0.00    +0.000 A 
ATOM     15  C   UNL     1       2.784  15.338  17.511  0.00  0.00    +0.000 A 
ATOM     16  C   UNL     1       2.206  14.140  17.937  0.00  0.00    +0.000 A 
ATOM     17  C   UNL     1       2.429  13.615  19.232  0.00  0.00    +0.000 A 
ENDBRANCH   1  17
BRANCH   3  18
ATOM     18  C   UNL     1       1.810   8.762  18.527  0.00  0.00    +0.000 C 
ATOM     19  O   UNL     1       1.273   8.667  17.427  0.00  0.00    +0.000 OA
ATOM     20  N   UNL     1       2.633   7.821  19.116  0.00  0.00    +0.000 N 
ATOM     21  H   UNL     1       2.841   7.961  20.093  0.00  0.00    +0.000 HD
BRANCH  20  22
ATOM     22  C   UNL     1       3.024   6.567  18.553  0.00  0.00    +0.000 A 
ATOM     23  C   UNL     1       3.974   6.499  17.523  0.00  0.00    +0.000 A 
ATOM     24  C   UNL     1       4.286   5.293  16.902  0.00  0.00    +0.000 A 
ATOM     25  C   UNL     1       3.656   4.125  17.307  0.00  0.00    +0.000 A 
ATOM     26  C   UNL     1       2.735   4.140  18.360  0.00  0.00    +0.000 A 
ATOM     27  C   UNL     1       2.126   2.937  18.751  0.00  0.00    +0.000 A 
ATOM     28  C   UNL     1       1.218   2.900  19.805  0.00  0.00    +0.000 A 
ATOM     29  C   UNL     1       0.915   4.069  20.488  0.00  0.00    +0.000 A 
ATOM     30  C   UNL     1       1.502   5.278  20.103  0.00  0.00    +0.000 A 
ATOM     31  C   UNL     1       2.418   5.359  19.023  0.00  0.00    +0.000 A 
ENDBRANCH  20  22
ENDBRANCH   3  18
TORSDOF 3
ENDMDL
MODEL 9
REMARK VINA RESULT:      -8.2      1.138      1.141
REMARK  Name = 
REMARK  4 active torsions:
REMARK  status: ('A' for Active; 'I' for Inactive)
REMARK    1  A    between atoms: C_1  and  C_2
REMARK    2  A    between atoms: C_7  and  C_8
REMARK    3  A    between atoms: C_10  and  C_11
REMARK    4  A    between atoms: N_13  and  C_14
REMARK                            x       y       z     vdW  Elec       q    Type
REMARK                         _______ _______ _______ _____ _____    ______ ____
ROOT
ATOM      1  C   UNL     1       4.214   4.804  17.269  0.00  0.00    +0.000 A 
ATOM      2  C   UNL     1       3.846   5.955  17.943  0.00  0.00    +0.000 A 
ATOM      3  C   UNL     1       2.844   5.902  18.924  0.00  0.00    +0.000 A 
ATOM      4  C   UNL     1       2.186   4.677  19.210  0.00  0.00    +0.000 A 
ATOM      5  C   UNL     1       1.111   4.465  20.114  0.00  0.00    +0.000 A 
ATOM      6  C   UNL     1       0.542   3.200  20.287  0.00  0.00    +0.000 A 
ATOM      7  C   UNL     1       1.008   2.128  19.542  0.00  0.00    +0.000 A 
ATOM      8  C   UNL     1       2.048   2.327  18.639  0.00  0.00    +0.000 A 
ATOM      9  C   UNL     1       2.645   3.566  18.470  0.00  0.00    +0.000 A 
ATOM     10  N   UNL     1       3.629   3.628  17.566  0.00  0.00    +0.000 NA
ENDROOT
BRANCH   1  17
ATOM     11  C   UNL     1       7.129   5.563  17.749  0.00  0.00    +0.000 C 
ATOM     12  C   UNL     1       6.597   5.133  16.404  0.00  0.00    +0.000 A 
ATOM     13  C   UNL     1       7.512   5.075  15.334  0.00  0.00    +0.000 A 
ATOM     14  C   UNL     1       7.112   4.673  14.064  0.00  0.00    +0.000 A 
ATOM     15  C   UNL     1       5.785   4.335  13.836  0.00  0.00    +0.000 A 
ATOM     16  C   UNL     1       4.863   4.399  14.883  0.00  0.00    +0.000 A 
ATOM     17  C   UNL     1       5.235   4.788  16.192  0.00  0.00    +0.000 A 
ENDBRANCH   1  17
BRANCH   3  18
ATOM     18  C   UNL     1       2.511   7.231  19.515  0.00  0.00    +0.000 C 
ATOM     19  O   UNL     1       2.752   7.376  20.710  0.00  0.00    +0.000 OA
ATOM     20  N   UNL     1       1.862   8.137  18.698  0.00  0.00    +0.000 N 
ATOM     21  H   UNL     1       1.574   7.796  17.795  0.00  0.00    +0.000 HD
BRANCH  20  22
ATOM     22  C   UNL     1       1.359   9.417  19.087  0.00  0.00    +0.000 A 
ATOM     23  C   UNL     1       1.595  10.557  18.304  0.00  0.00    +0.000 A 
ATOM     24  C   UNL     1       1.196  11.822  18.724  0.00  0.00    +0.000 A 
ATOM     25  C   UNL     1       0.542  11.972  19.939  0.00  0.00    +0.000 A 
ATOM     26  C   UNL     1       0.247  10.857  20.731  0.00  0.00    +0.000 A 
ATOM     27  C   UNL     1      -0.426  11.043  21.949  0.00  0.00    +0.000 A 
ATOM     28  C   UNL     1      -0.757   9.963  22.762  0.00  0.00    +0.000 A 
ATOM     29  C   UNL     1      -0.425   8.677  22.359  0.00  0.00    +0.000 A 
ATOM     30  C   UNL     1       0.258   8.475  21.156  0.00  0.00    +0.000 A 
ATOM     31  C   UNL     1       0.628   9.552  20.309  0.00  0.00    +0.000 A 
ENDBRANCH  20  22
ENDBRANCH   3  18
TORSDOF 3
ENDMDL
