MODEL 1
REMARK VINA RESULT:      -7.6      0.000      0.000
REMARK  Name = 
REMARK  13 active torsions:
REMARK  status: ('A' for Active; 'I' for Inactive)
REMARK    1  A    between atoms: C_1  and  C_2
REMARK    2  A    between atoms: C_2  and  O_3
REMARK    3  A    between atoms: O_3  and  C_4
REMARK    4  A    between atoms: C_4  and  C_6
REMARK    5  A    between atoms: C_8  and  C_9
REMARK    6  A    between atoms: C_10  and  C_11
REMARK    7  A    between atoms: C_11  and  C_12
REMARK    8  A    between atoms: C_12  and  C_13
REMARK    9  A    between atoms: N_15  and  C_16
REMARK   10  A    between atoms: C_16  and  C_17
REMARK   11  A    between atoms: C_20  and  C_21
REMARK   12  A    between atoms: C_21  and  C_22
REMARK   13  A    between atoms: C_25  and  C_26
REMARK                            x       y       z     vdW  Elec       q    Type
REMARK                         _______ _______ _______ _____ _____    ______ ____
ROOT
ATOM      1  C   UNL     1       2.528   2.845  17.551  0.00  0.00    +0.000 C 
ENDROOT
BRANCH   1   6
ATOM      2  C   UNL     1       6.009   4.209  17.903  0.00  0.00    +0.000 A 
ATOM      3  N   UNL     1       5.732   3.736  19.164  0.00  0.00    +0.000 N 
ATOM      4  C   UNL     1       4.516   3.103  19.198  0.00  0.00    +0.000 A 
ATOM      5  C   UNL     1       4.064   2.409  20.433  0.00  0.00    +0.000 C 
ATOM      6  C   UNL     1       3.913   3.282  17.961  0.00  0.00    +0.000 A 
ATOM      7  C   UNL     1       4.867   3.982  17.136  0.00  0.00    +0.000 A 
ATOM      8  C   UNL     1       4.686   4.388  15.712  0.00  0.00    +0.000 C 
ATOM      9  H   UNL     1       6.377   3.810  19.939  0.00  0.00    +0.000 HD
BRANCH   2  10
ATOM     10  C   UNL     1       7.285   4.791  17.531  0.00  0.00    +0.000 C 
ATOM     11  O   UNL     1       8.154   4.250  16.862  0.00  0.00    +0.000 OA
BRANCH  10  12
ATOM     12  O   UNL     1       7.405   6.021  18.117  0.00  0.00    +0.000 OA
BRANCH  12  14
ATOM     13  C   UNL     1       7.621   8.427  17.763  0.00  0.00    +0.000 C 
ATOM     14  C   UNL     1       6.912   7.144  17.367  0.00  0.00    +0.000 C 
ENDBRANCH  12  14
ENDBRANCH  10  12
ENDBRANCH   2  10
ENDBRANCH   1   6
BRANCH   1  15
ATOM     15  C   UNL     1       1.480   3.950  17.683  0.00  0.00    +0.000 C 
BRANCH  15  16
ATOM     16  C   UNL     1       1.600   4.698  19.003  0.00  0.00    +0.000 C 
ATOM     17  O   UNL     1       1.111   4.295  20.056  0.00  0.00    +0.000 OA
ATOM     18  N   UNL     1       2.320   5.866  18.900  0.00  0.00    +0.000 N 
ATOM     19  H   UNL     1       2.610   6.192  17.987  0.00  0.00    +0.000 HD
BRANCH  18  20
ATOM     20  C   UNL     1       2.544   6.749  20.029  0.00  0.00    +0.000 C 
BRANCH  20  21
ATOM     21  C   UNL     1       1.758   8.036  19.923  0.00  0.00    +0.000 A 
ATOM     22  C   UNL     1       1.033   8.516  21.022  0.00  0.00    +0.000 A 
ATOM     23  C   UNL     1       0.340   9.729  20.949  0.00  0.00    +0.000 A 
ATOM     24  C   UNL     1       0.350  10.490  19.774  0.00  0.00    +0.000 A 
ATOM     25  C   UNL     1       1.083  10.020  18.677  0.00  0.00    +0.000 A 
ATOM     26  C   UNL     1       1.782   8.807  18.752  0.00  0.00    +0.000 A 
BRANCH  24  27
ATOM     27  C   UNL     1      -0.414  11.791  19.706  0.00  0.00    +0.000 C 
ATOM     28  C   UNL     1      -1.067  12.029  18.351  0.00  0.00    +0.000 C 
ENDBRANCH  24  27
ENDBRANCH  20  21
ENDBRANCH  18  20
ENDBRANCH  15  16
ENDBRANCH   1  15
TORSDOF 9
ENDMDL
MODEL 2
REMARK VINA RESULT:      -7.3      1.529      2.200
REMARK  Name = 
REMARK  13 active torsions:
REMARK  status: ('A' for Active; 'I' for Inactive)
REMARK    1  A    between atoms: C_1  and  C_2
REMARK    2  A    between atoms: C_2  and  O_3
REMARK    3  A    between atoms: O_3  and  C_4
REMARK    4  A    between atoms: C_4  and  C_6
REMARK    5  A    between atoms: C_8  and  C_9
REMARK    6  A    between atoms: C_10  and  C_11
REMARK    7  A    between atoms: C_11  and  C_12
REMARK    8  A    between atoms: C_12  and  C_13
REMARK    9  A    between atoms: N_15  and  C_16
REMARK   10  A    between atoms: C_16  and  C_17
REMARK   11  A    between atoms: C_20  and  C_21
REMARK   12  A    between atoms: C_21  and  C_22
REMARK   13  A    between atoms: C_25  and  C_26
REMARK                            x       y       z     vdW  Elec       q    Type
REMARK                         _______ _______ _______ _____ _____    ______ ____
ROOT
ATOM      1  C   UNL     1       2.275   5.090  18.111  0.00  0.00    +0.000 C 
ENDROOT
BRANCH   1   6
ATOM      2  C   UNL     1       5.962   4.419  17.862  0.00  0.00    +0.000 A 
ATOM      3  N   UNL     1       5.523   3.430  18.711  0.00  0.00    +0.000 N 
ATOM      4  C   UNL     1       4.159   3.461  18.841  0.00  0.00    +0.000 A 
ATOM      5  C   UNL     1       3.453   2.407  19.618  0.00  0.00    +0.000 C 
ATOM      6  C   UNL     1       3.697   4.585  18.170  0.00  0.00    +0.000 A 
ATOM      7  C   UNL     1       4.845   5.190  17.544  0.00  0.00    +0.000 A 
ATOM      8  C   UNL     1       4.854   6.416  16.693  0.00  0.00    +0.000 C 
ATOM      9  H   UNL     1       6.138   2.746  19.132  0.00  0.00    +0.000 HD
BRANCH   2  10
ATOM     10  C   UNL     1       7.339   4.537  17.419  0.00  0.00    +0.000 C 
ATOM     11  O   UNL     1       7.742   4.373  16.276  0.00  0.00    +0.000 OA
BRANCH  10  12
ATOM     12  O   UNL     1       8.138   4.785  18.500  0.00  0.00    +0.000 OA
BRANCH  12  14
ATOM     13  C   UNL     1       8.042   7.218  18.314  0.00  0.00    +0.000 C 
ATOM     14  C   UNL     1       7.894   6.007  19.217  0.00  0.00    +0.000 C 
ENDBRANCH  12  14
ENDBRANCH  10  12
ENDBRANCH   2  10
ENDBRANCH   1   6
BRANCH   1  15
ATOM     15  C   UNL     1       1.801   5.719  19.420  0.00  0.00    +0.000 C 
BRANCH  15  16
ATOM     16  C   UNL     1       2.008   7.227  19.439  0.00  0.00    +0.000 C 
ATOM     17  O   UNL     1       2.078   7.888  20.473  0.00  0.00    +0.000 OA
ATOM     18  N   UNL     1       2.120   7.774  18.181  0.00  0.00    +0.000 N 
ATOM     19  H   UNL     1       1.954   7.192  17.370  0.00  0.00    +0.000 HD
BRANCH  18  20
ATOM     20  C   UNL     1       2.302   9.195  17.960  0.00  0.00    +0.000 C 
BRANCH  20  21
ATOM     21  C   UNL     1       1.070   9.999  18.308  0.00  0.00    +0.000 A 
ATOM     22  C   UNL     1      -0.203   9.539  17.945  0.00  0.00    +0.000 A 
ATOM     23  C   UNL     1      -1.352  10.252  18.302  0.00  0.00    +0.000 A 
ATOM     24  C   UNL     1      -1.258  11.447  19.026  0.00  0.00    +0.000 A 
ATOM     25  C   UNL     1       0.012  11.905  19.400  0.00  0.00    +0.000 A 
ATOM     26  C   UNL     1       1.163  11.187  19.047  0.00  0.00    +0.000 A 
BRANCH  24  27
ATOM     27  C   UNL     1      -2.506  12.213  19.393  0.00  0.00    +0.000 C 
ATOM     28  C   UNL     1      -2.567  12.583  20.868  0.00  0.00    +0.000 C 
ENDBRANCH  24  27
ENDBRANCH  20  21
ENDBRANCH  18  20
ENDBRANCH  15  16
ENDBRANCH   1  15
TORSDOF 9
ENDMDL
MODEL 3
REMARK VINA RESULT:      -7.3      2.273      3.544
REMARK  Name = 
REMARK  13 active torsions:
REMARK  status: ('A' for Active; 'I' for Inactive)
REMARK    1  A    between atoms: C_1  and  C_2
REMARK    2  A    between atoms: C_2  and  O_3
REMARK    3  A    between atoms: O_3  and  C_4
REMARK    4  A    between atoms: C_4  and  C_6
REMARK    5  A    between atoms: C_8  and  C_9
REMARK    6  A    between atoms: C_10  and  C_11
REMARK    7  A    between atoms: C_11  and  C_12
REMARK    8  A    between atoms: C_12  and  C_13
REMARK    9  A    between atoms: N_15  and  C_16
REMARK   10  A    between atoms: C_16  and  C_17
REMARK   11  A    between atoms: C_20  and  C_21
REMARK   12  A    between atoms: C_21  and  C_22
REMARK   13  A    between atoms: C_25  and  C_26
REMARK                            x       y       z     vdW  Elec       q    Type
REMARK                         _______ _______ _______ _____ _____    ______ ____
ROOT
ATOM      1  C   UNL     1       2.285   5.959  17.984  0.00  0.00    +0.000 C 
ENDROOT
BRANCH   1   6
ATOM      2  C   UNL     1       5.740   4.685  17.248  0.00  0.00    +0.000 A 
ATOM      3  N   UNL     1       5.241   3.744  18.117  0.00  0.00    +0.000 N 
ATOM      4  C   UNL     1       3.929   3.999  18.421  0.00  0.00    +0.000 A 
ATOM      5  C   UNL     1       3.149   3.043  19.252  0.00  0.00    +0.000 C 
ATOM      6  C   UNL     1       3.593   5.217  17.847  0.00  0.00    +0.000 A 
ATOM      7  C   UNL     1       4.745   5.650  17.096  0.00  0.00    +0.000 A 
ATOM      8  C   UNL     1       4.865   6.897  16.286  0.00  0.00    +0.000 C 
ATOM      9  H   UNL     1       5.773   2.945  18.436  0.00  0.00    +0.000 HD
BRANCH   2  10
ATOM     10  C   UNL     1       7.052   4.590  16.636  0.00  0.00    +0.000 C 
ATOM     11  O   UNL     1       8.085   4.252  17.199  0.00  0.00    +0.000 OA
BRANCH  10  12
ATOM     12  O   UNL     1       6.975   5.017  15.340  0.00  0.00    +0.000 OA
BRANCH  12  14
ATOM     13  C   UNL     1       5.390   4.176  13.682  0.00  0.00    +0.000 C 
ATOM     14  C   UNL     1       6.749   4.009  14.340  0.00  0.00    +0.000 C 
ENDBRANCH  12  14
ENDBRANCH  10  12
ENDBRANCH   2  10
ENDBRANCH   1   6
BRANCH   1  15
ATOM     15  C   UNL     1       2.283   6.977  19.123  0.00  0.00    +0.000 C 
BRANCH  15  16
ATOM     16  C   UNL     1       2.026   8.392  18.626  0.00  0.00    +0.000 C 
ATOM     17  O   UNL     1       2.417   8.809  17.538  0.00  0.00    +0.000 OA
ATOM     18  N   UNL     1       1.301   9.154  19.513  0.00  0.00    +0.000 N 
ATOM     19  H   UNL     1       1.095   8.785  20.433  0.00  0.00    +0.000 HD
BRANCH  18  20
ATOM     20  C   UNL     1       0.956  10.539  19.255  0.00  0.00    +0.000 C 
BRANCH  20  21
ATOM     21  C   UNL     1      -0.435  10.693  18.683  0.00  0.00    +0.000 A 
ATOM     22  C   UNL     1      -0.897   9.812  17.695  0.00  0.00    +0.000 A 
ATOM     23  C   UNL     1      -2.198   9.918  17.192  0.00  0.00    +0.000 A 
ATOM     24  C   UNL     1      -3.068  10.911  17.659  0.00  0.00    +0.000 A 
ATOM     25  C   UNL     1      -2.614  11.787  18.654  0.00  0.00    +0.000 A 
ATOM     26  C   UNL     1      -1.312  11.677  19.161  0.00  0.00    +0.000 A 
BRANCH  24  27
ATOM     27  C   UNL     1      -4.465  11.022  17.097  0.00  0.00    +0.000 C 
ATOM     28  C   UNL     1      -5.393  11.860  17.966  0.00  0.00    +0.000 C 
ENDBRANCH  24  27
ENDBRANCH  20  21
ENDBRANCH  18  20
ENDBRANCH  15  16
ENDBRANCH   1  15
TORSDOF 9
ENDMDL
MODEL 4
REMARK VINA RESULT:      -7.2      3.254      7.096
REMARK  Name = 
REMARK  13 active torsions:
REMARK  status: ('A' for Active; 'I' for Inactive)
REMARK    1  A    between atoms: C_1  and  C_2
REMARK    2  A    between atoms: C_2  and  O_3
REMARK    3  A    between atoms: O_3  and  C_4
REMARK    4  A    between atoms: C_4  and  C_6
REMARK    5  A    between atoms: C_8  and  C_9
REMARK    6  A    between atoms: C_10  and  C_11
REMARK    7  A    between atoms: C_11  and  C_12
REMARK    8  A    between atoms: C_12  and  C_13
REMARK    9  A    between atoms: N_15  and  C_16
REMARK   10  A    between atoms: C_16  and  C_17
REMARK   11  A    between atoms: C_20  and  C_21
REMARK   12  A    between atoms: C_21  and  C_22
REMARK   13  A    between atoms: C_25  and  C_26
REMARK                            x       y       z     vdW  Elec       q    Type
REMARK                         _______ _______ _______ _____ _____    ______ ____
ROOT
ATOM      1  C   UNL     1       7.153   4.582  17.921  0.00  0.00    +0.000 C 
ENDROOT
BRANCH   1   6
ATOM      2  C   UNL     1       3.518   3.692  17.606  0.00  0.00    +0.000 A 
ATOM      3  N   UNL     1       3.823   4.191  16.363  0.00  0.00    +0.000 N 
ATOM      4  C   UNL     1       5.160   4.481  16.262  0.00  0.00    +0.000 A 
ATOM      5  C   UNL     1       5.738   4.922  14.965  0.00  0.00    +0.000 C 
ATOM      6  C   UNL     1       5.726   4.298  17.516  0.00  0.00    +0.000 A 
ATOM      7  C   UNL     1       4.681   3.791  18.369  0.00  0.00    +0.000 A 
ATOM      8  C   UNL     1       4.806   3.421  19.809  0.00  0.00    +0.000 C 
ATOM      9  H   UNL     1       3.146   4.276  15.617  0.00  0.00    +0.000 HD
BRANCH   2  10
ATOM     10  C   UNL     1       2.213   3.161  17.955  0.00  0.00    +0.000 C 
ATOM     11  O   UNL     1       1.830   2.015  17.764  0.00  0.00    +0.000 OA
BRANCH  10  12
ATOM     12  O   UNL     1       1.439   4.168  18.460  0.00  0.00    +0.000 OA
BRANCH  12  14
ATOM     13  C   UNL     1       1.781   5.368  20.560  0.00  0.00    +0.000 C 
ATOM     14  C   UNL     1       1.194   4.146  19.876  0.00  0.00    +0.000 C 
ENDBRANCH  12  14
ENDBRANCH  10  12
ENDBRANCH   2  10
ENDBRANCH   1   6
BRANCH   1  15
ATOM     15  C   UNL     1       7.328   5.932  18.614  0.00  0.00    +0.000 C 
BRANCH  15  16
ATOM     16  C   UNL     1       7.716   7.032  17.636  0.00  0.00    +0.000 C 
ATOM     17  O   UNL     1       7.750   6.873  16.417  0.00  0.00    +0.000 OA
ATOM     18  N   UNL     1       8.014   8.225  18.252  0.00  0.00    +0.000 N 
ATOM     19  H   UNL     1       8.065   8.263  19.262  0.00  0.00    +0.000 HD
BRANCH  18  20
ATOM     20  C   UNL     1       8.428   9.404  17.516  0.00  0.00    +0.000 C 
BRANCH  20  21
ATOM     21  C   UNL     1       8.914  10.513  18.423  0.00  0.00    +0.000 A 
ATOM     22  C   UNL     1       8.864  11.848  17.999  0.00  0.00    +0.000 A 
ATOM     23  C   UNL     1       9.268  12.885  18.847  0.00  0.00    +0.000 A 
ATOM     24  C   UNL     1       9.738  12.612  20.138  0.00  0.00    +0.000 A 
ATOM     25  C   UNL     1       9.779  11.280  20.569  0.00  0.00    +0.000 A 
ATOM     26  C   UNL     1       9.369  10.242  19.721  0.00  0.00    +0.000 A 
BRANCH  24  27
ATOM     27  C   UNL     1      10.184  13.740  21.037  0.00  0.00    +0.000 C 
ATOM     28  C   UNL     1      11.066  14.757  20.325  0.00  0.00    +0.000 C 
ENDBRANCH  24  27
ENDBRANCH  20  21
ENDBRANCH  18  20
ENDBRANCH  15  16
ENDBRANCH   1  15
TORSDOF 9
ENDMDL
MODEL 5
REMARK VINA RESULT:      -7.2      2.809      7.904
REMARK  Name = 
REMARK  13 active torsions:
REMARK  status: ('A' for Active; 'I' for Inactive)
REMARK    1  A    between atoms: C_1  and  C_2
REMARK    2  A    between atoms: C_2  and  O_3
REMARK    3  A    between atoms: O_3  and  C_4
REMARK    4  A    between atoms: C_4  and  C_6
REMARK    5  A    between atoms: C_8  and  C_9
REMARK    6  A    between atoms: C_10  and  C_11
REMARK    7  A    between atoms: C_11  and  C_12
REMARK    8  A    between atoms: C_12  and  C_13
REMARK    9  A    between atoms: N_15  and  C_16
REMARK   10  A    between atoms: C_16  and  C_17
REMARK   11  A    between atoms: C_20  and  C_21
REMARK   12  A    between atoms: C_21  and  C_22
REMARK   13  A    between atoms: C_25  and  C_26
REMARK                            x       y       z     vdW  Elec       q    Type
REMARK                         _______ _______ _______ _____ _____    ______ ____
ROOT
ATOM      1  C   UNL     1       4.917   6.835  17.243  0.00  0.00    +0.000 C 
ENDROOT
BRANCH   1   6
ATOM      2  C   UNL     1       2.573   5.553  19.881  0.00  0.00    +0.000 A 
ATOM      3  N   UNL     1       2.066   6.797  19.594  0.00  0.00    +0.000 N 
ATOM      4  C   UNL     1       2.751   7.384  18.562  0.00  0.00    +0.000 A 
ATOM      5  C   UNL     1       2.300   8.686  18.002  0.00  0.00    +0.000 C 
ATOM      6  C   UNL     1       3.826   6.563  18.250  0.00  0.00    +0.000 A 
ATOM      7  C   UNL     1       3.709   5.396  19.087  0.00  0.00    +0.000 A 
ATOM      8  C   UNL     1       4.622   4.216  19.106  0.00  0.00    +0.000 C 
ATOM      9  H   UNL     1       1.258   7.189  20.060  0.00  0.00    +0.000 HD
BRANCH   2  10
ATOM     10  C   UNL     1       1.958   4.638  20.825  0.00  0.00    +0.000 C 
ATOM     11  O   UNL     1       2.439   4.273  21.889  0.00  0.00    +0.000 OA
BRANCH  10  12
ATOM     12  O   UNL     1       0.781   4.178  20.303  0.00  0.00    +0.000 OA
BRANCH  12  14
ATOM     13  C   UNL     1       1.179   2.714  18.389  0.00  0.00    +0.000 C 
ATOM     14  C   UNL     1       0.766   2.815  19.847  0.00  0.00    +0.000 C 
ENDBRANCH  12  14
ENDBRANCH  10  12
ENDBRANCH   2  10
ENDBRANCH   1   6
BRANCH   1  15
ATOM     15  C   UNL     1       6.324   6.633  17.804  0.00  0.00    +0.000 C 
BRANCH  15  16
ATOM     16  C   UNL     1       7.114   5.600  17.014  0.00  0.00    +0.000 C 
ATOM     17  O   UNL     1       7.836   4.754  17.537  0.00  0.00    +0.000 OA
ATOM     18  N   UNL     1       6.929   5.701  15.654  0.00  0.00    +0.000 N 
ATOM     19  H   UNL     1       6.402   6.480  15.281  0.00  0.00    +0.000 HD
BRANCH  18  20
ATOM     20  C   UNL     1       7.598   4.831  14.706  0.00  0.00    +0.000 C 
BRANCH  20  21
ATOM     21  C   UNL     1       6.655   4.273  13.664  0.00  0.00    +0.000 A 
ATOM     22  C   UNL     1       5.301   4.072  13.968  0.00  0.00    +0.000 A 
ATOM     23  C   UNL     1       4.411   3.601  12.998  0.00  0.00    +0.000 A 
ATOM     24  C   UNL     1       4.852   3.312  11.701  0.00  0.00    +0.000 A 
ATOM     25  C   UNL     1       6.202   3.522  11.390  0.00  0.00    +0.000 A 
ATOM     26  C   UNL     1       7.092   4.000  12.361  0.00  0.00    +0.000 A 
BRANCH  24  27
ATOM     27  C   UNL     1       3.882   2.790  10.668  0.00  0.00    +0.000 C 
ATOM     28  C   UNL     1       3.145   3.899   9.929  0.00  0.00    +0.000 C 
ENDBRANCH  24  27
ENDBRANCH  20  21
ENDBRANCH  18  20
ENDBRANCH  15  16
ENDBRANCH   1  15
TORSDOF 9
ENDMDL
MODEL 6
REMARK VINA RESULT:      -7.1      1.988      3.063
REMARK  Name = 
REMARK  13 active torsions:
REMARK  status: ('A' for Active; 'I' for Inactive)
REMARK    1  A    between atoms: C_1  and  C_2
REMARK    2  A    between atoms: C_2  and  O_3
REMARK    3  A    between atoms: O_3  and  C_4
REMARK    4  A    between atoms: C_4  and  C_6
REMARK    5  A    between atoms: C_8  and  C_9
REMARK    6  A    between atoms: C_10  and  C_11
REMARK    7  A    between atoms: C_11  and  C_12
REMARK    8  A    between atoms: C_12  and  C_13
REMARK    9  A    between atoms: N_15  and  C_16
REMARK   10  A    between atoms: C_16  and  C_17
REMARK   11  A    between atoms: C_20  and  C_21
REMARK   12  A    between atoms: C_21  and  C_22
REMARK   13  A    between atoms: C_25  and  C_26
REMARK                            x       y       z     vdW  Elec       q    Type
REMARK                         _______ _______ _______ _____ _____    ______ ____
ROOT
ATOM      1  C   UNL     1       2.269   5.492  17.952  0.00  0.00    +0.000 C 
ENDROOT
BRANCH   1   6
ATOM      2  C   UNL     1       5.776   4.526  17.017  0.00  0.00    +0.000 A 
ATOM      3  N   UNL     1       5.189   3.318  17.309  0.00  0.00    +0.000 N 
ATOM      4  C   UNL     1       3.854   3.470  17.581  0.00  0.00    +0.000 A 
ATOM      5  C   UNL     1       2.991   2.280  17.807  0.00  0.00    +0.000 C 
ATOM      6  C   UNL     1       3.582   4.831  17.604  0.00  0.00    +0.000 A 
ATOM      7  C   UNL     1       4.805   5.501  17.240  0.00  0.00    +0.000 A 
ATOM      8  C   UNL     1       5.010   6.973  17.108  0.00  0.00    +0.000 C 
ATOM      9  H   UNL     1       5.683   2.436  17.271  0.00  0.00    +0.000 HD
BRANCH   2  10
ATOM     10  C   UNL     1       7.143   4.656  16.547  0.00  0.00    +0.000 C 
ATOM     11  O   UNL     1       8.140   4.228  17.111  0.00  0.00    +0.000 OA
BRANCH  10  12
ATOM     12  O   UNL     1       7.155   5.409  15.406  0.00  0.00    +0.000 OA
BRANCH  12  14
ATOM     13  C   UNL     1       6.084   3.965  13.754  0.00  0.00    +0.000 C 
ATOM     14  C   UNL     1       7.344   4.703  14.168  0.00  0.00    +0.000 C 
ENDBRANCH  12  14
ENDBRANCH  10  12
ENDBRANCH   2  10
ENDBRANCH   1   6
BRANCH   1  15
ATOM     15  C   UNL     1       2.436   6.875  18.578  0.00  0.00    +0.000 C 
BRANCH  15  16
ATOM     16  C   UNL     1       2.027   6.893  20.044  0.00  0.00    +0.000 C 
ATOM     17  O   UNL     1       1.954   5.881  20.739  0.00  0.00    +0.000 OA
ATOM     18  N   UNL     1       1.759   8.157  20.517  0.00  0.00    +0.000 N 
ATOM     19  H   UNL     1       1.740   8.935  19.871  0.00  0.00    +0.000 HD
BRANCH  18  20
ATOM     20  C   UNL     1       1.334   8.408  21.880  0.00  0.00    +0.000 C 
BRANCH  20  21
ATOM     21  C   UNL     1       0.439   9.622  21.994  0.00  0.00    +0.000 A 
ATOM     22  C   UNL     1       0.393  10.568  20.961  0.00  0.00    +0.000 A 
ATOM     23  C   UNL     1      -0.465  11.670  21.035  0.00  0.00    +0.000 A 
ATOM     24  C   UNL     1      -1.294  11.858  22.148  0.00  0.00    +0.000 A 
ATOM     25  C   UNL     1      -1.259  10.909  23.178  0.00  0.00    +0.000 A 
ATOM     26  C   UNL     1      -0.403   9.802  23.100  0.00  0.00    +0.000 A 
BRANCH  24  27
ATOM     27  C   UNL     1      -2.205  13.060  22.221  0.00  0.00    +0.000 C 
ATOM     28  C   UNL     1      -3.567  12.816  21.585  0.00  0.00    +0.000 C 
ENDBRANCH  24  27
ENDBRANCH  20  21
ENDBRANCH  18  20
ENDBRANCH  15  16
ENDBRANCH   1  15
TORSDOF 9
ENDMDL
MODEL 7
REMARK VINA RESULT:      -7.1      2.204      3.490
REMARK  Name = 
REMARK  13 active torsions:
REMARK  status: ('A' for Active; 'I' for Inactive)
REMARK    1  A    between atoms: C_1  and  C_2
REMARK    2  A    between atoms: C_2  and  O_3
REMARK    3  A    between atoms: O_3  and  C_4
REMARK    4  A    between atoms: C_4  and  C_6
REMARK    5  A    between atoms: C_8  and  C_9
REMARK    6  A    between atoms: C_10  and  C_11
REMARK    7  A    between atoms: C_11  and  C_12
REMARK    8  A    between atoms: C_12  and  C_13
REMARK    9  A    between atoms: N_15  and  C_16
REMARK   10  A    between atoms: C_16  and  C_17
REMARK   11  A    between atoms: C_20  and  C_21
REMARK   12  A    between atoms: C_21  and  C_22
REMARK   13  A    between atoms: C_25  and  C_26
REMARK                            x       y       z     vdW  Elec       q    Type
REMARK                         _______ _______ _______ _____ _____    ______ ____
ROOT
ATOM      1  C   UNL     1       4.272   5.771  19.262  0.00  0.00    +0.000 C 
ENDROOT
BRANCH   1   6
ATOM      2  C   UNL     1       5.979   4.513  16.163  0.00  0.00    +0.000 A 
ATOM      3  N   UNL     1       5.291   3.409  16.608  0.00  0.00    +0.000 N 
ATOM      4  C   UNL     1       4.517   3.716  17.698  0.00  0.00    +0.000 A 
ATOM      5  C   UNL     1       3.594   2.702  18.275  0.00  0.00    +0.000 C 
ATOM      6  C   UNL     1       4.807   5.022  18.066  0.00  0.00    +0.000 A 
ATOM      7  C   UNL     1       5.734   5.530  17.085  0.00  0.00    +0.000 A 
ATOM      8  C   UNL     1       6.325   6.899  17.041  0.00  0.00    +0.000 C 
ATOM      9  H   UNL     1       5.325   2.510  16.146  0.00  0.00    +0.000 HD
BRANCH   2  10
ATOM     10  C   UNL     1       6.762   4.526  14.941  0.00  0.00    +0.000 C 
ATOM     11  O   UNL     1       7.643   5.327  14.661  0.00  0.00    +0.000 OA
BRANCH  10  12
ATOM     12  O   UNL     1       6.305   3.546  14.105  0.00  0.00    +0.000 OA
BRANCH  12  14
ATOM     13  C   UNL     1       5.293   3.194  11.911  0.00  0.00    +0.000 C 
ATOM     14  C   UNL     1       6.455   3.778  12.695  0.00  0.00    +0.000 C 
ENDBRANCH  12  14
ENDBRANCH  10  12
ENDBRANCH   2  10
ENDBRANCH   1   6
BRANCH   1  15
ATOM     15  C   UNL     1       2.933   6.458  18.997  0.00  0.00    +0.000 C 
BRANCH  15  16
ATOM     16  C   UNL     1       2.020   6.424  20.214  0.00  0.00    +0.000 C 
ATOM     17  O   UNL     1       1.606   5.383  20.720  0.00  0.00    +0.000 OA
ATOM     18  N   UNL     1       1.714   7.675  20.698  0.00  0.00    +0.000 N 
ATOM     19  H   UNL     1       2.004   8.493  20.177  0.00  0.00    +0.000 HD
BRANCH  18  20
ATOM     20  C   UNL     1       0.844   7.881  21.839  0.00  0.00    +0.000 C 
BRANCH  20  21
ATOM     21  C   UNL     1       0.142   9.220  21.800  0.00  0.00    +0.000 A 
ATOM     22  C   UNL     1       0.016   9.919  20.591  0.00  0.00    +0.000 A 
ATOM     23  C   UNL     1      -0.671  11.136  20.535  0.00  0.00    +0.000 A 
ATOM     24  C   UNL     1      -1.244  11.689  21.687  0.00  0.00    +0.000 A 
ATOM     25  C   UNL     1      -1.129  10.988  22.895  0.00  0.00    +0.000 A 
ATOM     26  C   UNL     1      -0.446   9.766  22.949  0.00  0.00    +0.000 A 
BRANCH  24  27
ATOM     27  C   UNL     1      -1.970  13.010  21.614  0.00  0.00    +0.000 C 
ATOM     28  C   UNL     1      -3.232  13.045  22.466  0.00  0.00    +0.000 C 
ENDBRANCH  24  27
ENDBRANCH  20  21
ENDBRANCH  18  20
ENDBRANCH  15  16
ENDBRANCH   1  15
TORSDOF 9
ENDMDL
MODEL 8
REMARK VINA RESULT:      -7.0      2.479      4.575
REMARK  Name = 
REMARK  13 active torsions:
REMARK  status: ('A' for Active; 'I' for Inactive)
REMARK    1  A    between atoms: C_1  and  C_2
REMARK    2  A    between atoms: C_2  and  O_3
REMARK    3  A    between atoms: O_3  and  C_4
REMARK    4  A    between atoms: C_4  and  C_6
REMARK    5  A    between atoms: C_8  and  C_9
REMARK    6  A    between atoms: C_10  and  C_11
REMARK    7  A    between atoms: C_11  and  C_12
REMARK    8  A    between atoms: C_12  and  C_13
REMARK    9  A    between atoms: N_15  and  C_16
REMARK   10  A    between atoms: C_16  and  C_17
REMARK   11  A    between atoms: C_20  and  C_21
REMARK   12  A    between atoms: C_21  and  C_22
REMARK   13  A    between atoms: C_25  and  C_26
REMARK                            x       y       z     vdW  Elec       q    Type
REMARK                         _______ _______ _______ _____ _____    ______ ____
ROOT
ATOM      1  C   UNL     1       4.086   7.193  17.474  0.00  0.00    +0.000 C 
ENDROOT
BRANCH   1   6
ATOM      2  C   UNL     1       4.223   3.577  18.476  0.00  0.00    +0.000 A 
ATOM      3  N   UNL     1       4.711   3.561  17.191  0.00  0.00    +0.000 N 
ATOM      4  C   UNL     1       4.827   4.833  16.691  0.00  0.00    +0.000 A 
ATOM      5  C   UNL     1       5.446   5.064  15.359  0.00  0.00    +0.000 C 
ATOM      6  C   UNL     1       4.272   5.702  17.620  0.00  0.00    +0.000 A 
ATOM      7  C   UNL     1       3.893   4.902  18.757  0.00  0.00    +0.000 A 
ATOM      8  C   UNL     1       3.269   5.389  20.022  0.00  0.00    +0.000 C 
ATOM      9  H   UNL     1       4.992   2.715  16.714  0.00  0.00    +0.000 HD
BRANCH   2  10
ATOM     10  C   UNL     1       4.134   2.393  19.310  0.00  0.00    +0.000 C 
ATOM     11  O   UNL     1       4.869   2.119  20.250  0.00  0.00    +0.000 OA
BRANCH  10  12
ATOM     12  O   UNL     1       3.145   1.580  18.832  0.00  0.00    +0.000 OA
BRANCH  12  14
ATOM     13  C   UNL     1       1.418   2.388  20.359  0.00  0.00    +0.000 C 
ATOM     14  C   UNL     1       1.800   2.079  18.922  0.00  0.00    +0.000 C 
ENDBRANCH  12  14
ENDBRANCH  10  12
ENDBRANCH   2  10
ENDBRANCH   1   6
BRANCH   1  15
ATOM     15  C   UNL     1       2.634   7.601  17.226  0.00  0.00    +0.000 C 
BRANCH  15  16
ATOM     16  C   UNL     1       2.112   8.543  18.301  0.00  0.00    +0.000 C 
ATOM     17  O   UNL     1       1.969   8.215  19.478  0.00  0.00    +0.000 OA
ATOM     18  N   UNL     1       1.827   9.802  17.827  0.00  0.00    +0.000 N 
ATOM     19  H   UNL     1       1.871   9.980  16.831  0.00  0.00    +0.000 HD
BRANCH  18  20
ATOM     20  C   UNL     1       1.300  10.856  18.672  0.00  0.00    +0.000 C 
BRANCH  20  21
ATOM     21  C   UNL     1      -0.200  11.003  18.548  0.00  0.00    +0.000 A 
ATOM     22  C   UNL     1      -0.937  10.109  17.759  0.00  0.00    +0.000 A 
ATOM     23  C   UNL     1      -2.330  10.208  17.674  0.00  0.00    +0.000 A 
ATOM     24  C   UNL     1      -3.021  11.207  18.371  0.00  0.00    +0.000 A 
ATOM     25  C   UNL     1      -2.289  12.095  19.170  0.00  0.00    +0.000 A 
ATOM     26  C   UNL     1      -0.894  11.992  19.259  0.00  0.00    +0.000 A 
BRANCH  24  27
ATOM     27  C   UNL     1      -4.523  11.310  18.260  0.00  0.00    +0.000 C 
ATOM     28  C   UNL     1      -4.989  11.769  16.884  0.00  0.00    +0.000 C 
ENDBRANCH  24  27
ENDBRANCH  20  21
ENDBRANCH  18  20
ENDBRANCH  15  16
ENDBRANCH   1  15
TORSDOF 9
ENDMDL
MODEL 9
REMARK VINA RESULT:      -7.0      2.578      4.989
REMARK  Name = 
REMARK  13 active torsions:
REMARK  status: ('A' for Active; 'I' for Inactive)
REMARK    1  A    between atoms: C_1  and  C_2
REMARK    2  A    between atoms: C_2  and  O_3
REMARK    3  A    between atoms: O_3  and  C_4
REMARK    4  A    between atoms: C_4  and  C_6
REMARK    5  A    between atoms: C_8  and  C_9
REMARK    6  A    between atoms: C_10  and  C_11
REMARK    7  A    between atoms: C_11  and  C_12
REMARK    8  A    between atoms: C_12  and  C_13
REMARK    9  A    between atoms: N_15  and  C_16
REMARK   10  A    between atoms: C_16  and  C_17
REMARK   11  A    between atoms: C_20  and  C_21
REMARK   12  A    between atoms: C_21  and  C_22
REMARK   13  A    between atoms: C_25  and  C_26
REMARK                            x       y       z     vdW  Elec       q    Type
REMARK                         _______ _______ _______ _____ _____    ______ ____
ROOT
ATOM      1  C   UNL     1       2.150   7.627  19.555  0.00  0.00    +0.000 C 
ENDROOT
BRANCH   1   6
ATOM      2  C   UNL     1       3.670   4.198  19.371  0.00  0.00    +0.000 A 
ATOM      3  N   UNL     1       4.218   4.838  18.285  0.00  0.00    +0.000 N 
ATOM      4  C   UNL     1       3.844   6.157  18.249  0.00  0.00    +0.000 A 
ATOM      5  C   UNL     1       4.414   7.073  17.226  0.00  0.00    +0.000 C 
ATOM      6  C   UNL     1       2.915   6.359  19.260  0.00  0.00    +0.000 A 
ATOM      7  C   UNL     1       2.809   5.112  19.977  0.00  0.00    +0.000 A 
ATOM      8  C   UNL     1       1.947   4.835  21.163  0.00  0.00    +0.000 C 
ATOM      9  H   UNL     1       4.853   4.390  17.639  0.00  0.00    +0.000 HD
BRANCH   2  10
ATOM     10  C   UNL     1       4.007   2.838  19.749  0.00  0.00    +0.000 C 
ATOM     11  O   UNL     1       5.134   2.405  19.946  0.00  0.00    +0.000 OA
BRANCH  10  12
ATOM     12  O   UNL     1       2.867   2.083  19.775  0.00  0.00    +0.000 OA
BRANCH  12  14
ATOM     13  C   UNL     1       0.678   2.371  18.731  0.00  0.00    +0.000 C 
ATOM     14  C   UNL     1       2.133   1.981  18.543  0.00  0.00    +0.000 C 
ENDBRANCH  12  14
ENDBRANCH  10  12
ENDBRANCH   2  10
ENDBRANCH   1   6
BRANCH   1  15
ATOM     15  C   UNL     1       1.559   7.664  20.963  0.00  0.00    +0.000 C 
BRANCH  15  16
ATOM     16  C   UNL     1       0.488   8.736  21.107  0.00  0.00    +0.000 C 
ATOM     17  O   UNL     1      -0.498   8.616  21.831  0.00  0.00    +0.000 OA
ATOM     18  N   UNL     1       0.741   9.859  20.353  0.00  0.00    +0.000 N 
ATOM     19  H   UNL     1       1.516   9.856  19.702  0.00  0.00    +0.000 HD
BRANCH  18  20
ATOM     20  C   UNL     1      -0.155  10.999  20.322  0.00  0.00    +0.000 C 
BRANCH  20  21
ATOM     21  C   UNL     1      -1.119  10.946  19.158  0.00  0.00    +0.000 A 
ATOM     22  C   UNL     1      -0.889  10.074  18.085  0.00  0.00    +0.000 A 
ATOM     23  C   UNL     1      -1.798   9.985  17.026  0.00  0.00    +0.000 A 
ATOM     24  C   UNL     1      -2.958  10.770  17.009  0.00  0.00    +0.000 A 
ATOM     25  C   UNL     1      -3.197  11.635  18.085  0.00  0.00    +0.000 A 
ATOM     26  C   UNL     1      -2.288  11.720  19.148  0.00  0.00    +0.000 A 
BRANCH  24  27
ATOM     27  C   UNL     1      -3.923  10.673  15.853  0.00  0.00    +0.000 C 
ATOM     28  C   UNL     1      -3.267  10.187  14.567  0.00  0.00    +0.000 C 
ENDBRANCH  24  27
ENDBRANCH  20  21
ENDBRANCH  18  20
ENDBRANCH  15  16
ENDBRANCH   1  15
TORSDOF 9
ENDMDL
