MODEL 1
REMARK VINA RESULT:      -8.7      0.000      0.000
REMARK  Name = 
REMARK  4 active torsions:
REMARK  status: ('A' for Active; 'I' for Inactive)
REMARK    1  A    between atoms: C_1  and  C_2
REMARK    2  A    between atoms: C_2  and  C_3
REMARK    3  A    between atoms: C_7  and  N_8
REMARK    4  A    between atoms: N_11  and  C_12
REMARK                            x       y       z     vdW  Elec       q    Type
REMARK                         _______ _______ _______ _____ _____    ______ ____
ROOT
ATOM      1  N   UNL     1       6.190   5.124  15.899  0.00  0.00    +0.000 N 
ATOM      2  C   UNL     1       6.718   4.612  17.133  0.00  0.00    +0.000 C 
ATOM      3  N   UNL     1       7.939   4.224  17.261  0.00  0.00    +0.000 NA
ATOM      4  N   UNL     1       5.896   4.677  18.298  0.00  0.00    +0.000 N 
ATOM      5  H   UNL     1       5.415   5.795  16.008  0.00  0.00    +0.000 HD
ATOM      6  H   UNL     1       8.627   4.218  16.500  0.00  0.00    +0.000 HD
ATOM      7  H   UNL     1       6.355   4.764  19.217  0.00  0.00    +0.000 HD
ENDROOT
BRANCH   4   8
ATOM      8  C   UNL     1       4.471   4.545  18.241  0.00  0.00    +0.000 A 
ATOM      9  C   UNL     1       3.852   3.303  18.514  0.00  0.00    +0.000 A 
ATOM     10  C   UNL     1       2.463   3.174  18.503  0.00  0.00    +0.000 A 
ATOM     11 CL   UNL     1       1.731   1.622  18.869  0.00  0.00    +0.000 Cl
ATOM     12  C   UNL     1       1.665   4.282  18.211  0.00  0.00    +0.000 A 
ATOM     13  C   UNL     1       2.256   5.516  17.944  0.00  0.00    +0.000 A 
ATOM     14  C   UNL     1       3.650   5.660  17.964  0.00  0.00    +0.000 A 
ATOM     15 CL   UNL     1       4.333   7.241  17.606  0.00  0.00    +0.000 Cl
ENDBRANCH   4   8
BRANCH   1  20
ATOM     16  C   UNL     1       6.056   3.532  12.481  0.00  0.00    +0.000 A 
ATOM     17  C   UNL     1       7.141   4.184  11.873  0.00  0.00    +0.000 A 
ATOM     18  C   UNL     1       7.896   5.108  12.595  0.00  0.00    +0.000 A 
ATOM     19  C   UNL     1       7.575   5.387  13.919  0.00  0.00    +0.000 A 
ATOM     20  C   UNL     1       6.495   4.746  14.556  0.00  0.00    +0.000 A 
ATOM     21  C   UNL     1       5.735   3.822  13.818  0.00  0.00    +0.000 A 
BRANCH  16  23
ATOM     22  C   UNL     1       3.984   3.129  11.110  0.00  0.00    +0.000 C 
ATOM     23  C   UNL     1       5.246   2.517  11.716  0.00  0.00    +0.000 C 
ENDBRANCH  16  23
ENDBRANCH   1  20
TORSDOF 3
ENDMDL
MODEL 2
REMARK VINA RESULT:      -8.2      1.016      2.293
REMARK  Name = 
REMARK  4 active torsions:
REMARK  status: ('A' for Active; 'I' for Inactive)
REMARK    1  A    between atoms: C_1  and  C_2
REMARK    2  A    between atoms: C_2  and  C_3
REMARK    3  A    between atoms: C_7  and  N_8
REMARK    4  A    between atoms: N_11  and  C_12
REMARK                            x       y       z     vdW  Elec       q    Type
REMARK                         _______ _______ _______ _____ _____    ______ ____
ROOT
ATOM      1  N   UNL     1       6.617   5.399  16.064  0.00  0.00    +0.000 N 
ATOM      2  C   UNL     1       7.004   4.748  17.285  0.00  0.00    +0.000 C 
ATOM      3  N   UNL     1       8.078   4.046  17.390  0.00  0.00    +0.000 NA
ATOM      4  N   UNL     1       6.243   5.014  18.463  0.00  0.00    +0.000 N 
ATOM      5  H   UNL     1       6.051   6.251  16.191  0.00  0.00    +0.000 HD
ATOM      6  H   UNL     1       8.730   3.867  16.619  0.00  0.00    +0.000 HD
ATOM      7  H   UNL     1       6.719   4.963  19.375  0.00  0.00    +0.000 HD
ENDROOT
BRANCH   4   8
ATOM      8  C   UNL     1       4.834   5.269  18.426  0.00  0.00    +0.000 A 
ATOM      9  C   UNL     1       4.343   6.551  18.087  0.00  0.00    +0.000 A 
ATOM     10  C   UNL     1       2.974   6.800  18.007  0.00  0.00    +0.000 A 
ATOM     11 CL   UNL     1       2.404   8.399  17.561  0.00  0.00    +0.000 Cl
ATOM     12  C   UNL     1       2.065   5.773  18.271  0.00  0.00    +0.000 A 
ATOM     13  C   UNL     1       2.528   4.500  18.601  0.00  0.00    +0.000 A 
ATOM     14  C   UNL     1       3.903   4.236  18.674  0.00  0.00    +0.000 A 
ATOM     15 CL   UNL     1       4.422   2.613  19.108  0.00  0.00    +0.000 Cl
ENDBRANCH   4   8
BRANCH   1  20
ATOM     16  C   UNL     1       6.165   3.678  12.737  0.00  0.00    +0.000 A 
ATOM     17  C   UNL     1       7.183   4.310  12.003  0.00  0.00    +0.000 A 
ATOM     18  C   UNL     1       7.998   5.263  12.614  0.00  0.00    +0.000 A 
ATOM     19  C   UNL     1       7.804   5.591  13.952  0.00  0.00    +0.000 A 
ATOM     20  C   UNL     1       6.794   4.971  14.713  0.00  0.00    +0.000 A 
ATOM     21  C   UNL     1       5.973   4.018  14.086  0.00  0.00    +0.000 A 
BRANCH  16  23
ATOM     22  C   UNL     1       4.166   3.256  11.267  0.00  0.00    +0.000 C 
ATOM     23  C   UNL     1       5.292   2.633  12.091  0.00  0.00    +0.000 C 
ENDBRANCH  16  23
ENDBRANCH   1  20
TORSDOF 3
ENDMDL
MODEL 3
REMARK VINA RESULT:      -7.8      1.001      1.038
REMARK  Name = 
REMARK  4 active torsions:
REMARK  status: ('A' for Active; 'I' for Inactive)
REMARK    1  A    between atoms: C_1  and  C_2
REMARK    2  A    between atoms: C_2  and  C_3
REMARK    3  A    between atoms: C_7  and  N_8
REMARK    4  A    between atoms: N_11  and  C_12
REMARK                            x       y       z     vdW  Elec       q    Type
REMARK                         _______ _______ _______ _____ _____    ______ ____
ROOT
ATOM      1  N   UNL     1       5.560   5.621  15.452  0.00  0.00    +0.000 N 
ATOM      2  C   UNL     1       6.214   5.932  16.693  0.00  0.00    +0.000 C 
ATOM      3  N   UNL     1       7.449   6.291  16.759  0.00  0.00    +0.000 NA
ATOM      4  N   UNL     1       5.422   5.986  17.878  0.00  0.00    +0.000 N 
ATOM      5  H   UNL     1       4.544   5.795  15.445  0.00  0.00    +0.000 HD
ATOM      6  H   UNL     1       8.075   6.360  15.950  0.00  0.00    +0.000 HD
ATOM      7  H   UNL     1       5.718   6.618  18.637  0.00  0.00    +0.000 HD
ENDROOT
BRANCH   4   8
ATOM      8  C   UNL     1       4.282   5.142  18.081  0.00  0.00    +0.000 A 
ATOM      9  C   UNL     1       4.437   3.741  18.195  0.00  0.00    +0.000 A 
ATOM     10  C   UNL     1       3.340   2.914  18.434  0.00  0.00    +0.000 A 
ATOM     11 CL   UNL     1       3.575   1.181  18.592  0.00  0.00    +0.000 Cl
ATOM     12  C   UNL     1       2.065   3.469  18.556  0.00  0.00    +0.000 A 
ATOM     13  C   UNL     1       1.892   4.848  18.453  0.00  0.00    +0.000 A 
ATOM     14  C   UNL     1       2.989   5.691  18.224  0.00  0.00    +0.000 A 
ATOM     15 CL   UNL     1       2.702   7.421  18.090  0.00  0.00    +0.000 Cl
ENDBRANCH   4   8
BRANCH   1  20
ATOM     16  C   UNL     1       5.932   3.506  12.351  0.00  0.00    +0.000 A 
ATOM     17  C   UNL     1       7.201   3.931  11.924  0.00  0.00    +0.000 A 
ATOM     18  C   UNL     1       7.908   4.879  12.665  0.00  0.00    +0.000 A 
ATOM     19  C   UNL     1       7.355   5.406  13.828  0.00  0.00    +0.000 A 
ATOM     20  C   UNL     1       6.087   4.995  14.281  0.00  0.00    +0.000 A 
ATOM     21  C   UNL     1       5.380   4.046  13.524  0.00  0.00    +0.000 A 
BRANCH  16  23
ATOM     22  C   UNL     1       3.857   3.017  11.014  0.00  0.00    +0.000 C 
ATOM     23  C   UNL     1       5.170   2.468  11.568  0.00  0.00    +0.000 C 
ENDBRANCH  16  23
ENDBRANCH   1  20
TORSDOF 3
ENDMDL
MODEL 4
REMARK VINA RESULT:      -7.3      1.389      2.137
REMARK  Name = 
REMARK  4 active torsions:
REMARK  status: ('A' for Active; 'I' for Inactive)
REMARK    1  A    between atoms: C_1  and  C_2
REMARK    2  A    between atoms: C_2  and  C_3
REMARK    3  A    between atoms: C_7  and  N_8
REMARK    4  A    between atoms: N_11  and  C_12
REMARK                            x       y       z     vdW  Elec       q    Type
REMARK                         _______ _______ _______ _____ _____    ______ ____
ROOT
ATOM      1  N   UNL     1       5.991   4.766  16.405  0.00  0.00    +0.000 N 
ATOM      2  C   UNL     1       6.633   4.278  17.594  0.00  0.00    +0.000 C 
ATOM      3  N   UNL     1       7.909   4.129  17.685  0.00  0.00    +0.000 NA
ATOM      4  N   UNL     1       5.838   4.092  18.764  0.00  0.00    +0.000 N 
ATOM      5  H   UNL     1       5.102   5.261  16.569  0.00  0.00    +0.000 HD
ATOM      6  H   UNL     1       8.569   4.316  16.923  0.00  0.00    +0.000 HD
ATOM      7  H   UNL     1       6.289   4.199  19.685  0.00  0.00    +0.000 HD
ENDROOT
BRANCH   4   8
ATOM      8  C   UNL     1       4.465   3.687  18.704  0.00  0.00    +0.000 A 
ATOM      9  C   UNL     1       3.514   4.471  18.012  0.00  0.00    +0.000 A 
ATOM     10  C   UNL     1       2.184   4.066  17.911  0.00  0.00    +0.000 A 
ATOM     11 CL   UNL     1       1.037   5.056  17.025  0.00  0.00    +0.000 Cl
ATOM     12  C   UNL     1       1.775   2.870  18.505  0.00  0.00    +0.000 A 
ATOM     13  C   UNL     1       2.699   2.079  19.187  0.00  0.00    +0.000 A 
ATOM     14  C   UNL     1       4.041   2.472  19.285  0.00  0.00    +0.000 A 
ATOM     15 CL   UNL     1       5.154   1.436  20.170  0.00  0.00    +0.000 Cl
ENDBRANCH   4   8
BRANCH   1  20
ATOM     16  C   UNL     1       5.992   3.569  12.827  0.00  0.00    +0.000 A 
ATOM     17  C   UNL     1       7.058   4.332  12.322  0.00  0.00    +0.000 A 
ATOM     18  C   UNL     1       7.757   5.199  13.162  0.00  0.00    +0.000 A 
ATOM     19  C   UNL     1       7.399   5.312  14.502  0.00  0.00    +0.000 A 
ATOM     20  C   UNL     1       6.337   4.556  15.035  0.00  0.00    +0.000 A 
ATOM     21  C   UNL     1       5.634   3.692  14.180  0.00  0.00    +0.000 A 
BRANCH  16  23
ATOM     22  C   UNL     1       4.064   3.290  11.233  0.00  0.00    +0.000 C 
ATOM     23  C   UNL     1       5.243   2.615  11.933  0.00  0.00    +0.000 C 
ENDBRANCH  16  23
ENDBRANCH   1  20
TORSDOF 3
ENDMDL
MODEL 5
REMARK VINA RESULT:      -7.2      3.248      7.185
REMARK  Name = 
REMARK  4 active torsions:
REMARK  status: ('A' for Active; 'I' for Inactive)
REMARK    1  A    between atoms: C_1  and  C_2
REMARK    2  A    between atoms: C_2  and  C_3
REMARK    3  A    between atoms: C_7  and  N_8
REMARK    4  A    between atoms: N_11  and  C_12
REMARK                            x       y       z     vdW  Elec       q    Type
REMARK                         _______ _______ _______ _____ _____    ______ ____
ROOT
ATOM      1  N   UNL     1       2.854   5.776  18.491  0.00  0.00    +0.000 N 
ATOM      2  C   UNL     1       3.497   4.837  19.368  0.00  0.00    +0.000 C 
ATOM      3  N   UNL     1       3.143   4.674  20.595  0.00  0.00    +0.000 NA
ATOM      4  N   UNL     1       4.467   3.950  18.813  0.00  0.00    +0.000 N 
ATOM      5  H   UNL     1       2.880   5.521  17.493  0.00  0.00    +0.000 HD
ATOM      6  H   UNL     1       2.401   5.208  21.059  0.00  0.00    +0.000 HD
ATOM      7  H   UNL     1       4.591   3.025  19.249  0.00  0.00    +0.000 HD
ENDROOT
BRANCH   4   8
ATOM      8  C   UNL     1       5.322   4.329  17.727  0.00  0.00    +0.000 A 
ATOM      9  C   UNL     1       4.991   3.982  16.397  0.00  0.00    +0.000 A 
ATOM     10  C   UNL     1       5.794   4.381  15.329  0.00  0.00    +0.000 A 
ATOM     11 CL   UNL     1       5.338   3.951  13.689  0.00  0.00    +0.000 Cl
ATOM     12  C   UNL     1       6.948   5.129  15.569  0.00  0.00    +0.000 A 
ATOM     13  C   UNL     1       7.289   5.485  16.873  0.00  0.00    +0.000 A 
ATOM     14  C   UNL     1       6.484   5.099  17.953  0.00  0.00    +0.000 A 
ATOM     15 CL   UNL     1       6.976   5.570  19.575  0.00  0.00    +0.000 Cl
ENDBRANCH   4   8
BRANCH   1  20
ATOM     16  C   UNL     1       1.429   8.758  20.311  0.00  0.00    +0.000 A 
ATOM     17  C   UNL     1       1.332   9.665  19.242  0.00  0.00    +0.000 A 
ATOM     18  C   UNL     1       1.714   9.276  17.958  0.00  0.00    +0.000 A 
ATOM     19  C   UNL     1       2.195   7.990  17.734  0.00  0.00    +0.000 A 
ATOM     20  C   UNL     1       2.299   7.060  18.786  0.00  0.00    +0.000 A 
ATOM     21  C   UNL     1       1.919   7.463  20.077  0.00  0.00    +0.000 A 
BRANCH  16  23
ATOM     22  C   UNL     1      -0.452   8.781  21.983  0.00  0.00    +0.000 C 
ATOM     23  C   UNL     1       0.999   9.162  21.698  0.00  0.00    +0.000 C 
ENDBRANCH  16  23
ENDBRANCH   1  20
TORSDOF 3
ENDMDL
MODEL 6
REMARK VINA RESULT:      -7.0      3.821      8.004
REMARK  Name = 
REMARK  4 active torsions:
REMARK  status: ('A' for Active; 'I' for Inactive)
REMARK    1  A    between atoms: C_1  and  C_2
REMARK    2  A    between atoms: C_2  and  C_3
REMARK    3  A    between atoms: C_7  and  N_8
REMARK    4  A    between atoms: N_11  and  C_12
REMARK                            x       y       z     vdW  Elec       q    Type
REMARK                         _______ _______ _______ _____ _____    ______ ____
ROOT
ATOM      1  N   UNL     1       2.385   6.254  19.324  0.00  0.00    +0.000 N 
ATOM      2  C   UNL     1       2.926   5.207  20.145  0.00  0.00    +0.000 C 
ATOM      3  N   UNL     1       2.456   4.922  21.310  0.00  0.00    +0.000 NA
ATOM      4  N   UNL     1       3.926   4.357  19.584  0.00  0.00    +0.000 N 
ATOM      5  H   UNL     1       2.498   6.108  18.310  0.00  0.00    +0.000 HD
ATOM      6  H   UNL     1       1.685   5.424  21.761  0.00  0.00    +0.000 HD
ATOM      7  H   UNL     1       3.991   3.387  19.925  0.00  0.00    +0.000 HD
ENDROOT
BRANCH   4   8
ATOM      8  C   UNL     1       4.885   4.826  18.629  0.00  0.00    +0.000 A 
ATOM      9  C   UNL     1       5.964   5.645  19.035  0.00  0.00    +0.000 A 
ATOM     10  C   UNL     1       6.926   6.073  18.121  0.00  0.00    +0.000 A 
ATOM     11 CL   UNL     1       8.263   7.070  18.668  0.00  0.00    +0.000 Cl
ATOM     12  C   UNL     1       6.826   5.696  16.781  0.00  0.00    +0.000 A 
ATOM     13  C   UNL     1       5.774   4.884  16.361  0.00  0.00    +0.000 A 
ATOM     14  C   UNL     1       4.807   4.440  17.273  0.00  0.00    +0.000 A 
ATOM     15 CL   UNL     1       3.497   3.429  16.677  0.00  0.00    +0.000 Cl
ENDBRANCH   4   8
BRANCH   1  20
ATOM     16  C   UNL     1       0.921   9.085  21.342  0.00  0.00    +0.000 A 
ATOM     17  C   UNL     1       0.867  10.080  20.351  0.00  0.00    +0.000 A 
ATOM     18  C   UNL     1       1.290   9.798  19.052  0.00  0.00    +0.000 A 
ATOM     19  C   UNL     1       1.769   8.530  18.736  0.00  0.00    +0.000 A 
ATOM     20  C   UNL     1       1.830   7.513  19.708  0.00  0.00    +0.000 A 
ATOM     21  C   UNL     1       1.409   7.809  21.015  0.00  0.00    +0.000 A 
BRANCH  16  23
ATOM     22  C   UNL     1      -0.674  10.413  22.767  0.00  0.00    +0.000 C 
ATOM     23  C   UNL     1       0.447   9.375  22.743  0.00  0.00    +0.000 C 
ENDBRANCH  16  23
ENDBRANCH   1  20
TORSDOF 3
ENDMDL
MODEL 7
REMARK VINA RESULT:      -7.0      1.992      3.359
REMARK  Name = 
REMARK  4 active torsions:
REMARK  status: ('A' for Active; 'I' for Inactive)
REMARK    1  A    between atoms: C_1  and  C_2
REMARK    2  A    between atoms: C_2  and  C_3
REMARK    3  A    between atoms: C_7  and  N_8
REMARK    4  A    between atoms: N_11  and  C_12
REMARK                            x       y       z     vdW  Elec       q    Type
REMARK                         _______ _______ _______ _____ _____    ______ ____
ROOT
ATOM      1  N   UNL     1       5.133   3.796  17.788  0.00  0.00    +0.000 N 
ATOM      2  C   UNL     1       4.144   2.809  18.124  0.00  0.00    +0.000 C 
ATOM      3  N   UNL     1       4.107   1.645  17.574  0.00  0.00    +0.000 NA
ATOM      4  N   UNL     1       3.263   3.079  19.213  0.00  0.00    +0.000 N 
ATOM      5  H   UNL     1       5.359   4.454  18.548  0.00  0.00    +0.000 HD
ATOM      6  H   UNL     1       4.750   1.331  16.840  0.00  0.00    +0.000 HD
ATOM      7  H   UNL     1       2.895   2.282  19.754  0.00  0.00    +0.000 HD
ENDROOT
BRANCH   4   8
ATOM      8  C   UNL     1       2.814   4.402  19.529  0.00  0.00    +0.000 A 
ATOM      9  C   UNL     1       3.020   5.467  18.621  0.00  0.00    +0.000 A 
ATOM     10  C   UNL     1       2.551   6.750  18.900  0.00  0.00    +0.000 A 
ATOM     11 CL   UNL     1       2.806   8.041  17.738  0.00  0.00    +0.000 Cl
ATOM     12  C   UNL     1       1.872   6.997  20.094  0.00  0.00    +0.000 A 
ATOM     13  C   UNL     1       1.653   5.960  21.000  0.00  0.00    +0.000 A 
ATOM     14  C   UNL     1       2.111   4.664  20.725  0.00  0.00    +0.000 A 
ATOM     15 CL   UNL     1       1.815   3.402  21.914  0.00  0.00    +0.000 Cl
ENDBRANCH   4   8
BRANCH   1  20
ATOM     16  C   UNL     1       5.779   4.133  14.086  0.00  0.00    +0.000 A 
ATOM     17  C   UNL     1       7.025   4.781  14.121  0.00  0.00    +0.000 A 
ATOM     18  C   UNL     1       7.628   5.074  15.344  0.00  0.00    +0.000 A 
ATOM     19  C   UNL     1       6.995   4.726  16.534  0.00  0.00    +0.000 A 
ATOM     20  C   UNL     1       5.748   4.072  16.529  0.00  0.00    +0.000 A 
ATOM     21  C   UNL     1       5.145   3.788  15.292  0.00  0.00    +0.000 A 
BRANCH  16  23
ATOM     22  C   UNL     1       6.005   2.879  11.916  0.00  0.00    +0.000 C 
ATOM     23  C   UNL     1       5.129   3.795  12.770  0.00  0.00    +0.000 C 
ENDBRANCH  16  23
ENDBRANCH   1  20
TORSDOF 3
ENDMDL
MODEL 8
REMARK VINA RESULT:      -6.9      2.999      6.874
REMARK  Name = 
REMARK  4 active torsions:
REMARK  status: ('A' for Active; 'I' for Inactive)
REMARK    1  A    between atoms: C_1  and  C_2
REMARK    2  A    between atoms: C_2  and  C_3
REMARK    3  A    between atoms: C_7  and  N_8
REMARK    4  A    between atoms: N_11  and  C_12
REMARK                            x       y       z     vdW  Elec       q    Type
REMARK                         _______ _______ _______ _____ _____    ______ ____
ROOT
ATOM      1  N   UNL     1       3.083   5.155  18.225  0.00  0.00    +0.000 N 
ATOM      2  C   UNL     1       3.738   4.037  18.845  0.00  0.00    +0.000 C 
ATOM      3  N   UNL     1       3.420   3.605  20.017  0.00  0.00    +0.000 NA
ATOM      4  N   UNL     1       4.675   3.289  18.072  0.00  0.00    +0.000 N 
ATOM      5  H   UNL     1       3.073   5.130  17.195  0.00  0.00    +0.000 HD
ATOM      6  H   UNL     1       2.702   4.029  20.614  0.00  0.00    +0.000 HD
ATOM      7  H   UNL     1       4.797   2.288  18.286  0.00  0.00    +0.000 HD
ENDROOT
BRANCH   4   8
ATOM      8  C   UNL     1       5.501   3.893  17.071  0.00  0.00    +0.000 A 
ATOM      9  C   UNL     1       5.364   3.531  15.710  0.00  0.00    +0.000 A 
ATOM     10  C   UNL     1       6.133   4.143  14.722  0.00  0.00    +0.000 A 
ATOM     11 CL   UNL     1       5.918   3.683  13.042  0.00  0.00    +0.000 Cl
ATOM     12  C   UNL     1       7.061   5.125  15.073  0.00  0.00    +0.000 A 
ATOM     13  C   UNL     1       7.208   5.501  16.408  0.00  0.00    +0.000 A 
ATOM     14  C   UNL     1       6.432   4.900  17.408  0.00  0.00    +0.000 A 
ATOM     15 CL   UNL     1       6.674   5.409  19.074  0.00  0.00    +0.000 Cl
ENDBRANCH   4   8
BRANCH   1  20
ATOM     16  C   UNL     1       1.858   8.684  18.756  0.00  0.00    +0.000 A 
ATOM     17  C   UNL     1       1.397   8.579  20.078  0.00  0.00    +0.000 A 
ATOM     18  C   UNL     1       1.514   7.371  20.766  0.00  0.00    +0.000 A 
ATOM     19  C   UNL     1       2.085   6.266  20.142  0.00  0.00    +0.000 A 
ATOM     20  C   UNL     1       2.559   6.344  18.819  0.00  0.00    +0.000 A 
ATOM     21  C   UNL     1       2.430   7.563  18.132  0.00  0.00    +0.000 A 
BRANCH  16  23
ATOM     22  C   UNL     1       0.833  10.982  18.719  0.00  0.00    +0.000 C 
ATOM     23  C   UNL     1       1.755   9.990  18.011  0.00  0.00    +0.000 C 
ENDBRANCH  16  23
ENDBRANCH   1  20
TORSDOF 3
ENDMDL
MODEL 9
REMARK VINA RESULT:      -6.7      3.965      7.680
REMARK  Name = 
REMARK  4 active torsions:
REMARK  status: ('A' for Active; 'I' for Inactive)
REMARK    1  A    between atoms: C_1  and  C_2
REMARK    2  A    between atoms: C_2  and  C_3
REMARK    3  A    between atoms: C_7  and  N_8
REMARK    4  A    between atoms: N_11  and  C_12
REMARK                            x       y       z     vdW  Elec       q    Type
REMARK                         _______ _______ _______ _____ _____    ______ ____
ROOT
ATOM      1  N   UNL     1       2.815   7.012  18.128  0.00  0.00    +0.000 N 
ATOM      2  C   UNL     1       2.874   5.577  18.140  0.00  0.00    +0.000 C 
ATOM      3  N   UNL     1       1.852   4.840  18.411  0.00  0.00    +0.000 NA
ATOM      4  N   UNL     1       4.072   4.945  17.692  0.00  0.00    +0.000 N 
ATOM      5  H   UNL     1       3.488   7.465  17.492  0.00  0.00    +0.000 HD
ATOM      6  H   UNL     1       0.928   5.204  18.664  0.00  0.00    +0.000 HD
ATOM      7  H   UNL     1       4.002   4.011  17.263  0.00  0.00    +0.000 HD
ENDROOT
BRANCH   4   8
ATOM      8  C   UNL     1       5.367   5.527  17.889  0.00  0.00    +0.000 A 
ATOM      9  C   UNL     1       6.119   5.230  19.049  0.00  0.00    +0.000 A 
ATOM     10  C   UNL     1       7.398   5.757  19.231  0.00  0.00    +0.000 A 
ATOM     11 CL   UNL     1       8.310   5.348  20.674  0.00  0.00    +0.000 Cl
ATOM     12  C   UNL     1       7.947   6.596  18.261  0.00  0.00    +0.000 A 
ATOM     13  C   UNL     1       7.224   6.897  17.107  0.00  0.00    +0.000 A 
ATOM     14  C   UNL     1       5.943   6.364  16.909  0.00  0.00    +0.000 A 
ATOM     15 CL   UNL     1       5.077   6.791  15.438  0.00  0.00    +0.000 Cl
ENDBRANCH   4   8
BRANCH   1  20
ATOM     16  C   UNL     1       0.608   9.832  19.316  0.00  0.00    +0.000 A 
ATOM     17  C   UNL     1       0.490   9.485  20.673  0.00  0.00    +0.000 A 
ATOM     18  C   UNL     1       1.145   8.357  21.166  0.00  0.00    +0.000 A 
ATOM     19  C   UNL     1       1.916   7.570  20.315  0.00  0.00    +0.000 A 
ATOM     20  C   UNL     1       2.055   7.896  18.953  0.00  0.00    +0.000 A 
ATOM     21  C   UNL     1       1.385   9.030  18.463  0.00  0.00    +0.000 A 
BRANCH  16  23
ATOM     22  C   UNL     1      -1.154  11.580  19.732  0.00  0.00    +0.000 C 
ATOM     23  C   UNL     1      -0.079  11.060  18.778  0.00  0.00    +0.000 C 
ENDBRANCH  16  23
ENDBRANCH   1  20
TORSDOF 3
ENDMDL
