MODEL 1
REMARK VINA RESULT:      -6.2      0.000      0.000
REMARK  Name = 
REMARK  6 active torsions:
REMARK  status: ('A' for Active; 'I' for Inactive)
REMARK    1  A    between atoms: C_1  and  C_2
REMARK    2  A    between atoms: C_12  and  O_14
REMARK    3  A    between atoms: O_14  and  C_15
REMARK    4  A    between atoms: C_15  and  C_16
REMARK    5  A    between atoms: C_15  and  C_17
REMARK    6  A    between atoms: C_15  and  C_18
REMARK                            x       y       z     vdW  Elec       q    Type
REMARK                         _______ _______ _______ _____ _____    ______ ____
ROOT
ATOM      1  C   UNL     1       0.939   9.064  22.346  0.00  0.00    +0.000 C 
ATOM      2  C   UNL     1       1.285   8.229  21.175  0.00  0.00    +0.000 A 
ATOM      3  C   UNL     1       1.669   8.668  19.893  0.00  0.00    +0.000 A 
ATOM      4  N   UNL     1       2.025   7.668  19.087  0.00  0.00    +0.000 NA
ATOM      5  N   UNL     1       1.820   6.540  19.833  0.00  0.00    +0.000 N 
ATOM      6  C   UNL     1       2.091   5.258  19.299  0.00  0.00    +0.000 C 
ATOM      7  O   UNL     1       1.286   4.349  19.475  0.00  0.00    +0.000 OA
ATOM      8  N   UNL     1       3.314   5.163  18.637  0.00  0.00    +0.000 N 
ATOM      9  C   UNL     1       4.422   6.111  18.845  0.00  0.00    +0.000 C 
ATOM     10  C   UNL     1       5.780   5.408  18.819  0.00  0.00    +0.000 C 
ATOM     11  N   UNL     1       5.919   4.606  17.609  0.00  0.00    +0.000 N 
ATOM     12  C   UNL     1       6.970   4.867  16.758  0.00  0.00    +0.000 C 
ATOM     13  O   UNL     1       7.797   5.740  16.996  0.00  0.00    +0.000 OA
ATOM     14  C   UNL     1       4.870   3.605  17.411  0.00  0.00    +0.000 C 
ATOM     15  C   UNL     1       3.462   4.230  17.516  0.00  0.00    +0.000 C 
ATOM     16  C   UNL     1       1.318   6.853  21.082  0.00  0.00    +0.000 A 
ENDROOT
BRANCH  12  17
ATOM     17  O   UNL     1       6.996   4.087  15.642  0.00  0.00    +0.000 OA
BRANCH  17  18
ATOM     18  C   UNL     1       6.543   4.650  14.377  0.00  0.00    +0.000 C 
ATOM     19  C   UNL     1       7.717   5.173  13.535  0.00  0.00    +0.000 C 
ATOM     20  C   UNL     1       5.889   3.492  13.604  0.00  0.00    +0.000 C 
ATOM     21  C   UNL     1       5.471   5.730  14.596  0.00  0.00    +0.000 C 
ENDBRANCH  17  18
ENDBRANCH  12  17
TORSDOF 2
ENDMDL
MODEL 2
REMARK VINA RESULT:      -6.2      3.052      7.799
REMARK  Name = 
REMARK  6 active torsions:
REMARK  status: ('A' for Active; 'I' for Inactive)
REMARK    1  A    between atoms: C_1  and  C_2
REMARK    2  A    between atoms: C_12  and  O_14
REMARK    3  A    between atoms: O_14  and  C_15
REMARK    4  A    between atoms: C_15  and  C_16
REMARK    5  A    between atoms: C_15  and  C_17
REMARK    6  A    between atoms: C_15  and  C_18
REMARK                            x       y       z     vdW  Elec       q    Type
REMARK                         _______ _______ _______ _____ _____    ______ ____
ROOT
ATOM      1  C   UNL     1       5.862   4.198  14.724  0.00  0.00    +0.000 C 
ATOM      2  C   UNL     1       5.382   4.839  15.968  0.00  0.00    +0.000 A 
ATOM      3  C   UNL     1       5.966   5.922  16.654  0.00  0.00    +0.000 A 
ATOM      4  N   UNL     1       5.231   6.341  17.683  0.00  0.00    +0.000 NA
ATOM      5  N   UNL     1       4.165   5.483  17.712  0.00  0.00    +0.000 N 
ATOM      6  C   UNL     1       3.152   5.618  18.691  0.00  0.00    +0.000 C 
ATOM      7  O   UNL     1       2.731   4.618  19.264  0.00  0.00    +0.000 OA
ATOM      8  N   UNL     1       2.704   6.926  18.871  0.00  0.00    +0.000 N 
ATOM      9  C   UNL     1       2.891   7.990  17.871  0.00  0.00    +0.000 C 
ATOM     10  C   UNL     1       1.678   8.918  17.799  0.00  0.00    +0.000 C 
ATOM     11  N   UNL     1       1.335   9.419  19.125  0.00  0.00    +0.000 N 
ATOM     12  C   UNL     1       1.320  10.780  19.335  0.00  0.00    +0.000 C 
ATOM     13  O   UNL     1       1.570  11.579  18.440  0.00  0.00    +0.000 OA
ATOM     14  C   UNL     1       1.073   8.383  20.123  0.00  0.00    +0.000 C 
ATOM     15  C   UNL     1       2.220   7.352  20.188  0.00  0.00    +0.000 C 
ATOM     16  C   UNL     1       4.265   4.531  16.717  0.00  0.00    +0.000 A 
ENDROOT
BRANCH  12  17
ATOM     17  O   UNL     1       1.020  11.147  20.612  0.00  0.00    +0.000 OA
BRANCH  17  18
ATOM     18  C   UNL     1      -0.257  11.796  20.878  0.00  0.00    +0.000 C 
ATOM     19  C   UNL     1      -1.330  11.377  19.862  0.00  0.00    +0.000 C 
ATOM     20  C   UNL     1      -0.705  11.304  22.265  0.00  0.00    +0.000 C 
ATOM     21  C   UNL     1      -0.104  13.323  20.951  0.00  0.00    +0.000 C 
ENDBRANCH  17  18
ENDBRANCH  12  17
TORSDOF 2
ENDMDL
MODEL 3
REMARK VINA RESULT:      -6.0      3.200      7.936
REMARK  Name = 
REMARK  6 active torsions:
REMARK  status: ('A' for Active; 'I' for Inactive)
REMARK    1  A    between atoms: C_1  and  C_2
REMARK    2  A    between atoms: C_12  and  O_14
REMARK    3  A    between atoms: O_14  and  C_15
REMARK    4  A    between atoms: C_15  and  C_16
REMARK    5  A    between atoms: C_15  and  C_17
REMARK    6  A    between atoms: C_15  and  C_18
REMARK                            x       y       z     vdW  Elec       q    Type
REMARK                         _______ _______ _______ _____ _____    ______ ____
ROOT
ATOM      1  C   UNL     1       5.431   4.104  15.174  0.00  0.00    +0.000 C 
ATOM      2  C   UNL     1       4.970   4.818  16.384  0.00  0.00    +0.000 A 
ATOM      3  C   UNL     1       5.606   5.891  17.040  0.00  0.00    +0.000 A 
ATOM      4  N   UNL     1       4.881   6.391  18.040  0.00  0.00    +0.000 NA
ATOM      5  N   UNL     1       3.767   5.597  18.082  0.00  0.00    +0.000 N 
ATOM      6  C   UNL     1       2.748   5.827  19.038  0.00  0.00    +0.000 C 
ATOM      7  O   UNL     1       2.262   4.875  19.641  0.00  0.00    +0.000 OA
ATOM      8  N   UNL     1       2.374   7.163  19.162  0.00  0.00    +0.000 N 
ATOM      9  C   UNL     1       2.638   8.177  18.126  0.00  0.00    +0.000 C 
ATOM     10  C   UNL     1       1.481   9.169  17.998  0.00  0.00    +0.000 C 
ATOM     11  N   UNL     1       1.148   9.739  19.299  0.00  0.00    +0.000 N 
ATOM     12  C   UNL     1       1.209  11.105  19.459  0.00  0.00    +0.000 C 
ATOM     13  O   UNL     1       1.517  11.854  18.538  0.00  0.00    +0.000 OA
ATOM     14  C   UNL     1       0.811   8.758  20.331  0.00  0.00    +0.000 C 
ATOM     15  C   UNL     1       1.897   7.667  20.454  0.00  0.00    +0.000 C 
ATOM     16  C   UNL     1       3.827   4.603  17.125  0.00  0.00    +0.000 A 
ENDROOT
BRANCH  12  17
ATOM     17  O   UNL     1       0.911  11.537  20.715  0.00  0.00    +0.000 OA
BRANCH  17  18
ATOM     18  C   UNL     1      -0.392  12.139  20.965  0.00  0.00    +0.000 C 
ATOM     19  C   UNL     1      -0.991  11.663  22.297  0.00  0.00    +0.000 C 
ATOM     20  C   UNL     1      -0.149  13.654  21.073  0.00  0.00    +0.000 C 
ATOM     21  C   UNL     1      -1.353  11.903  19.789  0.00  0.00    +0.000 C 
ENDBRANCH  17  18
ENDBRANCH  12  17
TORSDOF 2
ENDMDL
MODEL 4
REMARK VINA RESULT:      -6.0      3.169      7.681
REMARK  Name = 
REMARK  6 active torsions:
REMARK  status: ('A' for Active; 'I' for Inactive)
REMARK    1  A    between atoms: C_1  and  C_2
REMARK    2  A    between atoms: C_12  and  O_14
REMARK    3  A    between atoms: O_14  and  C_15
REMARK    4  A    between atoms: C_15  and  C_16
REMARK    5  A    between atoms: C_15  and  C_17
REMARK    6  A    between atoms: C_15  and  C_18
REMARK                            x       y       z     vdW  Elec       q    Type
REMARK                         _______ _______ _______ _____ _____    ______ ____
ROOT
ATOM      1  C   UNL     1       4.706   1.825  20.078  0.00  0.00    +0.000 C 
ATOM      2  C   UNL     1       4.011   2.957  19.427  0.00  0.00    +0.000 A 
ATOM      3  C   UNL     1       2.628   3.094  19.194  0.00  0.00    +0.000 A 
ATOM      4  N   UNL     1       2.302   4.282  18.688  0.00  0.00    +0.000 NA
ATOM      5  N   UNL     1       3.500   4.925  18.532  0.00  0.00    +0.000 N 
ATOM      6  C   UNL     1       3.554   6.238  18.006  0.00  0.00    +0.000 C 
ATOM      7  O   UNL     1       4.400   6.514  17.161  0.00  0.00    +0.000 OA
ATOM      8  N   UNL     1       2.623   7.114  18.562  0.00  0.00    +0.000 N 
ATOM      9  C   UNL     1       1.966   6.879  19.859  0.00  0.00    +0.000 C 
ATOM     10  C   UNL     1       1.784   8.179  20.644  0.00  0.00    +0.000 C 
ATOM     11  N   UNL     1       1.115   9.184  19.825  0.00  0.00    +0.000 N 
ATOM     12  C   UNL     1      -0.071   9.721  20.273  0.00  0.00    +0.000 C 
ATOM     13  O   UNL     1      -0.570   9.392  21.343  0.00  0.00    +0.000 OA
ATOM     14  C   UNL     1       1.785   9.491  18.561  0.00  0.00    +0.000 C 
ATOM     15  C   UNL     1       2.084   8.211  17.751  0.00  0.00    +0.000 C 
ATOM     16  C   UNL     1       4.552   4.120  18.920  0.00  0.00    +0.000 A 
ENDROOT
BRANCH  12  17
ATOM     17  O   UNL     1      -0.633  10.626  19.424  0.00  0.00    +0.000 OA
BRANCH  17  18
ATOM     18  C   UNL     1      -0.639  12.034  19.797  0.00  0.00    +0.000 C 
ATOM     19  C   UNL     1       0.570  12.395  20.674  0.00  0.00    +0.000 C 
ATOM     20  C   UNL     1      -0.519  12.825  18.483  0.00  0.00    +0.000 C 
ATOM     21  C   UNL     1      -1.966  12.432  20.462  0.00  0.00    +0.000 C 
ENDBRANCH  17  18
ENDBRANCH  12  17
TORSDOF 2
ENDMDL
MODEL 5
REMARK VINA RESULT:      -5.8      3.323      7.810
REMARK  Name = 
REMARK  6 active torsions:
REMARK  status: ('A' for Active; 'I' for Inactive)
REMARK    1  A    between atoms: C_1  and  C_2
REMARK    2  A    between atoms: C_12  and  O_14
REMARK    3  A    between atoms: O_14  and  C_15
REMARK    4  A    between atoms: C_15  and  C_16
REMARK    5  A    between atoms: C_15  and  C_17
REMARK    6  A    between atoms: C_15  and  C_18
REMARK                            x       y       z     vdW  Elec       q    Type
REMARK                         _______ _______ _______ _____ _____    ______ ____
ROOT
ATOM      1  C   UNL     1       4.555   2.126  20.137  0.00  0.00    +0.000 C 
ATOM      2  C   UNL     1       3.874   3.254  19.465  0.00  0.00    +0.000 A 
ATOM      3  C   UNL     1       2.495   3.397  19.217  0.00  0.00    +0.000 A 
ATOM      4  N   UNL     1       2.181   4.581  18.692  0.00  0.00    +0.000 NA
ATOM      5  N   UNL     1       3.385   5.213  18.538  0.00  0.00    +0.000 N 
ATOM      6  C   UNL     1       3.453   6.519  17.995  0.00  0.00    +0.000 C 
ATOM      7  O   UNL     1       4.309   6.778  17.154  0.00  0.00    +0.000 OA
ATOM      8  N   UNL     1       2.523   7.409  18.530  0.00  0.00    +0.000 N 
ATOM      9  C   UNL     1       1.852   7.196  19.824  0.00  0.00    +0.000 C 
ATOM     10  C   UNL     1       1.672   8.508  20.590  0.00  0.00    +0.000 C 
ATOM     11  N   UNL     1       1.018   9.505  19.751  0.00  0.00    +0.000 N 
ATOM     12  C   UNL     1      -0.169  10.056  20.181  0.00  0.00    +0.000 C 
ATOM     13  O   UNL     1      -0.680   9.746  21.250  0.00  0.00    +0.000 OA
ATOM     14  C   UNL     1       1.701   9.791  18.489  0.00  0.00    +0.000 C 
ATOM     15  C   UNL     1       1.999   8.498  17.700  0.00  0.00    +0.000 C 
ATOM     16  C   UNL     1       4.428   4.406  18.946  0.00  0.00    +0.000 A 
ENDROOT
BRANCH  12  17
ATOM     17  O   UNL     1      -0.717  10.954  19.315  0.00  0.00    +0.000 OA
BRANCH  17  18
ATOM     18  C   UNL     1      -0.721  12.366  19.671  0.00  0.00    +0.000 C 
ATOM     19  C   UNL     1      -2.008  12.761  20.412  0.00  0.00    +0.000 C 
ATOM     20  C   UNL     1       0.458  12.567  20.638  0.00  0.00    +0.000 C 
ATOM     21  C   UNL     1      -0.474  13.255  18.442  0.00  0.00    +0.000 C 
ENDBRANCH  17  18
ENDBRANCH  12  17
TORSDOF 2
ENDMDL
MODEL 6
REMARK VINA RESULT:      -5.8      2.404      7.584
REMARK  Name = 
REMARK  6 active torsions:
REMARK  status: ('A' for Active; 'I' for Inactive)
REMARK    1  A    between atoms: C_1  and  C_2
REMARK    2  A    between atoms: C_12  and  O_14
REMARK    3  A    between atoms: O_14  and  C_15
REMARK    4  A    between atoms: C_15  and  C_16
REMARK    5  A    between atoms: C_15  and  C_17
REMARK    6  A    between atoms: C_15  and  C_18
REMARK                            x       y       z     vdW  Elec       q    Type
REMARK                         _______ _______ _______ _____ _____    ______ ____
ROOT
ATOM      1  C   UNL     1       6.617   1.144  10.721  0.00  0.00    +0.000 C 
ATOM      2  C   UNL     1       6.291   2.288  11.600  0.00  0.00    +0.000 A 
ATOM      3  C   UNL     1       5.013   2.797  11.904  0.00  0.00    +0.000 A 
ATOM      4  N   UNL     1       5.044   3.766  12.818  0.00  0.00    +0.000 NA
ATOM      5  N   UNL     1       6.375   3.940  13.084  0.00  0.00    +0.000 N 
ATOM      6  C   UNL     1       6.806   4.906  14.025  0.00  0.00    +0.000 C 
ATOM      7  O   UNL     1       7.761   5.628  13.752  0.00  0.00    +0.000 OA
ATOM      8  N   UNL     1       6.088   4.899  15.219  0.00  0.00    +0.000 N 
ATOM      9  C   UNL     1       5.288   3.749  15.676  0.00  0.00    +0.000 C 
ATOM     10  C   UNL     1       5.382   3.563  17.191  0.00  0.00    +0.000 C 
ATOM     11  N   UNL     1       5.062   4.806  17.882  0.00  0.00    +0.000 N 
ATOM     12  C   UNL     1       4.020   4.814  18.782  0.00  0.00    +0.000 C 
ATOM     13  O   UNL     1       3.367   3.807  19.031  0.00  0.00    +0.000 OA
ATOM     14  C   UNL     1       5.888   5.951  17.500  0.00  0.00    +0.000 C 
ATOM     15  C   UNL     1       5.915   6.147  15.969  0.00  0.00    +0.000 C 
ATOM     16  C   UNL     1       7.151   3.094  12.316  0.00  0.00    +0.000 A 
ENDROOT
BRANCH  12  17
ATOM     17  O   UNL     1       3.779   6.028  19.351  0.00  0.00    +0.000 OA
BRANCH  17  18
ATOM     18  C   UNL     1       2.603   6.781  18.936  0.00  0.00    +0.000 C 
ATOM     19  C   UNL     1       1.590   5.892  18.197  0.00  0.00    +0.000 C 
ATOM     20  C   UNL     1       1.935   7.278  20.230  0.00  0.00    +0.000 C 
ATOM     21  C   UNL     1       2.991   8.016  18.108  0.00  0.00    +0.000 C 
ENDBRANCH  17  18
ENDBRANCH  12  17
TORSDOF 2
ENDMDL
MODEL 7
REMARK VINA RESULT:      -5.7      3.342      7.959
REMARK  Name = 
REMARK  6 active torsions:
REMARK  status: ('A' for Active; 'I' for Inactive)
REMARK    1  A    between atoms: C_1  and  C_2
REMARK    2  A    between atoms: C_12  and  O_14
REMARK    3  A    between atoms: O_14  and  C_15
REMARK    4  A    between atoms: C_15  and  C_16
REMARK    5  A    between atoms: C_15  and  C_17
REMARK    6  A    between atoms: C_15  and  C_18
REMARK                            x       y       z     vdW  Elec       q    Type
REMARK                         _______ _______ _______ _____ _____    ______ ____
ROOT
ATOM      1  C   UNL     1       5.079   3.633  16.216  0.00  0.00    +0.000 C 
ATOM      2  C   UNL     1       4.612   4.509  17.312  0.00  0.00    +0.000 A 
ATOM      3  C   UNL     1       5.290   5.604  17.882  0.00  0.00    +0.000 A 
ATOM      4  N   UNL     1       4.554   6.261  18.778  0.00  0.00    +0.000 NA
ATOM      5  N   UNL     1       3.385   5.554  18.842  0.00  0.00    +0.000 N 
ATOM      6  C   UNL     1       2.340   5.958  19.707  0.00  0.00    +0.000 C 
ATOM      7  O   UNL     1       1.756   5.116  20.382  0.00  0.00    +0.000 OA
ATOM      8  N   UNL     1       2.058   7.322  19.661  0.00  0.00    +0.000 N 
ATOM      9  C   UNL     1       2.446   8.192  18.537  0.00  0.00    +0.000 C 
ATOM     10  C   UNL     1       1.372   9.238  18.235  0.00  0.00    +0.000 C 
ATOM     11  N   UNL     1       1.017   9.973  19.444  0.00  0.00    +0.000 N 
ATOM     12  C   UNL     1       1.170  11.341  19.456  0.00  0.00    +0.000 C 
ATOM     13  O   UNL     1       1.577  11.959  18.479  0.00  0.00    +0.000 OA
ATOM     14  C   UNL     1       0.559   9.140  20.556  0.00  0.00    +0.000 C 
ATOM     15  C   UNL     1       1.555   8.000  20.860  0.00  0.00    +0.000 C 
ATOM     16  C   UNL     1       3.420   4.456  18.005  0.00  0.00    +0.000 A 
ENDROOT
BRANCH  12  17
ATOM     17  O   UNL     1       0.842  11.932  20.638  0.00  0.00    +0.000 OA
BRANCH  17  18
ATOM     18  C   UNL     1      -0.406  12.677  20.733  0.00  0.00    +0.000 C 
ATOM     19  C   UNL     1      -1.464  12.140  19.757  0.00  0.00    +0.000 C 
ATOM     20  C   UNL     1      -0.929  12.455  22.163  0.00  0.00    +0.000 C 
ATOM     21  C   UNL     1      -0.174  14.186  20.551  0.00  0.00    +0.000 C 
ENDBRANCH  17  18
ENDBRANCH  12  17
TORSDOF 2
ENDMDL
MODEL 8
REMARK VINA RESULT:      -5.5      2.120      7.455
REMARK  Name = 
REMARK  6 active torsions:
REMARK  status: ('A' for Active; 'I' for Inactive)
REMARK    1  A    between atoms: C_1  and  C_2
REMARK    2  A    between atoms: C_12  and  O_14
REMARK    3  A    between atoms: O_14  and  C_15
REMARK    4  A    between atoms: C_15  and  C_16
REMARK    5  A    between atoms: C_15  and  C_17
REMARK    6  A    between atoms: C_15  and  C_18
REMARK                            x       y       z     vdW  Elec       q    Type
REMARK                         _______ _______ _______ _____ _____    ______ ____
ROOT
ATOM      1  C   UNL     1       7.000   4.341  13.661  0.00  0.00    +0.000 C 
ATOM      2  C   UNL     1       6.562   4.605  15.049  0.00  0.00    +0.000 A 
ATOM      3  C   UNL     1       6.957   5.668  15.884  0.00  0.00    +0.000 A 
ATOM      4  N   UNL     1       6.297   5.692  17.042  0.00  0.00    +0.000 NA
ATOM      5  N   UNL     1       5.489   4.589  16.995  0.00  0.00    +0.000 N 
ATOM      6  C   UNL     1       4.624   4.277  18.071  0.00  0.00    +0.000 C 
ATOM      7  O   UNL     1       4.546   3.117  18.465  0.00  0.00    +0.000 OA
ATOM      8  N   UNL     1       3.901   5.366  18.556  0.00  0.00    +0.000 N 
ATOM      9  C   UNL     1       3.678   6.598  17.781  0.00  0.00    +0.000 C 
ATOM     10  C   UNL     1       2.277   7.167  18.014  0.00  0.00    +0.000 C 
ATOM     11  N   UNL     1       2.017   7.320  19.441  0.00  0.00    +0.000 N 
ATOM     12  C   UNL     1       1.701   8.570  19.926  0.00  0.00    +0.000 C 
ATOM     13  O   UNL     1       1.617   9.549  19.193  0.00  0.00    +0.000 OA
ATOM     14  C   UNL     1       2.161   6.095  20.227  0.00  0.00    +0.000 C 
ATOM     15  C   UNL     1       3.523   5.414  19.972  0.00  0.00    +0.000 C 
ATOM     16  C   UNL     1       5.674   3.885  15.821  0.00  0.00    +0.000 A 
ENDROOT
BRANCH  12  17
ATOM     17  O   UNL     1       1.507   8.617  21.273  0.00  0.00    +0.000 OA
BRANCH  17  18
ATOM     18  C   UNL     1       0.317   9.278  21.792  0.00  0.00    +0.000 C 
ATOM     19  C   UNL     1       0.043  10.605  21.067  0.00  0.00    +0.000 C 
ATOM     20  C   UNL     1      -0.859   8.331  21.501  0.00  0.00    +0.000 C 
ATOM     21  C   UNL     1       0.400   9.466  23.315  0.00  0.00    +0.000 C 
ENDBRANCH  17  18
ENDBRANCH  12  17
TORSDOF 2
ENDMDL
MODEL 9
REMARK VINA RESULT:      -5.5      3.562      8.651
REMARK  Name = 
REMARK  6 active torsions:
REMARK  status: ('A' for Active; 'I' for Inactive)
REMARK    1  A    between atoms: C_1  and  C_2
REMARK    2  A    between atoms: C_12  and  O_14
REMARK    3  A    between atoms: O_14  and  C_15
REMARK    4  A    between atoms: C_15  and  C_16
REMARK    5  A    between atoms: C_15  and  C_17
REMARK    6  A    between atoms: C_15  and  C_18
REMARK                            x       y       z     vdW  Elec       q    Type
REMARK                         _______ _______ _______ _____ _____    ______ ____
ROOT
ATOM      1  C   UNL     1       4.238   2.625  20.157  0.00  0.00    +0.000 C 
ATOM      2  C   UNL     1       3.437   3.796  19.739  0.00  0.00    +0.000 A 
ATOM      3  C   UNL     1       2.034   3.918  19.739  0.00  0.00    +0.000 A 
ATOM      4  N   UNL     1       1.618   5.141  19.412  0.00  0.00    +0.000 NA
ATOM      5  N   UNL     1       2.769   5.828  19.136  0.00  0.00    +0.000 N 
ATOM      6  C   UNL     1       2.726   7.187  18.742  0.00  0.00    +0.000 C 
ATOM      7  O   UNL     1       3.424   7.566  17.807  0.00  0.00    +0.000 OA
ATOM      8  N   UNL     1       1.884   7.979  19.521  0.00  0.00    +0.000 N 
ATOM      9  C   UNL     1       1.442   7.602  20.874  0.00  0.00    +0.000 C 
ATOM     10  C   UNL     1       1.372   8.815  21.804  0.00  0.00    +0.000 C 
ATOM     11  N   UNL     1       0.571   9.876  21.204  0.00  0.00    +0.000 N 
ATOM     12  C   UNL     1      -0.536  10.335  21.883  0.00  0.00    +0.000 C 
ATOM     13  O   UNL     1      -0.856   9.890  22.980  0.00  0.00    +0.000 OA
ATOM     14  C   UNL     1       1.029  10.322  19.889  0.00  0.00    +0.000 C 
ATOM     15  C   UNL     1       1.212   9.135  18.918  0.00  0.00    +0.000 C 
ATOM     16  C   UNL     1       3.879   5.017  19.273  0.00  0.00    +0.000 A 
ENDROOT
BRANCH  12  17
ATOM     17  O   UNL     1      -1.235  11.302  21.228  0.00  0.00    +0.000 OA
BRANCH  17  18
ATOM     18  C   UNL     1      -1.650  12.492  21.960  0.00  0.00    +0.000 C 
ATOM     19  C   UNL     1      -0.443  13.307  22.450  0.00  0.00    +0.000 C 
ATOM     20  C   UNL     1      -2.427  13.361  20.957  0.00  0.00    +0.000 C 
ATOM     21  C   UNL     1      -2.606  12.137  23.109  0.00  0.00    +0.000 C 
ENDBRANCH  17  18
ENDBRANCH  12  17
TORSDOF 2
ENDMDL
