MODEL 1
REMARK VINA RESULT:      -4.6      0.000      0.000
REMARK  Name = 
REMARK  13 active torsions:
REMARK  status: ('A' for Active; 'I' for Inactive)
REMARK    1  A    between atoms: C_1  and  C_2
REMARK    2  A    between atoms: C_1  and  C_11
REMARK    3  A    between atoms: C_2  and  C_3
REMARK    4  A    between atoms: C_3  and  N_4
REMARK    5  A    between atoms: N_4  and  C_5
REMARK    6  A    between atoms: C_5  and  C_6
REMARK    7  A    between atoms: C_6  and  C_7
REMARK    8  A    between atoms: C_7  and  N_8
REMARK    9  A    between atoms: C_11  and  N_12
REMARK   10  A    between atoms: N_12  and  C_13
REMARK   11  A    between atoms: C_13  and  C_14
REMARK   12  A    between atoms: C_14  and  C_15
REMARK   13  A    between atoms: C_15  and  N_16
REMARK                            x       y       z     vdW  Elec       q    Type
REMARK                         _______ _______ _______ _____ _____    ______ ____
ROOT
ATOM      1  C   UNL     1       2.137   6.034  18.427  0.00  0.00    +0.000 C 
ENDROOT
BRANCH   1   2
ATOM      2  C   UNL     1       2.830   7.291  17.898  0.00  0.00    +0.000 C 
BRANCH   2   3
ATOM      3  C   UNL     1       4.185   6.954  17.271  0.00  0.00    +0.000 C 
BRANCH   3   4
ATOM      4  N   UNL     1       4.339   5.502  17.205  0.00  0.00    +0.000 NA
ATOM      5  H   UNL     1       4.426   5.208  16.233  0.00  0.00    +0.000 HD
BRANCH   4   6
ATOM      6  C   UNL     1       5.509   5.049  17.965  0.00  0.00    +0.000 C 
BRANCH   6   7
ATOM      7  C   UNL     1       6.554   4.496  16.994  0.00  0.00    +0.000 C 
BRANCH   7   8
ATOM      8  C   UNL     1       5.957   3.643  15.869  0.00  0.00    +0.000 C 
BRANCH   8   9
ATOM      9  N   UNL     1       5.731   4.428  14.651  0.00  0.00    +0.000 NA
ATOM     10  C   UNL     1       6.977   4.937  14.079  0.00  0.00    +0.000 C 
ATOM     11  C   UNL     1       6.231   3.806  13.429  0.00  0.00    +0.000 C 
ENDBRANCH   8   9
ENDBRANCH   7   8
ENDBRANCH   6   7
ENDBRANCH   4   6
ENDBRANCH   3   4
ENDBRANCH   2   3
ENDBRANCH   1   2
BRANCH   1  12
ATOM     12  C   UNL     1       1.995   6.086  19.949  0.00  0.00    +0.000 C 
BRANCH  12  13
ATOM     13  N   UNL     1       2.957   5.175  20.564  0.00  0.00    +0.000 NA
ATOM     14  H   UNL     1       3.598   5.698  21.160  0.00  0.00    +0.000 HD
BRANCH  13  15
ATOM     15  C   UNL     1       2.280   4.147  21.356  0.00  0.00    +0.000 C 
BRANCH  15  16
ATOM     16  C   UNL     1       1.128   3.540  20.554  0.00  0.00    +0.000 C 
BRANCH  16  17
ATOM     17  C   UNL     1       1.593   2.286  19.810  0.00  0.00    +0.000 C 
BRANCH  17  18
ATOM     18  N   UNL     1       2.837   2.582  19.090  0.00  0.00    +0.000 NA
ATOM     19  C   UNL     1       3.542   1.380  18.653  0.00  0.00    +0.000 C 
ATOM     20  C   UNL     1       2.792   2.237  17.671  0.00  0.00    +0.000 C 
ENDBRANCH  17  18
ENDBRANCH  16  17
ENDBRANCH  15  16
ENDBRANCH  13  15
ENDBRANCH  12  13
ENDBRANCH   1  12
TORSDOF 13
ENDMDL
MODEL 2
REMARK VINA RESULT:      -4.6      1.822      6.484
REMARK  Name = 
REMARK  13 active torsions:
REMARK  status: ('A' for Active; 'I' for Inactive)
REMARK    1  A    between atoms: C_1  and  C_2
REMARK    2  A    between atoms: C_1  and  C_11
REMARK    3  A    between atoms: C_2  and  C_3
REMARK    4  A    between atoms: C_3  and  N_4
REMARK    5  A    between atoms: N_4  and  C_5
REMARK    6  A    between atoms: C_5  and  C_6
REMARK    7  A    between atoms: C_6  and  C_7
REMARK    8  A    between atoms: C_7  and  N_8
REMARK    9  A    between atoms: C_11  and  N_12
REMARK   10  A    between atoms: N_12  and  C_13
REMARK   11  A    between atoms: C_13  and  C_14
REMARK   12  A    between atoms: C_14  and  C_15
REMARK   13  A    between atoms: C_15  and  N_16
REMARK                            x       y       z     vdW  Elec       q    Type
REMARK                         _______ _______ _______ _____ _____    ______ ____
ROOT
ATOM      1  C   UNL     1       6.764   4.713  17.906  0.00  0.00    +0.000 C 
ENDROOT
BRANCH   1   2
ATOM      2  C   UNL     1       5.492   4.896  18.735  0.00  0.00    +0.000 C 
BRANCH   2   3
ATOM      3  C   UNL     1       4.261   4.384  17.983  0.00  0.00    +0.000 C 
BRANCH   3   4
ATOM      4  N   UNL     1       4.372   2.938  17.804  0.00  0.00    +0.000 NA
ATOM      5  H   UNL     1       5.083   2.565  18.433  0.00  0.00    +0.000 HD
BRANCH   4   6
ATOM      6  C   UNL     1       3.092   2.265  18.050  0.00  0.00    +0.000 C 
BRANCH   6   7
ATOM      7  C   UNL     1       2.044   3.308  18.442  0.00  0.00    +0.000 C 
BRANCH   7   8
ATOM      8  C   UNL     1       0.996   2.785  19.431  0.00  0.00    +0.000 C 
BRANCH   8   9
ATOM      9  N   UNL     1       0.947   3.594  20.653  0.00  0.00    +0.000 NA
ATOM     10  C   UNL     1       2.174   3.483  21.441  0.00  0.00    +0.000 C 
ATOM     11  C   UNL     1       1.864   4.730  20.662  0.00  0.00    +0.000 C 
ENDBRANCH   8   9
ENDBRANCH   7   8
ENDBRANCH   6   7
ENDBRANCH   4   6
ENDBRANCH   3   4
ENDBRANCH   2   3
ENDBRANCH   1   2
BRANCH   1  12
ATOM     12  C   UNL     1       6.989   5.906  16.977  0.00  0.00    +0.000 C 
BRANCH  12  13
ATOM     13  N   UNL     1       7.130   5.437  15.600  0.00  0.00    +0.000 NA
ATOM     14  H   UNL     1       7.539   4.503  15.592  0.00  0.00    +0.000 HD
BRANCH  13  15
ATOM     15  C   UNL     1       5.838   5.413  14.915  0.00  0.00    +0.000 C 
BRANCH  15  16
ATOM     16  C   UNL     1       5.610   4.046  14.268  0.00  0.00    +0.000 C 
BRANCH  16  17
ATOM     17  C   UNL     1       6.706   3.749  13.241  0.00  0.00    +0.000 C 
BRANCH  17  18
ATOM     18  N   UNL     1       6.104   3.624  11.909  0.00  0.00    +0.000 NA
ATOM     19  C   UNL     1       5.669   2.264  11.605  0.00  0.00    +0.000 C 
ATOM     20  C   UNL     1       4.671   3.339  11.935  0.00  0.00    +0.000 C 
ENDBRANCH  17  18
ENDBRANCH  16  17
ENDBRANCH  15  16
ENDBRANCH  13  15
ENDBRANCH  12  13
ENDBRANCH   1  12
TORSDOF 13
ENDMDL
MODEL 3
REMARK VINA RESULT:      -4.5      3.786      7.439
REMARK  Name = 
REMARK  13 active torsions:
REMARK  status: ('A' for Active; 'I' for Inactive)
REMARK    1  A    between atoms: C_1  and  C_2
REMARK    2  A    between atoms: C_1  and  C_11
REMARK    3  A    between atoms: C_2  and  C_3
REMARK    4  A    between atoms: C_3  and  N_4
REMARK    5  A    between atoms: N_4  and  C_5
REMARK    6  A    between atoms: C_5  and  C_6
REMARK    7  A    between atoms: C_6  and  C_7
REMARK    8  A    between atoms: C_7  and  N_8
REMARK    9  A    between atoms: C_11  and  N_12
REMARK   10  A    between atoms: N_12  and  C_13
REMARK   11  A    between atoms: C_13  and  C_14
REMARK   12  A    between atoms: C_14  and  C_15
REMARK   13  A    between atoms: C_15  and  N_16
REMARK                            x       y       z     vdW  Elec       q    Type
REMARK                         _______ _______ _______ _____ _____    ______ ____
ROOT
ATOM      1  C   UNL     1       5.222   6.575  17.382  0.00  0.00    +0.000 C 
ENDROOT
BRANCH   1   2
ATOM      2  C   UNL     1       4.299   5.525  18.004  0.00  0.00    +0.000 C 
BRANCH   2   3
ATOM      3  C   UNL     1       3.155   6.181  18.780  0.00  0.00    +0.000 C 
BRANCH   3   4
ATOM      4  N   UNL     1       3.141   5.665  20.147  0.00  0.00    +0.000 NA
ATOM      5  H   UNL     1       3.752   6.230  20.736  0.00  0.00    +0.000 HD
BRANCH   4   6
ATOM      6  C   UNL     1       1.785   5.658  20.707  0.00  0.00    +0.000 C 
BRANCH   6   7
ATOM      7  C   UNL     1       1.097   4.341  20.340  0.00  0.00    +0.000 C 
BRANCH   7   8
ATOM      8  C   UNL     1       1.890   3.098  20.755  0.00  0.00    +0.000 C 
BRANCH   8   9
ATOM      9  N   UNL     1       1.834   2.048  19.733  0.00  0.00    +0.000 NA
ATOM     10  C   UNL     1       0.842   2.335  18.697  0.00  0.00    +0.000 C 
ATOM     11  C   UNL     1       2.313   2.461  18.417  0.00  0.00    +0.000 C 
ENDBRANCH   8   9
ENDBRANCH   7   8
ENDBRANCH   6   7
ENDBRANCH   4   6
ENDBRANCH   3   4
ENDBRANCH   2   3
ENDBRANCH   1   2
BRANCH   1  12
ATOM     12  C   UNL     1       6.383   5.914  16.639  0.00  0.00    +0.000 C 
BRANCH  12  13
ATOM     13  N   UNL     1       7.526   6.823  16.603  0.00  0.00    +0.000 NA
ATOM     14  H   UNL     1       7.382   7.532  15.885  0.00  0.00    +0.000 HD
BRANCH  13  15
ATOM     15  C   UNL     1       7.726   7.471  17.900  0.00  0.00    +0.000 C 
BRANCH  15  16
ATOM     16  C   UNL     1       7.985   8.966  17.707  0.00  0.00    +0.000 C 
BRANCH  16  17
ATOM     17  C   UNL     1       8.919   9.494  18.798  0.00  0.00    +0.000 C 
BRANCH  17  18
ATOM     18  N   UNL     1       9.054  10.949  18.661  0.00  0.00    +0.000 NA
ATOM     19  C   UNL     1      10.171  11.493  19.428  0.00  0.00    +0.000 C 
ATOM     20  C   UNL     1      10.251  11.363  17.932  0.00  0.00    +0.000 C 
ENDBRANCH  17  18
ENDBRANCH  16  17
ENDBRANCH  15  16
ENDBRANCH  13  15
ENDBRANCH  12  13
ENDBRANCH   1  12
TORSDOF 13
ENDMDL
MODEL 4
REMARK VINA RESULT:      -4.5      1.554      5.396
REMARK  Name = 
REMARK  13 active torsions:
REMARK  status: ('A' for Active; 'I' for Inactive)
REMARK    1  A    between atoms: C_1  and  C_2
REMARK    2  A    between atoms: C_1  and  C_11
REMARK    3  A    between atoms: C_2  and  C_3
REMARK    4  A    between atoms: C_3  and  N_4
REMARK    5  A    between atoms: N_4  and  C_5
REMARK    6  A    between atoms: C_5  and  C_6
REMARK    7  A    between atoms: C_6  and  C_7
REMARK    8  A    between atoms: C_7  and  N_8
REMARK    9  A    between atoms: C_11  and  N_12
REMARK   10  A    between atoms: N_12  and  C_13
REMARK   11  A    between atoms: C_13  and  C_14
REMARK   12  A    between atoms: C_14  and  C_15
REMARK   13  A    between atoms: C_15  and  N_16
REMARK                            x       y       z     vdW  Elec       q    Type
REMARK                         _______ _______ _______ _____ _____    ______ ____
ROOT
ATOM      1  C   UNL     1       2.882   6.057  18.258  0.00  0.00    +0.000 C 
ENDROOT
BRANCH   1   2
ATOM      2  C   UNL     1       2.708   4.679  17.619  0.00  0.00    +0.000 C 
BRANCH   2   3
ATOM      3  C   UNL     1       1.229   4.304  17.502  0.00  0.00    +0.000 C 
BRANCH   3   4
ATOM      4  N   UNL     1       0.930   3.222  18.438  0.00  0.00    +0.000 NA
ATOM      5  H   UNL     1       1.649   2.502  18.374  0.00  0.00    +0.000 HD
BRANCH   4   6
ATOM      6  C   UNL     1       0.841   3.711  19.818  0.00  0.00    +0.000 C 
BRANCH   6   7
ATOM      7  C   UNL     1       1.265   2.595  20.774  0.00  0.00    +0.000 C 
BRANCH   7   8
ATOM      8  C   UNL     1       2.698   2.745  21.297  0.00  0.00    +0.000 C 
BRANCH   8   9
ATOM      9  N   UNL     1       3.672   2.821  20.203  0.00  0.00    +0.000 NA
ATOM     10  C   UNL     1       4.827   1.952  20.428  0.00  0.00    +0.000 C 
ATOM     11  C   UNL     1       3.782   1.603  19.406  0.00  0.00    +0.000 C 
ENDBRANCH   8   9
ENDBRANCH   7   8
ENDBRANCH   6   7
ENDBRANCH   4   6
ENDBRANCH   3   4
ENDBRANCH   2   3
ENDBRANCH   1   2
BRANCH   1  12
ATOM     12  C   UNL     1       4.363   6.388  18.453  0.00  0.00    +0.000 C 
BRANCH  12  13
ATOM     13  N   UNL     1       5.108   5.163  18.736  0.00  0.00    +0.000 NA
ATOM     14  H   UNL     1       5.141   4.577  17.902  0.00  0.00    +0.000 HD
BRANCH  13  15
ATOM     15  C   UNL     1       6.469   5.464  19.179  0.00  0.00    +0.000 C 
BRANCH  15  16
ATOM     16  C   UNL     1       7.360   5.769  17.973  0.00  0.00    +0.000 C 
BRANCH  16  17
ATOM     17  C   UNL     1       7.400   4.573  17.019  0.00  0.00    +0.000 C 
BRANCH  17  18
ATOM     18  N   UNL     1       7.242   5.045  15.639  0.00  0.00    +0.000 NA
ATOM     19  C   UNL     1       6.458   4.133  14.811  0.00  0.00    +0.000 C 
ATOM     20  C   UNL     1       5.872   5.428  15.302  0.00  0.00    +0.000 C 
ENDBRANCH  17  18
ENDBRANCH  16  17
ENDBRANCH  15  16
ENDBRANCH  13  15
ENDBRANCH  12  13
ENDBRANCH   1  12
TORSDOF 13
ENDMDL
MODEL 5
REMARK VINA RESULT:      -4.4      5.050      6.773
REMARK  Name = 
REMARK  13 active torsions:
REMARK  status: ('A' for Active; 'I' for Inactive)
REMARK    1  A    between atoms: C_1  and  C_2
REMARK    2  A    between atoms: C_1  and  C_11
REMARK    3  A    between atoms: C_2  and  C_3
REMARK    4  A    between atoms: C_3  and  N_4
REMARK    5  A    between atoms: N_4  and  C_5
REMARK    6  A    between atoms: C_5  and  C_6
REMARK    7  A    between atoms: C_6  and  C_7
REMARK    8  A    between atoms: C_7  and  N_8
REMARK    9  A    between atoms: C_11  and  N_12
REMARK   10  A    between atoms: N_12  and  C_13
REMARK   11  A    between atoms: C_13  and  C_14
REMARK   12  A    between atoms: C_14  and  C_15
REMARK   13  A    between atoms: C_15  and  N_16
REMARK                            x       y       z     vdW  Elec       q    Type
REMARK                         _______ _______ _______ _____ _____    ______ ____
ROOT
ATOM      1  C   UNL     1       7.781   5.548  18.674  0.00  0.00    +0.000 C 
ENDROOT
BRANCH   1   2
ATOM      2  C   UNL     1       8.135   7.035  18.728  0.00  0.00    +0.000 C 
BRANCH   2   3
ATOM      3  C   UNL     1       7.616   7.774  17.492  0.00  0.00    +0.000 C 
BRANCH   3   4
ATOM      4  N   UNL     1       7.966   9.190  17.594  0.00  0.00    +0.000 NA
ATOM      5  H   UNL     1       7.118   9.749  17.682  0.00  0.00    +0.000 HD
BRANCH   4   6
ATOM      6  C   UNL     1       8.847   9.446  18.738  0.00  0.00    +0.000 C 
BRANCH   6   7
ATOM      7  C   UNL     1       9.183  10.938  18.788  0.00  0.00    +0.000 C 
BRANCH   7   8
ATOM      8  C   UNL     1      10.379  11.328  17.912  0.00  0.00    +0.000 C 
BRANCH   8   9
ATOM      9  N   UNL     1      10.363  12.755  17.572  0.00  0.00    +0.000 NA
ATOM     10  C   UNL     1       9.365  13.498  18.341  0.00  0.00    +0.000 C 
ATOM     11  C   UNL     1      10.832  13.635  18.638  0.00  0.00    +0.000 C 
ENDBRANCH   8   9
ENDBRANCH   7   8
ENDBRANCH   6   7
ENDBRANCH   4   6
ENDBRANCH   3   4
ENDBRANCH   2   3
ENDBRANCH   1   2
BRANCH   1  12
ATOM     12  C   UNL     1       6.426   5.282  19.330  0.00  0.00    +0.000 C 
BRANCH  12  13
ATOM     13  N   UNL     1       5.866   4.035  18.815  0.00  0.00    +0.000 NA
ATOM     14  H   UNL     1       5.672   3.397  19.587  0.00  0.00    +0.000 HD
BRANCH  13  15
ATOM     15  C   UNL     1       4.637   4.279  18.059  0.00  0.00    +0.000 C 
BRANCH  15  16
ATOM     16  C   UNL     1       4.912   4.170  16.558  0.00  0.00    +0.000 C 
BRANCH  16  17
ATOM     17  C   UNL     1       5.050   5.561  15.935  0.00  0.00    +0.000 C 
BRANCH  17  18
ATOM     18  N   UNL     1       6.160   5.557  14.976  0.00  0.00    +0.000 NA
ATOM     19  C   UNL     1       7.160   4.533  15.265  0.00  0.00    +0.000 C 
ATOM     20  C   UNL     1       6.196   4.372  14.122  0.00  0.00    +0.000 C 
ENDBRANCH  17  18
ENDBRANCH  16  17
ENDBRANCH  15  16
ENDBRANCH  13  15
ENDBRANCH  12  13
ENDBRANCH   1  12
TORSDOF 13
ENDMDL
MODEL 6
REMARK VINA RESULT:      -4.4      2.295      5.881
REMARK  Name = 
REMARK  13 active torsions:
REMARK  status: ('A' for Active; 'I' for Inactive)
REMARK    1  A    between atoms: C_1  and  C_2
REMARK    2  A    between atoms: C_1  and  C_11
REMARK    3  A    between atoms: C_2  and  C_3
REMARK    4  A    between atoms: C_3  and  N_4
REMARK    5  A    between atoms: N_4  and  C_5
REMARK    6  A    between atoms: C_5  and  C_6
REMARK    7  A    between atoms: C_6  and  C_7
REMARK    8  A    between atoms: C_7  and  N_8
REMARK    9  A    between atoms: C_11  and  N_12
REMARK   10  A    between atoms: N_12  and  C_13
REMARK   11  A    between atoms: C_13  and  C_14
REMARK   12  A    between atoms: C_14  and  C_15
REMARK   13  A    between atoms: C_15  and  N_16
REMARK                            x       y       z     vdW  Elec       q    Type
REMARK                         _______ _______ _______ _____ _____    ______ ____
ROOT
ATOM      1  C   UNL     1       1.840   2.810  19.917  0.00  0.00    +0.000 C 
ENDROOT
BRANCH   1   2
ATOM      2  C   UNL     1       0.980   3.982  20.391  0.00  0.00    +0.000 C 
BRANCH   2   3
ATOM      3  C   UNL     1       1.827   5.235  20.623  0.00  0.00    +0.000 C 
BRANCH   3   4
ATOM      4  N   UNL     1       2.221   5.797  19.332  0.00  0.00    +0.000 NA
ATOM      5  H   UNL     1       1.502   5.601  18.637  0.00  0.00    +0.000 HD
BRANCH   4   6
ATOM      6  C   UNL     1       2.442   7.244  19.420  0.00  0.00    +0.000 C 
BRANCH   6   7
ATOM      7  C   UNL     1       2.513   7.827  18.007  0.00  0.00    +0.000 C 
BRANCH   7   8
ATOM      8  C   UNL     1       1.830   9.192  17.870  0.00  0.00    +0.000 C 
BRANCH   8   9
ATOM      9  N   UNL     1       1.050   9.533  19.064  0.00  0.00    +0.000 NA
ATOM     10  C   UNL     1       1.005  10.976  19.303  0.00  0.00    +0.000 C 
ATOM     11  C   UNL     1      -0.199  10.238  18.789  0.00  0.00    +0.000 C 
ENDBRANCH   8   9
ENDBRANCH   7   8
ENDBRANCH   6   7
ENDBRANCH   4   6
ENDBRANCH   3   4
ENDBRANCH   2   3
ENDBRANCH   1   2
BRANCH   1  12
ATOM     12  C   UNL     1       1.430   2.362  18.513  0.00  0.00    +0.000 C 
BRANCH  12  13
ATOM     13  N   UNL     1       2.099   3.195  17.516  0.00  0.00    +0.000 NA
ATOM     14  H   UNL     1       1.820   4.169  17.635  0.00  0.00    +0.000 HD
BRANCH  13  15
ATOM     15  C   UNL     1       3.554   3.083  17.624  0.00  0.00    +0.000 C 
BRANCH  15  16
ATOM     16  C   UNL     1       4.228   4.206  16.834  0.00  0.00    +0.000 C 
BRANCH  16  17
ATOM     17  C   UNL     1       5.696   4.343  17.243  0.00  0.00    +0.000 C 
BRANCH  17  18
ATOM     18  N   UNL     1       5.868   5.567  18.033  0.00  0.00    +0.000 NA
ATOM     19  C   UNL     1       7.206   6.141  17.912  0.00  0.00    +0.000 C 
ATOM     20  C   UNL     1       6.027   6.773  17.224  0.00  0.00    +0.000 C 
ENDBRANCH  17  18
ENDBRANCH  16  17
ENDBRANCH  15  16
ENDBRANCH  13  15
ENDBRANCH  12  13
ENDBRANCH   1  12
TORSDOF 13
ENDMDL
MODEL 7
REMARK VINA RESULT:      -4.4      1.678      5.645
REMARK  Name = 
REMARK  13 active torsions:
REMARK  status: ('A' for Active; 'I' for Inactive)
REMARK    1  A    between atoms: C_1  and  C_2
REMARK    2  A    between atoms: C_1  and  C_11
REMARK    3  A    between atoms: C_2  and  C_3
REMARK    4  A    between atoms: C_3  and  N_4
REMARK    5  A    between atoms: N_4  and  C_5
REMARK    6  A    between atoms: C_5  and  C_6
REMARK    7  A    between atoms: C_6  and  C_7
REMARK    8  A    between atoms: C_7  and  N_8
REMARK    9  A    between atoms: C_11  and  N_12
REMARK   10  A    between atoms: N_12  and  C_13
REMARK   11  A    between atoms: C_13  and  C_14
REMARK   12  A    between atoms: C_14  and  C_15
REMARK   13  A    between atoms: C_15  and  N_16
REMARK                            x       y       z     vdW  Elec       q    Type
REMARK                         _______ _______ _______ _____ _____    ______ ____
ROOT
ATOM      1  C   UNL     1       4.130   6.690  17.738  0.00  0.00    +0.000 C 
ENDROOT
BRANCH   1   2
ATOM      2  C   UNL     1       2.877   7.453  18.172  0.00  0.00    +0.000 C 
BRANCH   2   3
ATOM      3  C   UNL     1       1.916   6.548  18.945  0.00  0.00    +0.000 C 
BRANCH   3   4
ATOM      4  N   UNL     1       2.267   6.569  20.363  0.00  0.00    +0.000 NA
ATOM      5  H   UNL     1       1.549   7.064  20.890  0.00  0.00    +0.000 HD
BRANCH   4   6
ATOM      6  C   UNL     1       2.426   5.212  20.899  0.00  0.00    +0.000 C 
BRANCH   6   7
ATOM      7  C   UNL     1       1.211   4.371  20.503  0.00  0.00    +0.000 C 
BRANCH   7   8
ATOM      8  C   UNL     1       1.325   2.898  20.908  0.00  0.00    +0.000 C 
BRANCH   8   9
ATOM      9  N   UNL     1       1.294   2.007  19.743  0.00  0.00    +0.000 NA
ATOM     10  C   UNL     1       1.221   2.746  18.483  0.00  0.00    +0.000 C 
ATOM     11  C   UNL     1       2.490   2.063  18.908  0.00  0.00    +0.000 C 
ENDBRANCH   8   9
ENDBRANCH   7   8
ENDBRANCH   6   7
ENDBRANCH   4   6
ENDBRANCH   3   4
ENDBRANCH   2   3
ENDBRANCH   1   2
BRANCH   1  12
ATOM     12  C   UNL     1       3.786   5.255  17.337  0.00  0.00    +0.000 C 
BRANCH  12  13
ATOM     13  N   UNL     1       4.847   4.712  16.492  0.00  0.00    +0.000 NA
ATOM     14  H   UNL     1       4.443   4.119  15.767  0.00  0.00    +0.000 HD
BRANCH  13  15
ATOM     15  C   UNL     1       5.628   5.783  15.872  0.00  0.00    +0.000 C 
BRANCH  15  16
ATOM     16  C   UNL     1       7.093   5.682  16.299  0.00  0.00    +0.000 C 
BRANCH  16  17
ATOM     17  C   UNL     1       7.303   4.473  17.213  0.00  0.00    +0.000 C 
BRANCH  17  18
ATOM     18  N   UNL     1       7.905   4.916  18.476  0.00  0.00    +0.000 NA
ATOM     19  C   UNL     1       7.842   6.363  18.660  0.00  0.00    +0.000 C 
ATOM     20  C   UNL     1       6.938   5.445  19.435  0.00  0.00    +0.000 C 
ENDBRANCH  17  18
ENDBRANCH  16  17
ENDBRANCH  15  16
ENDBRANCH  13  15
ENDBRANCH  12  13
ENDBRANCH   1  12
TORSDOF 13
ENDMDL
MODEL 8
REMARK VINA RESULT:      -4.4      4.329      7.970
REMARK  Name = 
REMARK  13 active torsions:
REMARK  status: ('A' for Active; 'I' for Inactive)
REMARK    1  A    between atoms: C_1  and  C_2
REMARK    2  A    between atoms: C_1  and  C_11
REMARK    3  A    between atoms: C_2  and  C_3
REMARK    4  A    between atoms: C_3  and  N_4
REMARK    5  A    between atoms: N_4  and  C_5
REMARK    6  A    between atoms: C_5  and  C_6
REMARK    7  A    between atoms: C_6  and  C_7
REMARK    8  A    between atoms: C_7  and  N_8
REMARK    9  A    between atoms: C_11  and  N_12
REMARK   10  A    between atoms: N_12  and  C_13
REMARK   11  A    between atoms: C_13  and  C_14
REMARK   12  A    between atoms: C_14  and  C_15
REMARK   13  A    between atoms: C_15  and  N_16
REMARK                            x       y       z     vdW  Elec       q    Type
REMARK                         _______ _______ _______ _____ _____    ______ ____
ROOT
ATOM      1  C   UNL     1       6.685   5.610  18.359  0.00  0.00    +0.000 C 
ENDROOT
BRANCH   1   2
ATOM      2  C   UNL     1       6.776   4.807  17.060  0.00  0.00    +0.000 C 
BRANCH   2   3
ATOM      3  C   UNL     1       5.414   4.231  16.668  0.00  0.00    +0.000 C 
BRANCH   3   4
ATOM      4  N   UNL     1       4.836   3.535  17.815  0.00  0.00    +0.000 NA
ATOM      5  H   UNL     1       4.983   4.083  18.662  0.00  0.00    +0.000 HD
BRANCH   4   6
ATOM      6  C   UNL     1       3.402   3.289  17.629  0.00  0.00    +0.000 C 
BRANCH   6   7
ATOM      7  C   UNL     1       2.607   4.370  18.365  0.00  0.00    +0.000 C 
BRANCH   7   8
ATOM      8  C   UNL     1       3.231   4.789  19.700  0.00  0.00    +0.000 C 
BRANCH   8   9
ATOM      9  N   UNL     1       2.238   4.824  20.779  0.00  0.00    +0.000 NA
ATOM     10  C   UNL     1       1.047   4.035  20.463  0.00  0.00    +0.000 C 
ATOM     11  C   UNL     1       2.052   3.552  21.470  0.00  0.00    +0.000 C 
ENDBRANCH   8   9
ENDBRANCH   7   8
ENDBRANCH   6   7
ENDBRANCH   4   6
ENDBRANCH   3   4
ENDBRANCH   2   3
ENDBRANCH   1   2
BRANCH   1  12
ATOM     12  C   UNL     1       7.795   6.659  18.435  0.00  0.00    +0.000 C 
BRANCH  12  13
ATOM     13  N   UNL     1       7.703   7.557  17.286  0.00  0.00    +0.000 NA
ATOM     14  H   UNL     1       6.855   7.355  16.756  0.00  0.00    +0.000 HD
BRANCH  13  15
ATOM     15  C   UNL     1       7.695   8.957  17.709  0.00  0.00    +0.000 C 
BRANCH  15  16
ATOM     16  C   UNL     1       8.862   9.226  18.661  0.00  0.00    +0.000 C 
BRANCH  16  17
ATOM     17  C   UNL     1       9.109  10.730  18.797  0.00  0.00    +0.000 C 
BRANCH  17  18
ATOM     18  N   UNL     1      10.125  11.147  17.824  0.00  0.00    +0.000 NA
ATOM     19  C   UNL     1      10.333  12.592  17.802  0.00  0.00    +0.000 C 
ATOM     20  C   UNL     1      11.343  11.675  18.435  0.00  0.00    +0.000 C 
ENDBRANCH  17  18
ENDBRANCH  16  17
ENDBRANCH  15  16
ENDBRANCH  13  15
ENDBRANCH  12  13
ENDBRANCH   1  12
TORSDOF 13
ENDMDL
MODEL 9
REMARK VINA RESULT:      -4.3      2.348      4.807
REMARK  Name = 
REMARK  13 active torsions:
REMARK  status: ('A' for Active; 'I' for Inactive)
REMARK    1  A    between atoms: C_1  and  C_2
REMARK    2  A    between atoms: C_1  and  C_11
REMARK    3  A    between atoms: C_2  and  C_3
REMARK    4  A    between atoms: C_3  and  N_4
REMARK    5  A    between atoms: N_4  and  C_5
REMARK    6  A    between atoms: C_5  and  C_6
REMARK    7  A    between atoms: C_6  and  C_7
REMARK    8  A    between atoms: C_7  and  N_8
REMARK    9  A    between atoms: C_11  and  N_12
REMARK   10  A    between atoms: N_12  and  C_13
REMARK   11  A    between atoms: C_13  and  C_14
REMARK   12  A    between atoms: C_14  and  C_15
REMARK   13  A    between atoms: C_15  and  N_16
REMARK                            x       y       z     vdW  Elec       q    Type
REMARK                         _______ _______ _______ _____ _____    ______ ____
ROOT
ATOM      1  C   UNL     1       1.484   3.483  20.750  0.00  0.00    +0.000 C 
ENDROOT
BRANCH   1   2
ATOM      2  C   UNL     1       1.645   2.902  19.344  0.00  0.00    +0.000 C 
BRANCH   2   3
ATOM      3  C   UNL     1       2.983   2.175  19.193  0.00  0.00    +0.000 C 
BRANCH   3   4
ATOM      4  N   UNL     1       3.947   3.068  18.553  0.00  0.00    +0.000 NA
ATOM      5  H   UNL     1       4.803   2.556  18.342  0.00  0.00    +0.000 HD
BRANCH   4   6
ATOM      6  C   UNL     1       3.405   3.653  17.322  0.00  0.00    +0.000 C 
BRANCH   6   7
ATOM      7  C   UNL     1       4.561   4.159  16.456  0.00  0.00    +0.000 C 
BRANCH   7   8
ATOM      8  C   UNL     1       5.059   5.553  16.851  0.00  0.00    +0.000 C 
BRANCH   8   9
ATOM      9  N   UNL     1       6.495   5.711  16.599  0.00  0.00    +0.000 NA
ATOM     10  C   UNL     1       7.288   4.655  17.230  0.00  0.00    +0.000 C 
ATOM     11  C   UNL     1       7.075   4.680  15.742  0.00  0.00    +0.000 C 
ENDBRANCH   8   9
ENDBRANCH   7   8
ENDBRANCH   6   7
ENDBRANCH   4   6
ENDBRANCH   3   4
ENDBRANCH   2   3
ENDBRANCH   1   2
BRANCH   1  12
ATOM     12  C   UNL     1       1.415   5.010  20.707  0.00  0.00    +0.000 C 
BRANCH  12  13
ATOM     13  N   UNL     1       2.730   5.552  20.372  0.00  0.00    +0.000 NA
ATOM     14  H   UNL     1       3.305   4.828  19.941  0.00  0.00    +0.000 HD
BRANCH  13  15
ATOM     15  C   UNL     1       2.615   6.693  19.463  0.00  0.00    +0.000 C 
BRANCH  15  16
ATOM     16  C   UNL     1       1.844   7.828  20.138  0.00  0.00    +0.000 C 
BRANCH  16  17
ATOM     17  C   UNL     1       1.512   8.928  19.127  0.00  0.00    +0.000 C 
BRANCH  17  18
ATOM     18  N   UNL     1       0.875  10.052  19.822  0.00  0.00    +0.000 NA
ATOM     19  C   UNL     1      -0.516  10.255  19.423  0.00  0.00    +0.000 C 
ATOM     20  C   UNL     1      -0.174   9.648  20.756  0.00  0.00    +0.000 C 
ENDBRANCH  17  18
ENDBRANCH  16  17
ENDBRANCH  15  16
ENDBRANCH  13  15
ENDBRANCH  12  13
ENDBRANCH   1  12
TORSDOF 13
ENDMDL
