MODEL 1
REMARK VINA RESULT:      -6.5      0.000      0.000
REMARK  Name = 
REMARK  10 active torsions:
REMARK  status: ('A' for Active; 'I' for Inactive)
REMARK    1  A    between atoms: C_1  and  O_2
REMARK    2  A    between atoms: O_2  and  C_3
REMARK    3  A    between atoms: C_6  and  N_7
REMARK    4  A    between atoms: C_11  and  O_13
REMARK    5  A    between atoms: O_13  and  C_14
REMARK    6  A    between atoms: C_14  and  C_15
REMARK    7  A    between atoms: C_14  and  C_16
REMARK    8  A    between atoms: C_14  and  C_17
REMARK    9  A    between atoms: C_18  and  C_19
REMARK   10  A    between atoms: C_19  and  O_21
REMARK                            x       y       z     vdW  Elec       q    Type
REMARK                         _______ _______ _______ _____ _____    ______ ____
ROOT
ATOM      1  N   UNL     1       1.746   7.417  19.867  0.00  0.00    +0.000 N 
ATOM      2  C   UNL     1       2.174   8.401  18.874  0.00  0.00    +0.000 C 
ATOM      3  C   UNL     1       1.088   9.481  18.806  0.00  0.00    +0.000 C 
ATOM      4  N   UNL     1       0.823  10.089  20.124  0.00  0.00    +0.000 N 
ATOM      5  C   UNL     1       0.626  11.454  20.120  0.00  0.00    +0.000 C 
ATOM      6  O   UNL     1       0.670  12.112  19.090  0.00  0.00    +0.000 OA
ATOM      7  C   UNL     1       0.494   9.106  21.204  0.00  0.00    +0.000 C 
ATOM      8  C   UNL     1       1.558   7.963  21.226  0.00  0.00    +0.000 C 
ENDROOT
BRANCH   1  12
ATOM      9  C   UNL     1       2.244   3.271  19.320  0.00  0.00    +0.000 A 
ATOM     10  C   UNL     1       2.479   4.144  18.263  0.00  0.00    +0.000 A 
ATOM     11  C   UNL     1       2.345   5.528  18.447  0.00  0.00    +0.000 A 
ATOM     12  C   UNL     1       1.985   6.066  19.681  0.00  0.00    +0.000 A 
ATOM     13  C   UNL     1       1.769   5.173  20.736  0.00  0.00    +0.000 A 
ATOM     14  C   UNL     1       1.882   3.787  20.561  0.00  0.00    +0.000 A 
BRANCH   9  16
ATOM     15  C   UNL     1       3.577   1.557  18.391  0.00  0.00    +0.000 C 
ATOM     16  O   UNL     1       2.359   1.943  19.018  0.00  0.00    +0.000 OA
ENDBRANCH   9  16
ENDBRANCH   1  12
BRANCH   7  17
ATOM     17  C   UNL     1       0.269   9.520  22.671  0.00  0.00    +0.000 C 
ATOM     18  O   UNL     1       1.151   9.628  23.511  0.00  0.00    +0.000 OA
BRANCH  17  19
ATOM     19  O   UNL     1      -1.040   9.586  23.027  0.00  0.00    +0.000 OA
ATOM     20  H   UNL     1      -1.389  10.500  23.040  0.00  0.00    +0.000 HD
ENDBRANCH  17  19
ENDBRANCH   7  17
BRANCH   5  21
ATOM     21  O   UNL     1       0.428  11.992  21.350  0.00  0.00    +0.000 OA
BRANCH  21  22
ATOM     22  C   UNL     1      -0.704  12.893  21.547  0.00  0.00    +0.000 C 
ATOM     23  C   UNL     1      -1.973  12.323  20.897  0.00  0.00    +0.000 C 
ATOM     24  C   UNL     1      -0.926  13.008  23.066  0.00  0.00    +0.000 C 
ATOM     25  C   UNL     1      -0.398  14.304  21.018  0.00  0.00    +0.000 C 
ENDBRANCH  21  22
ENDBRANCH   5  21
TORSDOF 6
ENDMDL
MODEL 2
REMARK VINA RESULT:      -6.4      1.249      1.600
REMARK  Name = 
REMARK  10 active torsions:
REMARK  status: ('A' for Active; 'I' for Inactive)
REMARK    1  A    between atoms: C_1  and  O_2
REMARK    2  A    between atoms: O_2  and  C_3
REMARK    3  A    between atoms: C_6  and  N_7
REMARK    4  A    between atoms: C_11  and  O_13
REMARK    5  A    between atoms: O_13  and  C_14
REMARK    6  A    between atoms: C_14  and  C_15
REMARK    7  A    between atoms: C_14  and  C_16
REMARK    8  A    between atoms: C_14  and  C_17
REMARK    9  A    between atoms: C_18  and  C_19
REMARK   10  A    between atoms: C_19  and  O_21
REMARK                            x       y       z     vdW  Elec       q    Type
REMARK                         _______ _______ _______ _____ _____    ______ ____
ROOT
ATOM      1  N   UNL     1       2.266   7.493  18.696  0.00  0.00    +0.000 N 
ATOM      2  C   UNL     1       2.642   8.659  17.899  0.00  0.00    +0.000 C 
ATOM      3  C   UNL     1       1.478   9.654  17.972  0.00  0.00    +0.000 C 
ATOM      4  N   UNL     1       1.135  10.009  19.363  0.00  0.00    +0.000 N 
ATOM      5  C   UNL     1       0.834  11.337  19.581  0.00  0.00    +0.000 C 
ATOM      6  O   UNL     1       0.853  12.162  18.677  0.00  0.00    +0.000 OA
ATOM      7  C   UNL     1       0.855   8.835  20.249  0.00  0.00    +0.000 C 
ATOM      8  C   UNL     1       2.003   7.784  20.119  0.00  0.00    +0.000 C 
ENDROOT
BRANCH   1  12
ATOM      9  C   UNL     1       3.412   3.567  17.686  0.00  0.00    +0.000 A 
ATOM     10  C   UNL     1       2.065   3.882  17.833  0.00  0.00    +0.000 A 
ATOM     11  C   UNL     1       1.675   5.194  18.139  0.00  0.00    +0.000 A 
ATOM     12  C   UNL     1       2.612   6.213  18.295  0.00  0.00    +0.000 A 
ATOM     13  C   UNL     1       3.961   5.881  18.127  0.00  0.00    +0.000 A 
ATOM     14  C   UNL     1       4.365   4.570  17.839  0.00  0.00    +0.000 A 
BRANCH   9  16
ATOM     15  C   UNL     1       3.606   1.382  18.558  0.00  0.00    +0.000 C 
ATOM     16  O   UNL     1       3.681   2.252  17.434  0.00  0.00    +0.000 OA
ENDBRANCH   9  16
ENDBRANCH   1  12
BRANCH   7  17
ATOM     17  C   UNL     1       0.562   8.977  21.755  0.00  0.00    +0.000 C 
ATOM     18  O   UNL     1      -0.530   8.800  22.275  0.00  0.00    +0.000 OA
BRANCH  17  19
ATOM     19  O   UNL     1       1.592   9.502  22.468  0.00  0.00    +0.000 OA
ATOM     20  H   UNL     1       1.457  10.442  22.703  0.00  0.00    +0.000 HD
ENDBRANCH  17  19
ENDBRANCH   7  17
BRANCH   5  21
ATOM     21  O   UNL     1       0.564  11.643  20.875  0.00  0.00    +0.000 OA
BRANCH  21  22
ATOM     22  C   UNL     1      -0.623  12.438  21.175  0.00  0.00    +0.000 C 
ATOM     23  C   UNL     1      -1.818  11.973  20.330  0.00  0.00    +0.000 C 
ATOM     24  C   UNL     1      -0.945  12.217  22.664  0.00  0.00    +0.000 C 
ATOM     25  C   UNL     1      -0.358  13.940  20.978  0.00  0.00    +0.000 C 
ENDBRANCH  21  22
ENDBRANCH   5  21
TORSDOF 6
ENDMDL
MODEL 3
REMARK VINA RESULT:      -6.3      0.279      1.014
REMARK  Name = 
REMARK  10 active torsions:
REMARK  status: ('A' for Active; 'I' for Inactive)
REMARK    1  A    between atoms: C_1  and  O_2
REMARK    2  A    between atoms: O_2  and  C_3
REMARK    3  A    between atoms: C_6  and  N_7
REMARK    4  A    between atoms: C_11  and  O_13
REMARK    5  A    between atoms: O_13  and  C_14
REMARK    6  A    between atoms: C_14  and  C_15
REMARK    7  A    between atoms: C_14  and  C_16
REMARK    8  A    between atoms: C_14  and  C_17
REMARK    9  A    between atoms: C_18  and  C_19
REMARK   10  A    between atoms: C_19  and  O_21
REMARK                            x       y       z     vdW  Elec       q    Type
REMARK                         _______ _______ _______ _____ _____    ______ ____
ROOT
ATOM      1  N   UNL     1       1.734   7.451  19.985  0.00  0.00    +0.000 N 
ATOM      2  C   UNL     1       2.139   8.434  18.982  0.00  0.00    +0.000 C 
ATOM      3  C   UNL     1       1.033   9.493  18.910  0.00  0.00    +0.000 C 
ATOM      4  N   UNL     1       0.762  10.107  20.224  0.00  0.00    +0.000 N 
ATOM      5  C   UNL     1       0.539  11.468  20.210  0.00  0.00    +0.000 C 
ATOM      6  O   UNL     1       0.567  12.118  19.173  0.00  0.00    +0.000 OA
ATOM      7  C   UNL     1       0.456   9.127  21.313  0.00  0.00    +0.000 C 
ATOM      8  C   UNL     1       1.541   8.004  21.340  0.00  0.00    +0.000 C 
ENDROOT
BRANCH   1  12
ATOM      9  C   UNL     1       2.758   3.400  19.455  0.00  0.00    +0.000 A 
ATOM     10  C   UNL     1       2.176   3.819  20.646  0.00  0.00    +0.000 A 
ATOM     11  C   UNL     1       1.804   5.161  20.818  0.00  0.00    +0.000 A 
ATOM     12  C   UNL     1       1.996   6.103  19.809  0.00  0.00    +0.000 A 
ATOM     13  C   UNL     1       2.569   5.658  18.612  0.00  0.00    +0.000 A 
ATOM     14  C   UNL     1       2.961   4.325  18.435  0.00  0.00    +0.000 A 
BRANCH   9  16
ATOM     15  C   UNL     1       3.559   1.605  18.146  0.00  0.00    +0.000 C 
ATOM     16  O   UNL     1       3.123   2.084  19.413  0.00  0.00    +0.000 OA
ENDBRANCH   9  16
ENDBRANCH   1  12
BRANCH   7  17
ATOM     17  C   UNL     1       0.229   9.549  22.777  0.00  0.00    +0.000 C 
ATOM     18  O   UNL     1       1.106   9.629  23.627  0.00  0.00    +0.000 OA
BRANCH  17  19
ATOM     19  O   UNL     1      -1.080   9.658  23.120  0.00  0.00    +0.000 OA
ATOM     20  H   UNL     1      -1.377   8.956  23.734  0.00  0.00    +0.000 HD
ENDBRANCH  17  19
ENDBRANCH   7  17
BRANCH   5  21
ATOM     21  O   UNL     1       0.337  12.013  21.436  0.00  0.00    +0.000 OA
BRANCH  21  22
ATOM     22  C   UNL     1      -0.784  12.931  21.618  0.00  0.00    +0.000 C 
ATOM     23  C   UNL     1      -2.055  12.378  20.958  0.00  0.00    +0.000 C 
ATOM     24  C   UNL     1      -1.019  13.055  23.134  0.00  0.00    +0.000 C 
ATOM     25  C   UNL     1      -0.451  14.335  21.087  0.00  0.00    +0.000 C 
ENDBRANCH  21  22
ENDBRANCH   5  21
TORSDOF 6
ENDMDL
MODEL 4
REMARK VINA RESULT:      -6.3      0.732      1.340
REMARK  Name = 
REMARK  10 active torsions:
REMARK  status: ('A' for Active; 'I' for Inactive)
REMARK    1  A    between atoms: C_1  and  O_2
REMARK    2  A    between atoms: O_2  and  C_3
REMARK    3  A    between atoms: C_6  and  N_7
REMARK    4  A    between atoms: C_11  and  O_13
REMARK    5  A    between atoms: O_13  and  C_14
REMARK    6  A    between atoms: C_14  and  C_15
REMARK    7  A    between atoms: C_14  and  C_16
REMARK    8  A    between atoms: C_14  and  C_17
REMARK    9  A    between atoms: C_18  and  C_19
REMARK   10  A    between atoms: C_19  and  O_21
REMARK                            x       y       z     vdW  Elec       q    Type
REMARK                         _______ _______ _______ _____ _____    ______ ____
ROOT
ATOM      1  N   UNL     1       2.036   7.244  19.204  0.00  0.00    +0.000 N 
ATOM      2  C   UNL     1       2.478   8.287  18.281  0.00  0.00    +0.000 C 
ATOM      3  C   UNL     1       1.390   9.366  18.259  0.00  0.00    +0.000 C 
ATOM      4  N   UNL     1       1.098   9.892  19.607  0.00  0.00    +0.000 N 
ATOM      5  C   UNL     1       0.896  11.254  19.682  0.00  0.00    +0.000 C 
ATOM      6  O   UNL     1       0.957  11.974  18.695  0.00  0.00    +0.000 OA
ATOM      7  C   UNL     1       0.753   8.844  20.617  0.00  0.00    +0.000 C 
ATOM      8  C   UNL     1       1.820   7.704  20.590  0.00  0.00    +0.000 C 
ENDROOT
BRANCH   1  12
ATOM      9  C   UNL     1       2.564   3.153  18.349  0.00  0.00    +0.000 A 
ATOM     10  C   UNL     1       3.127   4.115  17.517  0.00  0.00    +0.000 A 
ATOM     11  C   UNL     1       2.982   5.478  17.813  0.00  0.00    +0.000 A 
ATOM     12  C   UNL     1       2.283   5.907  18.940  0.00  0.00    +0.000 A 
ATOM     13  C   UNL     1       1.737   4.924  19.773  0.00  0.00    +0.000 A 
ATOM     14  C   UNL     1       1.860   3.559  19.479  0.00  0.00    +0.000 A 
BRANCH   9  16
ATOM     15  C   UNL     1       3.829   1.167  18.518  0.00  0.00    +0.000 C 
ATOM     16  O   UNL     1       2.728   1.859  17.941  0.00  0.00    +0.000 OA
ENDBRANCH   9  16
ENDBRANCH   1  12
BRANCH   7  17
ATOM     17  C   UNL     1       0.499   9.167  22.103  0.00  0.00    +0.000 C 
ATOM     18  O   UNL     1      -0.601   9.182  22.637  0.00  0.00    +0.000 OA
BRANCH  17  19
ATOM     19  O   UNL     1       1.596   9.623  22.761  0.00  0.00    +0.000 OA
ATOM     20  H   UNL     1       2.336   9.852  22.162  0.00  0.00    +0.000 HD
ENDBRANCH  17  19
ENDBRANCH   7  17
BRANCH   5  21
ATOM     21  O   UNL     1       0.674  11.715  20.939  0.00  0.00    +0.000 OA
BRANCH  21  22
ATOM     22  C   UNL     1      -0.486  12.570  21.176  0.00  0.00    +0.000 C 
ATOM     23  C   UNL     1      -0.244  13.983  20.627  0.00  0.00    +0.000 C 
ATOM     24  C   UNL     1      -1.670  11.936  20.424  0.00  0.00    +0.000 C 
ATOM     25  C   UNL     1      -0.858  12.612  22.668  0.00  0.00    +0.000 C 
ENDBRANCH  21  22
ENDBRANCH   5  21
TORSDOF 6
ENDMDL
MODEL 5
REMARK VINA RESULT:      -6.2      1.815      2.265
REMARK  Name = 
REMARK  10 active torsions:
REMARK  status: ('A' for Active; 'I' for Inactive)
REMARK    1  A    between atoms: C_1  and  O_2
REMARK    2  A    between atoms: O_2  and  C_3
REMARK    3  A    between atoms: C_6  and  N_7
REMARK    4  A    between atoms: C_11  and  O_13
REMARK    5  A    between atoms: O_13  and  C_14
REMARK    6  A    between atoms: C_14  and  C_15
REMARK    7  A    between atoms: C_14  and  C_16
REMARK    8  A    between atoms: C_14  and  C_17
REMARK    9  A    between atoms: C_18  and  C_19
REMARK   10  A    between atoms: C_19  and  O_21
REMARK                            x       y       z     vdW  Elec       q    Type
REMARK                         _______ _______ _______ _____ _____    ______ ____
ROOT
ATOM      1  N   UNL     1       1.728   8.427  19.151  0.00  0.00    +0.000 N 
ATOM      2  C   UNL     1       1.413   9.493  18.203  0.00  0.00    +0.000 C 
ATOM      3  C   UNL     1      -0.061   9.860  18.404  0.00  0.00    +0.000 C 
ATOM      4  N   UNL     1      -0.357  10.241  19.799  0.00  0.00    +0.000 N 
ATOM      5  C   UNL     1      -1.215  11.310  19.955  0.00  0.00    +0.000 C 
ATOM      6  O   UNL     1      -1.695  11.900  18.996  0.00  0.00    +0.000 OA
ATOM      7  C   UNL     1       0.057   9.225  20.817  0.00  0.00    +0.000 C 
ATOM      8  C   UNL     1       1.536   8.793  20.569  0.00  0.00    +0.000 C 
ENDROOT
BRANCH   1  12
ATOM      9  C   UNL     1       4.497   5.417  18.142  0.00  0.00    +0.000 A 
ATOM     10  C   UNL     1       3.708   5.282  19.280  0.00  0.00    +0.000 A 
ATOM     11  C   UNL     1       2.762   6.266  19.605  0.00  0.00    +0.000 A 
ATOM     12  C   UNL     1       2.579   7.391  18.804  0.00  0.00    +0.000 A 
ATOM     13  C   UNL     1       3.371   7.501  17.655  0.00  0.00    +0.000 A 
ATOM     14  C   UNL     1       4.331   6.534  17.329  0.00  0.00    +0.000 A 
BRANCH   9  16
ATOM     15  C   UNL     1       6.085   4.444  16.691  0.00  0.00    +0.000 C 
ATOM     16  O   UNL     1       5.415   4.424  17.947  0.00  0.00    +0.000 OA
ENDBRANCH   9  16
ENDBRANCH   1  12
BRANCH   7  17
ATOM     17  C   UNL     1      -0.080   9.459  22.334  0.00  0.00    +0.000 C 
ATOM     18  O   UNL     1       0.747  10.028  23.032  0.00  0.00    +0.000 OA
BRANCH  17  19
ATOM     19  O   UNL     1      -1.135   8.813  22.896  0.00  0.00    +0.000 OA
ATOM     20  H   UNL     1      -1.016   7.843  22.934  0.00  0.00    +0.000 HD
ENDBRANCH  17  19
ENDBRANCH   7  17
BRANCH   5  21
ATOM     21  O   UNL     1      -1.433  11.665  21.246  0.00  0.00    +0.000 OA
BRANCH  21  22
ATOM     22  C   UNL     1      -1.054  13.007  21.677  0.00  0.00    +0.000 C 
ATOM     23  C   UNL     1      -1.963  14.064  21.033  0.00  0.00    +0.000 C 
ATOM     24  C   UNL     1      -1.234  13.054  23.205  0.00  0.00    +0.000 C 
ATOM     25  C   UNL     1       0.426  13.296  21.378  0.00  0.00    +0.000 C 
ENDBRANCH  21  22
ENDBRANCH   5  21
TORSDOF 6
ENDMDL
MODEL 6
REMARK VINA RESULT:      -6.1      0.855      1.546
REMARK  Name = 
REMARK  10 active torsions:
REMARK  status: ('A' for Active; 'I' for Inactive)
REMARK    1  A    between atoms: C_1  and  O_2
REMARK    2  A    between atoms: O_2  and  C_3
REMARK    3  A    between atoms: C_6  and  N_7
REMARK    4  A    between atoms: C_11  and  O_13
REMARK    5  A    between atoms: O_13  and  C_14
REMARK    6  A    between atoms: C_14  and  C_15
REMARK    7  A    between atoms: C_14  and  C_16
REMARK    8  A    between atoms: C_14  and  C_17
REMARK    9  A    between atoms: C_18  and  C_19
REMARK   10  A    between atoms: C_19  and  O_21
REMARK                            x       y       z     vdW  Elec       q    Type
REMARK                         _______ _______ _______ _____ _____    ______ ____
ROOT
ATOM      1  N   UNL     1       1.926   7.810  19.485  0.00  0.00    +0.000 N 
ATOM      2  C   UNL     1       2.075   8.910  18.535  0.00  0.00    +0.000 C 
ATOM      3  C   UNL     1       0.800   9.757  18.616  0.00  0.00    +0.000 C 
ATOM      4  N   UNL     1       0.530  10.229  19.988  0.00  0.00    +0.000 N 
ATOM      5  C   UNL     1       0.074  11.527  20.090  0.00  0.00    +0.000 C 
ATOM      6  O   UNL     1      -0.093  12.235  19.106  0.00  0.00    +0.000 OA
ATOM      7  C   UNL     1       0.484   9.144  21.017  0.00  0.00    +0.000 C 
ATOM      8  C   UNL     1       1.746   8.234  20.889  0.00  0.00    +0.000 C 
ENDROOT
BRANCH   1  12
ATOM      9  C   UNL     1       3.595   4.039  18.625  0.00  0.00    +0.000 A 
ATOM     10  C   UNL     1       2.855   4.223  19.789  0.00  0.00    +0.000 A 
ATOM     11  C   UNL     1       2.271   5.467  20.066  0.00  0.00    +0.000 A 
ATOM     12  C   UNL     1       2.404   6.544  19.192  0.00  0.00    +0.000 A 
ATOM     13  C   UNL     1       3.138   6.335  18.019  0.00  0.00    +0.000 A 
ATOM     14  C   UNL     1       3.742   5.102  17.739  0.00  0.00    +0.000 A 
BRANCH   9  16
ATOM     15  C   UNL     1       3.241   1.718  18.378  0.00  0.00    +0.000 C 
ATOM     16  O   UNL     1       4.157   2.802  18.478  0.00  0.00    +0.000 OA
ENDBRANCH   9  16
ENDBRANCH   1  12
BRANCH   7  17
ATOM     17  C   UNL     1       0.302   9.426  22.521  0.00  0.00    +0.000 C 
ATOM     18  O   UNL     1       1.209   9.687  23.299  0.00  0.00    +0.000 OA
BRANCH  17  19
ATOM     19  O   UNL     1      -0.954   9.183  22.977  0.00  0.00    +0.000 OA
ATOM     20  H   UNL     1      -1.233   9.800  23.684  0.00  0.00    +0.000 HD
ENDBRANCH  17  19
ENDBRANCH   7  17
BRANCH   5  21
ATOM     21  O   UNL     1      -0.124  11.949  21.365  0.00  0.00    +0.000 OA
BRANCH  21  22
ATOM     22  C   UNL     1      -1.326  12.720  21.669  0.00  0.00    +0.000 C 
ATOM     23  C   UNL     1      -1.742  12.528  23.134  0.00  0.00    +0.000 C 
ATOM     24  C   UNL     1      -0.978  14.201  21.436  0.00  0.00    +0.000 C 
ATOM     25  C   UNL     1      -2.479  12.363  20.716  0.00  0.00    +0.000 C 
ENDBRANCH  21  22
ENDBRANCH   5  21
TORSDOF 6
ENDMDL
MODEL 7
REMARK VINA RESULT:      -6.1      2.461      3.744
REMARK  Name = 
REMARK  10 active torsions:
REMARK  status: ('A' for Active; 'I' for Inactive)
REMARK    1  A    between atoms: C_1  and  O_2
REMARK    2  A    between atoms: O_2  and  C_3
REMARK    3  A    between atoms: C_6  and  N_7
REMARK    4  A    between atoms: C_11  and  O_13
REMARK    5  A    between atoms: O_13  and  C_14
REMARK    6  A    between atoms: C_14  and  C_15
REMARK    7  A    between atoms: C_14  and  C_16
REMARK    8  A    between atoms: C_14  and  C_17
REMARK    9  A    between atoms: C_18  and  C_19
REMARK   10  A    between atoms: C_19  and  O_21
REMARK                            x       y       z     vdW  Elec       q    Type
REMARK                         _______ _______ _______ _____ _____    ______ ____
ROOT
ATOM      1  N   UNL     1       2.745   6.832  18.547  0.00  0.00    +0.000 N 
ATOM      2  C   UNL     1       2.035   6.253  19.686  0.00  0.00    +0.000 C 
ATOM      3  C   UNL     1       1.863   7.366  20.727  0.00  0.00    +0.000 C 
ATOM      4  N   UNL     1       1.171   8.546  20.173  0.00  0.00    +0.000 N 
ATOM      5  C   UNL     1       0.247   9.140  21.007  0.00  0.00    +0.000 C 
ATOM      6  O   UNL     1       0.019   8.712  22.130  0.00  0.00    +0.000 OA
ATOM      7  C   UNL     1       1.798   9.104  18.933  0.00  0.00    +0.000 C 
ATOM      8  C   UNL     1       2.045   7.960  17.899  0.00  0.00    +0.000 C 
ENDROOT
BRANCH   1  12
ATOM      9  C   UNL     1       5.449   4.533  16.279  0.00  0.00    +0.000 A 
ATOM     10  C   UNL     1       5.517   5.921  16.243  0.00  0.00    +0.000 A 
ATOM     11  C   UNL     1       4.640   6.693  17.019  0.00  0.00    +0.000 A 
ATOM     12  C   UNL     1       3.689   6.100  17.848  0.00  0.00    +0.000 A 
ATOM     13  C   UNL     1       3.647   4.701  17.883  0.00  0.00    +0.000 A 
ATOM     14  C   UNL     1       4.505   3.920  17.098  0.00  0.00    +0.000 A 
BRANCH   9  16
ATOM     15  C   UNL     1       6.510   4.477  14.171  0.00  0.00    +0.000 C 
ATOM     16  O   UNL     1       6.319   3.883  15.450  0.00  0.00    +0.000 OA
ENDBRANCH   9  16
ENDBRANCH   1  12
BRANCH   7  17
ATOM     17  C   UNL     1       1.188  10.279  18.145  0.00  0.00    +0.000 C 
ATOM     18  O   UNL     1       1.647  11.412  18.111  0.00  0.00    +0.000 OA
BRANCH  17  19
ATOM     19  O   UNL     1      -0.033  10.010  17.615  0.00  0.00    +0.000 OA
ATOM     20  H   UNL     1      -0.508   9.296  18.086  0.00  0.00    +0.000 HD
ENDBRANCH  17  19
ENDBRANCH   7  17
BRANCH   5  21
ATOM     21  O   UNL     1      -0.404  10.195  20.455  0.00  0.00    +0.000 OA
BRANCH  21  22
ATOM     22  C   UNL     1      -0.432  11.460  21.185  0.00  0.00    +0.000 C 
ATOM     23  C   UNL     1       0.984  12.033  21.336  0.00  0.00    +0.000 C 
ATOM     24  C   UNL     1      -1.283  12.437  20.354  0.00  0.00    +0.000 C 
ATOM     25  C   UNL     1      -1.115  11.304  22.554  0.00  0.00    +0.000 C 
ENDBRANCH  21  22
ENDBRANCH   5  21
TORSDOF 6
ENDMDL
MODEL 8
REMARK VINA RESULT:      -6.0      0.976      1.311
REMARK  Name = 
REMARK  10 active torsions:
REMARK  status: ('A' for Active; 'I' for Inactive)
REMARK    1  A    between atoms: C_1  and  O_2
REMARK    2  A    between atoms: O_2  and  C_3
REMARK    3  A    between atoms: C_6  and  N_7
REMARK    4  A    between atoms: C_11  and  O_13
REMARK    5  A    between atoms: O_13  and  C_14
REMARK    6  A    between atoms: C_14  and  C_15
REMARK    7  A    between atoms: C_14  and  C_16
REMARK    8  A    between atoms: C_14  and  C_17
REMARK    9  A    between atoms: C_18  and  C_19
REMARK   10  A    between atoms: C_19  and  O_21
REMARK                            x       y       z     vdW  Elec       q    Type
REMARK                         _______ _______ _______ _____ _____    ______ ____
ROOT
ATOM      1  N   UNL     1       1.911   7.967  19.425  0.00  0.00    +0.000 N 
ATOM      2  C   UNL     1       1.938   9.080  18.478  0.00  0.00    +0.000 C 
ATOM      3  C   UNL     1       0.601   9.818  18.607  0.00  0.00    +0.000 C 
ATOM      4  N   UNL     1       0.339  10.261  19.990  0.00  0.00    +0.000 N 
ATOM      5  C   UNL     1      -0.218  11.517  20.117  0.00  0.00    +0.000 C 
ATOM      6  O   UNL     1      -0.475  12.213  19.145  0.00  0.00    +0.000 OA
ATOM      7  C   UNL     1       0.417   9.171  21.013  0.00  0.00    +0.000 C 
ATOM      8  C   UNL     1       1.744   8.368  20.836  0.00  0.00    +0.000 C 
ENDROOT
BRANCH   1  12
ATOM      9  C   UNL     1       3.434   4.174  18.405  0.00  0.00    +0.000 A 
ATOM     10  C   UNL     1       3.717   5.275  17.604  0.00  0.00    +0.000 A 
ATOM     11  C   UNL     1       3.239   6.546  17.954  0.00  0.00    +0.000 A 
ATOM     12  C   UNL     1       2.481   6.746  19.106  0.00  0.00    +0.000 A 
ATOM     13  C   UNL     1       2.221   5.629  19.908  0.00  0.00    +0.000 A 
ATOM     14  C   UNL     1       2.677   4.351  19.560  0.00  0.00    +0.000 A 
BRANCH   9  16
ATOM     15  C   UNL     1       3.147   1.833  18.306  0.00  0.00    +0.000 C 
ATOM     16  O   UNL     1       3.910   2.979  17.946  0.00  0.00    +0.000 OA
ENDBRANCH   9  16
ENDBRANCH   1  12
BRANCH   7  17
ATOM     17  C   UNL     1       0.263   9.431  22.524  0.00  0.00    +0.000 C 
ATOM     18  O   UNL     1       1.180   9.707  23.284  0.00  0.00    +0.000 OA
BRANCH  17  19
ATOM     19  O   UNL     1      -0.975   9.148  23.006  0.00  0.00    +0.000 OA
ATOM     20  H   UNL     1      -0.978   8.412  23.650  0.00  0.00    +0.000 HD
ENDBRANCH  17  19
ENDBRANCH   7  17
BRANCH   5  21
ATOM     21  O   UNL     1      -0.407  11.915  21.401  0.00  0.00    +0.000 OA
BRANCH  21  22
ATOM     22  C   UNL     1      -1.602  12.689  21.725  0.00  0.00    +0.000 C 
ATOM     23  C   UNL     1      -2.070  12.395  23.158  0.00  0.00    +0.000 C 
ATOM     24  C   UNL     1      -1.215  14.175  21.618  0.00  0.00    +0.000 C 
ATOM     25  C   UNL     1      -2.730  12.433  20.712  0.00  0.00    +0.000 C 
ENDBRANCH  21  22
ENDBRANCH   5  21
TORSDOF 6
ENDMDL
MODEL 9
REMARK VINA RESULT:      -6.0      1.781      2.095
REMARK  Name = 
REMARK  10 active torsions:
REMARK  status: ('A' for Active; 'I' for Inactive)
REMARK    1  A    between atoms: C_1  and  O_2
REMARK    2  A    between atoms: O_2  and  C_3
REMARK    3  A    between atoms: C_6  and  N_7
REMARK    4  A    between atoms: C_11  and  O_13
REMARK    5  A    between atoms: O_13  and  C_14
REMARK    6  A    between atoms: C_14  and  C_15
REMARK    7  A    between atoms: C_14  and  C_16
REMARK    8  A    between atoms: C_14  and  C_17
REMARK    9  A    between atoms: C_18  and  C_19
REMARK   10  A    between atoms: C_19  and  O_21
REMARK                            x       y       z     vdW  Elec       q    Type
REMARK                         _______ _______ _______ _____ _____    ______ ____
ROOT
ATOM      1  N   UNL     1       1.851   8.285  18.783  0.00  0.00    +0.000 N 
ATOM      2  C   UNL     1       1.487   9.364  17.866  0.00  0.00    +0.000 C 
ATOM      3  C   UNL     1       0.033   9.746  18.168  0.00  0.00    +0.000 C 
ATOM      4  N   UNL     1      -0.164  10.119  19.583  0.00  0.00    +0.000 N 
ATOM      5  C   UNL     1      -0.996  11.196  19.803  0.00  0.00    +0.000 C 
ATOM      6  O   UNL     1      -1.532  11.800  18.884  0.00  0.00    +0.000 OA
ATOM      7  C   UNL     1       0.304   9.089  20.563  0.00  0.00    +0.000 C 
ATOM      8  C   UNL     1       1.758   8.642  20.213  0.00  0.00    +0.000 C 
ENDROOT
BRANCH   1  12
ATOM      9  C   UNL     1       4.155   5.045  17.393  0.00  0.00    +0.000 A 
ATOM     10  C   UNL     1       4.509   6.346  17.052  0.00  0.00    +0.000 A 
ATOM     11  C   UNL     1       3.764   7.431  17.536  0.00  0.00    +0.000 A 
ATOM     12  C   UNL     1       2.664   7.243  18.372  0.00  0.00    +0.000 A 
ATOM     13  C   UNL     1       2.334   5.928  18.717  0.00  0.00    +0.000 A 
ATOM     14  C   UNL     1       3.059   4.835  18.225  0.00  0.00    +0.000 A 
BRANCH   9  16
ATOM     15  C   UNL     1       5.495   4.381  15.567  0.00  0.00    +0.000 C 
ATOM     16  O   UNL     1       4.920   4.064  16.829  0.00  0.00    +0.000 OA
ENDBRANCH   9  16
ENDBRANCH   1  12
BRANCH   7  17
ATOM     17  C   UNL     1       0.272   9.312  22.088  0.00  0.00    +0.000 C 
ATOM     18  O   UNL     1       1.224   9.676  22.762  0.00  0.00    +0.000 OA
BRANCH  17  19
ATOM     19  O   UNL     1      -0.877   8.892  22.679  0.00  0.00    +0.000 OA
ATOM     20  H   UNL     1      -1.430   8.336  22.094  0.00  0.00    +0.000 HD
ENDBRANCH  17  19
ENDBRANCH   7  17
BRANCH   5  21
ATOM     21  O   UNL     1      -1.124  11.543  21.109  0.00  0.00    +0.000 OA
BRANCH  21  22
ATOM     22  C   UNL     1      -0.807  12.912  21.504  0.00  0.00    +0.000 C 
ATOM     23  C   UNL     1      -1.770  13.908  20.840  0.00  0.00    +0.000 C 
ATOM     24  C   UNL     1      -0.981  12.989  23.032  0.00  0.00    +0.000 C 
ATOM     25  C   UNL     1       0.656  13.264  21.188  0.00  0.00    +0.000 C 
ENDBRANCH  21  22
ENDBRANCH   5  21
TORSDOF 6
ENDMDL
