MODEL 1
REMARK VINA RESULT:      -7.9      0.000      0.000
REMARK  Name = 
REMARK  11 active torsions:
REMARK  status: ('A' for Active; 'I' for Inactive)
REMARK    1  A    between atoms: C_1  and  C_2
REMARK    2  A    between atoms: C_2  and  C_3
REMARK    3  A    between atoms: C_2  and  N_7
REMARK    4  A    between atoms: N_5  and  O_6
REMARK    5  A    between atoms: N_7  and  C_8
REMARK    6  A    between atoms: N_7  and  S_18
REMARK    7  A    between atoms: C_8  and  C_9
REMARK    8  A    between atoms: C_12  and  N_13
REMARK    9  A    between atoms: S_18  and  C_21
REMARK   10  A    between atoms: C_25  and  C_26
REMARK   11  A    between atoms: C_26  and  O_28
REMARK                            x       y       z     vdW  Elec       q    Type
REMARK                         _______ _______ _______ _____ _____    ______ ____
ROOT
ATOM      1  N   UNL     1       5.098   5.721  17.789  0.00  0.00    +0.000 NA
ENDROOT
BRANCH   1   2
ATOM      2  S   UNL     1       4.605   4.137  17.169  0.00  0.00    +0.000 S 
ATOM      3  O   UNL     1       4.119   4.234  15.817  0.00  0.00    +0.000 OA
ATOM      4  O   UNL     1       5.649   3.199  17.519  0.00  0.00    +0.000 OA
BRANCH   2   5
ATOM      5  C   UNL     1       3.164   3.774  18.135  0.00  0.00    +0.000 A 
ATOM      6  C   UNL     1       1.910   3.877  17.528  0.00  0.00    +0.000 A 
ATOM      7  C   UNL     1       0.769   3.551  18.258  0.00  0.00    +0.000 A 
ATOM      8  C   UNL     1       0.899   3.131  19.585  0.00  0.00    +0.000 A 
ATOM      9  C   UNL     1       2.157   3.025  20.195  0.00  0.00    +0.000 A 
ATOM     10  C   UNL     1       3.308   3.327  19.452  0.00  0.00    +0.000 A 
BRANCH   9  11
ATOM     11  C   UNL     1       2.211   2.541  21.594  0.00  0.00    +0.000 C 
ATOM     12  O   UNL     1       1.239   2.580  22.333  0.00  0.00    +0.000 OA
BRANCH  11  13
ATOM     13  O   UNL     1       3.419   2.103  22.004  0.00  0.00    +0.000 OA
ATOM     14  H   UNL     1       4.055   1.840  21.314  0.00  0.00    +0.000 HD
ENDBRANCH  11  13
ENDBRANCH   9  11
ENDBRANCH   2   5
ENDBRANCH   1   2
BRANCH   1  16
ATOM     15  C   UNL     1       7.004   7.474  17.482  0.00  0.00    +0.000 C 
ATOM     16  C   UNL     1       6.599   5.991  17.482  0.00  0.00    +0.000 C 
BRANCH  16  17
ATOM     17  C   UNL     1       7.548   5.310  18.475  0.00  0.00    +0.000 C 
ATOM     18  O   UNL     1       8.346   4.424  18.174  0.00  0.00    +0.000 OA
ATOM     19  N   UNL     1       7.490   5.811  19.757  0.00  0.00    +0.000 N 
ATOM     20  H   UNL     1       6.647   6.247  20.120  0.00  0.00    +0.000 HD
BRANCH  19  21
ATOM     21  O   UNL     1       8.333   5.178  20.699  0.00  0.00    +0.000 OA
ATOM     22  H   UNL     1       8.623   5.924  21.266  0.00  0.00    +0.000 HD
ENDBRANCH  19  21
ENDBRANCH  16  17
ENDBRANCH   1  16
BRANCH   1  23
ATOM     23  C   UNL     1       4.218   6.797  17.204  0.00  0.00    +0.000 C 
BRANCH  23  24
ATOM     24  C   UNL     1       3.182   7.437  18.118  0.00  0.00    +0.000 A 
ATOM     25  C   UNL     1       2.866   6.910  19.380  0.00  0.00    +0.000 A 
ATOM     26  C   UNL     1       1.968   7.578  20.226  0.00  0.00    +0.000 A 
ATOM     27  C   UNL     1       1.396   8.792  19.816  0.00  0.00    +0.000 A 
ATOM     28  C   UNL     1       1.657   9.300  18.541  0.00  0.00    +0.000 A 
ATOM     29  C   UNL     1       2.541   8.620  17.700  0.00  0.00    +0.000 A 
BRANCH  27  30
ATOM     30  N   UNL     1       0.565   9.567  20.748  0.00  0.00    +0.000 N 
ATOM     31  O   UNL     1      -0.664   9.523  20.598  0.00  0.00    +0.000 OA
ATOM     32  O   UNL     1       1.140  10.190  21.654  0.00  0.00    +0.000 OA
ENDBRANCH  27  30
ENDBRANCH  23  24
ENDBRANCH   1  23
TORSDOF 10
ENDMDL
MODEL 2
REMARK VINA RESULT:      -7.9      1.482      2.368
REMARK  Name = 
REMARK  11 active torsions:
REMARK  status: ('A' for Active; 'I' for Inactive)
REMARK    1  A    between atoms: C_1  and  C_2
REMARK    2  A    between atoms: C_2  and  C_3
REMARK    3  A    between atoms: C_2  and  N_7
REMARK    4  A    between atoms: N_5  and  O_6
REMARK    5  A    between atoms: N_7  and  C_8
REMARK    6  A    between atoms: N_7  and  S_18
REMARK    7  A    between atoms: C_8  and  C_9
REMARK    8  A    between atoms: C_12  and  N_13
REMARK    9  A    between atoms: S_18  and  C_21
REMARK   10  A    between atoms: C_25  and  C_26
REMARK   11  A    between atoms: C_26  and  O_28
REMARK                            x       y       z     vdW  Elec       q    Type
REMARK                         _______ _______ _______ _____ _____    ______ ____
ROOT
ATOM      1  N   UNL     1       5.158   6.142  18.091  0.00  0.00    +0.000 NA
ENDROOT
BRANCH   1   2
ATOM      2  S   UNL     1       5.647   4.442  18.054  0.00  0.00    +0.000 S 
ATOM      3  O   UNL     1       5.985   4.024  16.718  0.00  0.00    +0.000 OA
ATOM      4  O   UNL     1       6.568   4.240  19.152  0.00  0.00    +0.000 OA
BRANCH   2   5
ATOM      5  C   UNL     1       4.133   3.594  18.417  0.00  0.00    +0.000 A 
ATOM      6  C   UNL     1       3.464   2.948  17.374  0.00  0.00    +0.000 A 
ATOM      7  C   UNL     1       2.298   2.238  17.648  0.00  0.00    +0.000 A 
ATOM      8  C   UNL     1       1.815   2.188  18.960  0.00  0.00    +0.000 A 
ATOM      9  C   UNL     1       2.486   2.835  20.007  0.00  0.00    +0.000 A 
ATOM     10  C   UNL     1       3.676   3.527  19.736  0.00  0.00    +0.000 A 
BRANCH   9  11
ATOM     11  C   UNL     1       1.927   2.706  21.373  0.00  0.00    +0.000 C 
ATOM     12  O   UNL     1       2.627   2.446  22.340  0.00  0.00    +0.000 OA
BRANCH  11  13
ATOM     13  O   UNL     1       0.589   2.847  21.461  0.00  0.00    +0.000 OA
ATOM     14  H   UNL     1       0.175   3.529  20.902  0.00  0.00    +0.000 HD
ENDBRANCH  11  13
ENDBRANCH   9  11
ENDBRANCH   2   5
ENDBRANCH   1   2
BRANCH   1  16
ATOM     15  C   UNL     1       7.533   7.168  17.763  0.00  0.00    +0.000 C 
ATOM     16  C   UNL     1       6.106   7.009  17.214  0.00  0.00    +0.000 C 
BRANCH  16  17
ATOM     17  C   UNL     1       6.276   6.463  15.791  0.00  0.00    +0.000 C 
ATOM     18  O   UNL     1       5.420   6.542  14.912  0.00  0.00    +0.000 OA
ATOM     19  N   UNL     1       7.513   5.914  15.534  0.00  0.00    +0.000 N 
ATOM     20  H   UNL     1       8.080   5.510  16.274  0.00  0.00    +0.000 HD
BRANCH  19  21
ATOM     21  O   UNL     1       7.684   5.374  14.239  0.00  0.00    +0.000 OA
ATOM     22  H   UNL     1       7.456   4.428  14.366  0.00  0.00    +0.000 HD
ENDBRANCH  19  21
ENDBRANCH  16  17
ENDBRANCH   1  16
BRANCH   1  23
ATOM     23  C   UNL     1       3.724   6.273  17.640  0.00  0.00    +0.000 C 
BRANCH  23  24
ATOM     24  C   UNL     1       2.848   7.292  18.356  0.00  0.00    +0.000 A 
ATOM     25  C   UNL     1       2.393   8.464  17.731  0.00  0.00    +0.000 A 
ATOM     26  C   UNL     1       1.518   9.334  18.399  0.00  0.00    +0.000 A 
ATOM     27  C   UNL     1       1.080   9.022  19.695  0.00  0.00    +0.000 A 
ATOM     28  C   UNL     1       1.569   7.889  20.351  0.00  0.00    +0.000 A 
ATOM     29  C   UNL     1       2.451   7.036  19.683  0.00  0.00    +0.000 A 
BRANCH  27  30
ATOM     30  N   UNL     1       0.059   9.853  20.348  0.00  0.00    +0.000 N 
ATOM     31  O   UNL     1      -0.156   9.661  21.552  0.00  0.00    +0.000 OA
ATOM     32  O   UNL     1      -0.501  10.723  19.664  0.00  0.00    +0.000 OA
ENDBRANCH  27  30
ENDBRANCH  23  24
ENDBRANCH   1  23
TORSDOF 10
ENDMDL
MODEL 3
REMARK VINA RESULT:      -7.9      1.354      2.033
REMARK  Name = 
REMARK  11 active torsions:
REMARK  status: ('A' for Active; 'I' for Inactive)
REMARK    1  A    between atoms: C_1  and  C_2
REMARK    2  A    between atoms: C_2  and  C_3
REMARK    3  A    between atoms: C_2  and  N_7
REMARK    4  A    between atoms: N_5  and  O_6
REMARK    5  A    between atoms: N_7  and  C_8
REMARK    6  A    between atoms: N_7  and  S_18
REMARK    7  A    between atoms: C_8  and  C_9
REMARK    8  A    between atoms: C_12  and  N_13
REMARK    9  A    between atoms: S_18  and  C_21
REMARK   10  A    between atoms: C_25  and  C_26
REMARK   11  A    between atoms: C_26  and  O_28
REMARK                            x       y       z     vdW  Elec       q    Type
REMARK                         _______ _______ _______ _____ _____    ______ ____
ROOT
ATOM      1  N   UNL     1       4.873   6.166  17.996  0.00  0.00    +0.000 NA
ENDROOT
BRANCH   1   2
ATOM      2  S   UNL     1       5.036   4.410  17.845  0.00  0.00    +0.000 S 
ATOM      3  O   UNL     1       5.022   4.001  16.465  0.00  0.00    +0.000 OA
ATOM      4  O   UNL     1       6.106   4.004  18.731  0.00  0.00    +0.000 OA
BRANCH   2   5
ATOM      5  C   UNL     1       3.499   3.820  18.501  0.00  0.00    +0.000 A 
ATOM      6  C   UNL     1       2.405   3.707  17.639  0.00  0.00    +0.000 A 
ATOM      7  C   UNL     1       1.202   3.201  18.125  0.00  0.00    +0.000 A 
ATOM      8  C   UNL     1       1.109   2.821  19.468  0.00  0.00    +0.000 A 
ATOM      9  C   UNL     1       2.206   2.933  20.334  0.00  0.00    +0.000 A 
ATOM     10  C   UNL     1       3.425   3.416  19.837  0.00  0.00    +0.000 A 
BRANCH   9  11
ATOM     11  C   UNL     1       2.034   2.477  21.733  0.00  0.00    +0.000 C 
ATOM     12  O   UNL     1       2.952   1.989  22.375  0.00  0.00    +0.000 OA
BRANCH  11  13
ATOM     13  O   UNL     1       0.784   2.595  22.226  0.00  0.00    +0.000 OA
ATOM     14  H   UNL     1       0.369   1.789  22.584  0.00  0.00    +0.000 HD
ENDBRANCH  11  13
ENDBRANCH   9  11
ENDBRANCH   2   5
ENDBRANCH   1   2
BRANCH   1  16
ATOM     15  C   UNL     1       7.417   6.737  17.950  0.00  0.00    +0.000 C 
ATOM     16  C   UNL     1       6.045   6.893  17.276  0.00  0.00    +0.000 C 
BRANCH  16  17
ATOM     17  C   UNL     1       6.246   6.425  15.830  0.00  0.00    +0.000 C 
ATOM     18  O   UNL     1       5.456   6.647  14.914  0.00  0.00    +0.000 OA
ATOM     19  N   UNL     1       7.436   5.770  15.601  0.00  0.00    +0.000 N 
ATOM     20  H   UNL     1       7.915   5.265  16.341  0.00  0.00    +0.000 HD
BRANCH  19  21
ATOM     21  O   UNL     1       7.631   5.300  14.283  0.00  0.00    +0.000 OA
ATOM     22  H   UNL     1       7.872   6.116  13.794  0.00  0.00    +0.000 HD
ENDBRANCH  19  21
ENDBRANCH  16  17
ENDBRANCH   1  16
BRANCH   1  23
ATOM     23  C   UNL     1       3.538   6.606  17.449  0.00  0.00    +0.000 C 
BRANCH  23  24
ATOM     24  C   UNL     1       2.644   7.441  18.356  0.00  0.00    +0.000 A 
ATOM     25  C   UNL     1       2.343   7.059  19.673  0.00  0.00    +0.000 A 
ATOM     26  C   UNL     1       1.585   7.899  20.503  0.00  0.00    +0.000 A 
ATOM     27  C   UNL     1       1.139   9.138  20.019  0.00  0.00    +0.000 A 
ATOM     28  C   UNL     1       1.382   9.507  18.693  0.00  0.00    +0.000 A 
ATOM     29  C   UNL     1       2.126   8.657  17.870  0.00  0.00    +0.000 A 
BRANCH  27  30
ATOM     30  N   UNL     1       0.465  10.082  20.922  0.00  0.00    +0.000 N 
ATOM     31  O   UNL     1       0.173   9.685  22.057  0.00  0.00    +0.000 OA
ATOM     32  O   UNL     1       0.262  11.234  20.506  0.00  0.00    +0.000 OA
ENDBRANCH  27  30
ENDBRANCH  23  24
ENDBRANCH   1  23
TORSDOF 10
ENDMDL
MODEL 4
REMARK VINA RESULT:      -7.7      1.669      2.348
REMARK  Name = 
REMARK  11 active torsions:
REMARK  status: ('A' for Active; 'I' for Inactive)
REMARK    1  A    between atoms: C_1  and  C_2
REMARK    2  A    between atoms: C_2  and  C_3
REMARK    3  A    between atoms: C_2  and  N_7
REMARK    4  A    between atoms: N_5  and  O_6
REMARK    5  A    between atoms: N_7  and  C_8
REMARK    6  A    between atoms: N_7  and  S_18
REMARK    7  A    between atoms: C_8  and  C_9
REMARK    8  A    between atoms: C_12  and  N_13
REMARK    9  A    between atoms: S_18  and  C_21
REMARK   10  A    between atoms: C_25  and  C_26
REMARK   11  A    between atoms: C_26  and  O_28
REMARK                            x       y       z     vdW  Elec       q    Type
REMARK                         _______ _______ _______ _____ _____    ______ ____
ROOT
ATOM      1  N   UNL     1       3.913   5.846  17.995  0.00  0.00    +0.000 NA
ENDROOT
BRANCH   1   2
ATOM      2  S   UNL     1       2.874   4.441  17.714  0.00  0.00    +0.000 S 
ATOM      3  O   UNL     1       1.489   4.825  17.625  0.00  0.00    +0.000 OA
ATOM      4  O   UNL     1       3.496   3.652  16.673  0.00  0.00    +0.000 OA
BRANCH   2   5
ATOM      5  C   UNL     1       2.993   3.558  19.247  0.00  0.00    +0.000 A 
ATOM      6  C   UNL     1       1.967   3.705  20.183  0.00  0.00    +0.000 A 
ATOM      7  C   UNL     1       2.020   2.984  21.373  0.00  0.00    +0.000 A 
ATOM      8  C   UNL     1       3.101   2.129  21.611  0.00  0.00    +0.000 A 
ATOM      9  C   UNL     1       4.131   1.979  20.672  0.00  0.00    +0.000 A 
ATOM     10  C   UNL     1       4.063   2.685  19.461  0.00  0.00    +0.000 A 
BRANCH   9  11
ATOM     11  C   UNL     1       5.224   1.029  20.986  0.00  0.00    +0.000 C 
ATOM     12  O   UNL     1       5.820   1.054  22.052  0.00  0.00    +0.000 OA
BRANCH  11  13
ATOM     13  O   UNL     1       5.544   0.173  19.994  0.00  0.00    +0.000 OA
ATOM     14  H   UNL     1       6.365   0.350  19.501  0.00  0.00    +0.000 HD
ENDBRANCH  11  13
ENDBRANCH   9  11
ENDBRANCH   2   5
ENDBRANCH   1   2
BRANCH   1  16
ATOM     15  C   UNL     1       5.518   6.484  16.041  0.00  0.00    +0.000 C 
ATOM     16  C   UNL     1       5.299   5.653  17.316  0.00  0.00    +0.000 C 
BRANCH  16  17
ATOM     17  C   UNL     1       6.474   6.003  18.236  0.00  0.00    +0.000 C 
ATOM     18  O   UNL     1       7.262   6.925  18.033  0.00  0.00    +0.000 OA
ATOM     19  N   UNL     1       6.560   5.230  19.373  0.00  0.00    +0.000 N 
ATOM     20  H   UNL     1       6.193   4.283  19.401  0.00  0.00    +0.000 HD
BRANCH  19  21
ATOM     21  O   UNL     1       7.654   5.511  20.222  0.00  0.00    +0.000 OA
ATOM     22  H   UNL     1       8.239   4.736  20.085  0.00  0.00    +0.000 HD
ENDBRANCH  19  21
ENDBRANCH  16  17
ENDBRANCH   1  16
BRANCH   1  23
ATOM     23  C   UNL     1       3.230   7.097  17.498  0.00  0.00    +0.000 C 
BRANCH  23  24
ATOM     24  C   UNL     1       2.418   7.904  18.501  0.00  0.00    +0.000 A 
ATOM     25  C   UNL     1       1.776   9.104  18.156  0.00  0.00    +0.000 A 
ATOM     26  C   UNL     1       0.967   9.772  19.089  0.00  0.00    +0.000 A 
ATOM     27  C   UNL     1       0.785   9.229  20.369  0.00  0.00    +0.000 A 
ATOM     28  C   UNL     1       1.463   8.066  20.745  0.00  0.00    +0.000 A 
ATOM     29  C   UNL     1       2.277   7.415  19.815  0.00  0.00    +0.000 A 
BRANCH  27  30
ATOM     30  N   UNL     1      -0.167   9.846  21.303  0.00  0.00    +0.000 N 
ATOM     31  O   UNL     1      -0.630   9.136  22.206  0.00  0.00    +0.000 OA
ATOM     32  O   UNL     1      -0.423  11.051  21.155  0.00  0.00    +0.000 OA
ENDBRANCH  27  30
ENDBRANCH  23  24
ENDBRANCH   1  23
TORSDOF 10
ENDMDL
MODEL 5
REMARK VINA RESULT:      -7.7      1.136      1.976
REMARK  Name = 
REMARK  11 active torsions:
REMARK  status: ('A' for Active; 'I' for Inactive)
REMARK    1  A    between atoms: C_1  and  C_2
REMARK    2  A    between atoms: C_2  and  C_3
REMARK    3  A    between atoms: C_2  and  N_7
REMARK    4  A    between atoms: N_5  and  O_6
REMARK    5  A    between atoms: N_7  and  C_8
REMARK    6  A    between atoms: N_7  and  S_18
REMARK    7  A    between atoms: C_8  and  C_9
REMARK    8  A    between atoms: C_12  and  N_13
REMARK    9  A    between atoms: S_18  and  C_21
REMARK   10  A    between atoms: C_25  and  C_26
REMARK   11  A    between atoms: C_26  and  O_28
REMARK                            x       y       z     vdW  Elec       q    Type
REMARK                         _______ _______ _______ _____ _____    ______ ____
ROOT
ATOM      1  N   UNL     1       5.067   5.895  17.936  0.00  0.00    +0.000 NA
ENDROOT
BRANCH   1   2
ATOM      2  S   UNL     1       4.894   4.159  17.637  0.00  0.00    +0.000 S 
ATOM      3  O   UNL     1       4.675   3.889  16.240  0.00  0.00    +0.000 OA
ATOM      4  O   UNL     1       5.950   3.493  18.367  0.00  0.00    +0.000 OA
BRANCH   2   5
ATOM      5  C   UNL     1       3.343   3.786  18.411  0.00  0.00    +0.000 A 
ATOM      6  C   UNL     1       2.176   3.884  17.649  0.00  0.00    +0.000 A 
ATOM      7  C   UNL     1       0.954   3.550  18.226  0.00  0.00    +0.000 A 
ATOM      8  C   UNL     1       0.915   3.126  19.559  0.00  0.00    +0.000 A 
ATOM      9  C   UNL     1       2.086   3.026  20.324  0.00  0.00    +0.000 A 
ATOM     10  C   UNL     1       3.320   3.336  19.734  0.00  0.00    +0.000 A 
BRANCH   9  11
ATOM     11  C   UNL     1       1.963   2.538  21.717  0.00  0.00    +0.000 C 
ATOM     12  O   UNL     1       0.912   2.601  22.338  0.00  0.00    +0.000 OA
BRANCH  11  13
ATOM     13  O   UNL     1       3.103   2.067  22.264  0.00  0.00    +0.000 OA
ATOM     14  H   UNL     1       3.415   2.495  23.082  0.00  0.00    +0.000 HD
ENDBRANCH  11  13
ENDBRANCH   9  11
ENDBRANCH   2   5
ENDBRANCH   1   2
BRANCH   1  16
ATOM     15  C   UNL     1       7.558   6.409  18.513  0.00  0.00    +0.000 C 
ATOM     16  C   UNL     1       6.453   6.405  17.445  0.00  0.00    +0.000 C 
BRANCH  16  17
ATOM     17  C   UNL     1       7.017   5.584  16.279  0.00  0.00    +0.000 C 
ATOM     18  O   UNL     1       7.876   4.712  16.398  0.00  0.00    +0.000 OA
ATOM     19  N   UNL     1       6.438   5.852  15.058  0.00  0.00    +0.000 N 
ATOM     20  H   UNL     1       6.026   6.758  14.853  0.00  0.00    +0.000 HD
BRANCH  19  21
ATOM     21  O   UNL     1       6.964   5.132  13.961  0.00  0.00    +0.000 OA
ATOM     22  H   UNL     1       6.543   5.571  13.192  0.00  0.00    +0.000 HD
ENDBRANCH  19  21
ENDBRANCH  16  17
ENDBRANCH   1  16
BRANCH   1  23
ATOM     23  C   UNL     1       3.941   6.646  17.270  0.00  0.00    +0.000 C 
BRANCH  23  24
ATOM     24  C   UNL     1       3.015   7.464  18.159  0.00  0.00    +0.000 A 
ATOM     25  C   UNL     1       2.397   8.645  17.716  0.00  0.00    +0.000 A 
ATOM     26  C   UNL     1       1.484   9.322  18.538  0.00  0.00    +0.000 A 
ATOM     27  C   UNL     1       1.171   8.806  19.804  0.00  0.00    +0.000 A 
ATOM     28  C   UNL     1       1.819   7.664  20.281  0.00  0.00    +0.000 A 
ATOM     29  C   UNL     1       2.738   7.004  19.461  0.00  0.00    +0.000 A 
BRANCH  27  30
ATOM     30  N   UNL     1       0.114   9.431  20.614  0.00  0.00    +0.000 N 
ATOM     31  O   UNL     1      -0.422   8.741  21.492  0.00  0.00    +0.000 OA
ATOM     32  O   UNL     1      -0.151  10.623  20.397  0.00  0.00    +0.000 OA
ENDBRANCH  27  30
ENDBRANCH  23  24
ENDBRANCH   1  23
TORSDOF 10
ENDMDL
MODEL 6
REMARK VINA RESULT:      -7.6      1.535      2.218
REMARK  Name = 
REMARK  11 active torsions:
REMARK  status: ('A' for Active; 'I' for Inactive)
REMARK    1  A    between atoms: C_1  and  C_2
REMARK    2  A    between atoms: C_2  and  C_3
REMARK    3  A    between atoms: C_2  and  N_7
REMARK    4  A    between atoms: N_5  and  O_6
REMARK    5  A    between atoms: N_7  and  C_8
REMARK    6  A    between atoms: N_7  and  S_18
REMARK    7  A    between atoms: C_8  and  C_9
REMARK    8  A    between atoms: C_12  and  N_13
REMARK    9  A    between atoms: S_18  and  C_21
REMARK   10  A    between atoms: C_25  and  C_26
REMARK   11  A    between atoms: C_26  and  O_28
REMARK                            x       y       z     vdW  Elec       q    Type
REMARK                         _______ _______ _______ _____ _____    ______ ____
ROOT
ATOM      1  N   UNL     1       5.272   6.352  18.207  0.00  0.00    +0.000 NA
ENDROOT
BRANCH   1   2
ATOM      2  S   UNL     1       5.842   4.706  18.523  0.00  0.00    +0.000 S 
ATOM      3  O   UNL     1       6.483   4.144  17.362  0.00  0.00    +0.000 OA
ATOM      4  O   UNL     1       6.510   4.725  19.806  0.00  0.00    +0.000 OA
BRANCH   2   5
ATOM      5  C   UNL     1       4.329   3.795  18.681  0.00  0.00    +0.000 A 
ATOM      6  C   UNL     1       3.852   3.096  17.569  0.00  0.00    +0.000 A 
ATOM      7  C   UNL     1       2.690   2.338  17.688  0.00  0.00    +0.000 A 
ATOM      8  C   UNL     1       2.021   2.291  18.915  0.00  0.00    +0.000 A 
ATOM      9  C   UNL     1       2.500   2.991  20.032  0.00  0.00    +0.000 A 
ATOM     10  C   UNL     1       3.685   3.733  19.920  0.00  0.00    +0.000 A 
BRANCH   9  11
ATOM     11  C   UNL     1       1.751   2.864  21.304  0.00  0.00    +0.000 C 
ATOM     12  O   UNL     1       0.565   2.572  21.332  0.00  0.00    +0.000 OA
BRANCH  11  13
ATOM     13  O   UNL     1       2.459   3.141  22.417  0.00  0.00    +0.000 OA
ATOM     14  H   UNL     1       2.195   3.927  22.929  0.00  0.00    +0.000 HD
ENDBRANCH  11  13
ENDBRANCH   9  11
ENDBRANCH   2   5
ENDBRANCH   1   2
BRANCH   1  16
ATOM     15  C   UNL     1       7.657   7.251  17.660  0.00  0.00    +0.000 C 
ATOM     16  C   UNL     1       6.203   7.075  17.193  0.00  0.00    +0.000 C 
BRANCH  16  17
ATOM     17  C   UNL     1       6.294   6.356  15.842  0.00  0.00    +0.000 C 
ATOM     18  O   UNL     1       5.351   6.220  15.065  0.00  0.00    +0.000 OA
ATOM     19  N   UNL     1       7.556   5.911  15.515  0.00  0.00    +0.000 N 
ATOM     20  H   UNL     1       8.239   5.677  16.230  0.00  0.00    +0.000 HD
BRANCH  19  21
ATOM     21  O   UNL     1       7.660   5.216  14.288  0.00  0.00    +0.000 OA
ATOM     22  H   UNL     1       6.767   5.329  13.899  0.00  0.00    +0.000 HD
ENDBRANCH  19  21
ENDBRANCH  16  17
ENDBRANCH   1  16
BRANCH   1  23
ATOM     23  C   UNL     1       3.847   6.315  17.711  0.00  0.00    +0.000 C 
BRANCH  23  24
ATOM     24  C   UNL     1       2.848   7.260  18.363  0.00  0.00    +0.000 A 
ATOM     25  C   UNL     1       2.388   7.079  19.677  0.00  0.00    +0.000 A 
ATOM     26  C   UNL     1       1.532   8.022  20.268  0.00  0.00    +0.000 A 
ATOM     27  C   UNL     1       1.149   9.162  19.548  0.00  0.00    +0.000 A 
ATOM     28  C   UNL     1       1.552   9.328  18.220  0.00  0.00    +0.000 A 
ATOM     29  C   UNL     1       2.392   8.377  17.636  0.00  0.00    +0.000 A 
BRANCH  27  30
ATOM     30  N   UNL     1       0.368  10.221  20.205  0.00  0.00    +0.000 N 
ATOM     31  O   UNL     1       0.420  11.359  19.722  0.00  0.00    +0.000 OA
ATOM     32  O   UNL     1      -0.327   9.903  21.183  0.00  0.00    +0.000 OA
ENDBRANCH  27  30
ENDBRANCH  23  24
ENDBRANCH   1  23
TORSDOF 10
ENDMDL
MODEL 7
REMARK VINA RESULT:      -7.6      1.174      1.751
REMARK  Name = 
REMARK  11 active torsions:
REMARK  status: ('A' for Active; 'I' for Inactive)
REMARK    1  A    between atoms: C_1  and  C_2
REMARK    2  A    between atoms: C_2  and  C_3
REMARK    3  A    between atoms: C_2  and  N_7
REMARK    4  A    between atoms: N_5  and  O_6
REMARK    5  A    between atoms: N_7  and  C_8
REMARK    6  A    between atoms: N_7  and  S_18
REMARK    7  A    between atoms: C_8  and  C_9
REMARK    8  A    between atoms: C_12  and  N_13
REMARK    9  A    between atoms: S_18  and  C_21
REMARK   10  A    between atoms: C_25  and  C_26
REMARK   11  A    between atoms: C_26  and  O_28
REMARK                            x       y       z     vdW  Elec       q    Type
REMARK                         _______ _______ _______ _____ _____    ______ ____
ROOT
ATOM      1  N   UNL     1       5.062   5.818  18.082  0.00  0.00    +0.000 NA
ENDROOT
BRANCH   1   2
ATOM      2  S   UNL     1       4.827   4.104  17.707  0.00  0.00    +0.000 S 
ATOM      3  O   UNL     1       4.602   3.903  16.299  0.00  0.00    +0.000 OA
ATOM      4  O   UNL     1       5.858   3.370  18.408  0.00  0.00    +0.000 OA
BRANCH   2   5
ATOM      5  C   UNL     1       3.263   3.752  18.463  0.00  0.00    +0.000 A 
ATOM      6  C   UNL     1       2.137   3.634  17.644  0.00  0.00    +0.000 A 
ATOM      7  C   UNL     1       0.909   3.313  18.215  0.00  0.00    +0.000 A 
ATOM      8  C   UNL     1       0.822   3.117  19.597  0.00  0.00    +0.000 A 
ATOM      9  C   UNL     1       1.951   3.234  20.420  0.00  0.00    +0.000 A 
ATOM     10  C   UNL     1       3.194   3.530  19.842  0.00  0.00    +0.000 A 
BRANCH   9  11
ATOM     11  C   UNL     1       1.782   2.979  21.870  0.00  0.00    +0.000 C 
ATOM     12  O   UNL     1       0.965   2.178  22.297  0.00  0.00    +0.000 OA
BRANCH  11  13
ATOM     13  O   UNL     1       2.557   3.730  22.679  0.00  0.00    +0.000 OA
ATOM     14  H   UNL     1       2.172   4.010  23.530  0.00  0.00    +0.000 HD
ENDBRANCH  11  13
ENDBRANCH   9  11
ENDBRANCH   2   5
ENDBRANCH   1   2
BRANCH   1  16
ATOM     15  C   UNL     1       7.543   6.054  18.849  0.00  0.00    +0.000 C 
ATOM     16  C   UNL     1       6.509   6.267  17.731  0.00  0.00    +0.000 C 
BRANCH  16  17
ATOM     17  C   UNL     1       7.082   5.548  16.504  0.00  0.00    +0.000 C 
ATOM     18  O   UNL     1       7.936   4.665  16.555  0.00  0.00    +0.000 OA
ATOM     19  N   UNL     1       6.516   5.924  15.305  0.00  0.00    +0.000 N 
ATOM     20  H   UNL     1       6.110   6.846  15.176  0.00  0.00    +0.000 HD
BRANCH  19  21
ATOM     21  O   UNL     1       7.050   5.298  14.156  0.00  0.00    +0.000 OA
ATOM     22  H   UNL     1       7.310   4.414  14.490  0.00  0.00    +0.000 HD
ENDBRANCH  19  21
ENDBRANCH  16  17
ENDBRANCH   1  16
BRANCH   1  23
ATOM     23  C   UNL     1       4.038   6.649  17.348  0.00  0.00    +0.000 C 
BRANCH  23  24
ATOM     24  C   UNL     1       3.004   7.392  18.181  0.00  0.00    +0.000 A 
ATOM     25  C   UNL     1       2.660   6.995  19.483  0.00  0.00    +0.000 A 
ATOM     26  C   UNL     1       1.764   7.758  20.247  0.00  0.00    +0.000 A 
ATOM     27  C   UNL     1       1.222   8.937  19.714  0.00  0.00    +0.000 A 
ATOM     28  C   UNL     1       1.510   9.315  18.399  0.00  0.00    +0.000 A 
ATOM     29  C   UNL     1       2.392   8.541  17.641  0.00  0.00    +0.000 A 
BRANCH  27  30
ATOM     30  N   UNL     1       0.394   9.814  20.554  0.00  0.00    +0.000 N 
ATOM     31  O   UNL     1      -0.106   9.327  21.577  0.00  0.00    +0.000 OA
ATOM     32  O   UNL     1       0.276  11.000  20.210  0.00  0.00    +0.000 OA
ENDBRANCH  27  30
ENDBRANCH  23  24
ENDBRANCH   1  23
TORSDOF 10
ENDMDL
MODEL 8
REMARK VINA RESULT:      -7.6      2.295      5.473
REMARK  Name = 
REMARK  11 active torsions:
REMARK  status: ('A' for Active; 'I' for Inactive)
REMARK    1  A    between atoms: C_1  and  C_2
REMARK    2  A    between atoms: C_2  and  C_3
REMARK    3  A    between atoms: C_2  and  N_7
REMARK    4  A    between atoms: N_5  and  O_6
REMARK    5  A    between atoms: N_7  and  C_8
REMARK    6  A    between atoms: N_7  and  S_18
REMARK    7  A    between atoms: C_8  and  C_9
REMARK    8  A    between atoms: C_12  and  N_13
REMARK    9  A    between atoms: S_18  and  C_21
REMARK   10  A    between atoms: C_25  and  C_26
REMARK   11  A    between atoms: C_26  and  O_28
REMARK                            x       y       z     vdW  Elec       q    Type
REMARK                         _______ _______ _______ _____ _____    ______ ____
ROOT
ATOM      1  N   UNL     1       2.686   4.736  18.640  0.00  0.00    +0.000 NA
ENDROOT
BRANCH   1   2
ATOM      2  S   UNL     1       3.944   3.494  18.540  0.00  0.00    +0.000 S 
ATOM      3  O   UNL     1       4.436   3.143  19.846  0.00  0.00    +0.000 OA
ATOM      4  O   UNL     1       3.468   2.479  17.626  0.00  0.00    +0.000 OA
BRANCH   2   5
ATOM      5  C   UNL     1       5.287   4.364  17.777  0.00  0.00    +0.000 A 
ATOM      6  C   UNL     1       6.093   5.181  18.575  0.00  0.00    +0.000 A 
ATOM      7  C   UNL     1       7.180   5.835  18.003  0.00  0.00    +0.000 A 
ATOM      8  C   UNL     1       7.444   5.667  16.639  0.00  0.00    +0.000 A 
ATOM      9  C   UNL     1       6.638   4.847  15.838  0.00  0.00    +0.000 A 
ATOM     10  C   UNL     1       5.559   4.166  16.420  0.00  0.00    +0.000 A 
BRANCH   9  11
ATOM     11  C   UNL     1       7.005   4.696  14.410  0.00  0.00    +0.000 C 
ATOM     12  O   UNL     1       7.759   5.475  13.848  0.00  0.00    +0.000 OA
BRANCH  11  13
ATOM     13  O   UNL     1       6.408   3.671  13.769  0.00  0.00    +0.000 OA
ATOM     14  H   UNL     1       6.288   3.757  12.806  0.00  0.00    +0.000 HD
ENDBRANCH  11  13
ENDBRANCH   9  11
ENDBRANCH   2   5
ENDBRANCH   1   2
BRANCH   1  16
ATOM     15  C   UNL     1       0.842   2.892  18.674  0.00  0.00    +0.000 C 
ATOM     16  C   UNL     1       1.405   4.170  19.317  0.00  0.00    +0.000 C 
BRANCH  16  17
ATOM     17  C   UNL     1       1.608   3.825  20.797  0.00  0.00    +0.000 C 
ATOM     18  O   UNL     1       2.186   4.551  21.605  0.00  0.00    +0.000 OA
ATOM     19  N   UNL     1       1.031   2.638  21.192  0.00  0.00    +0.000 N 
ATOM     20  H   UNL     1       0.883   1.876  20.537  0.00  0.00    +0.000 HD
BRANCH  19  21
ATOM     21  O   UNL     1       1.233   2.281  22.545  0.00  0.00    +0.000 OA
ATOM     22  H   UNL     1       0.414   2.605  22.979  0.00  0.00    +0.000 HD
ENDBRANCH  19  21
ENDBRANCH  16  17
ENDBRANCH   1  16
BRANCH   1  23
ATOM     23  C   UNL     1       3.211   5.939  19.383  0.00  0.00    +0.000 C 
BRANCH  23  24
ATOM     24  C   UNL     1       2.486   7.263  19.185  0.00  0.00    +0.000 A 
ATOM     25  C   UNL     1       2.438   7.915  17.943  0.00  0.00    +0.000 A 
ATOM     26  C   UNL     1       1.687   9.090  17.784  0.00  0.00    +0.000 A 
ATOM     27  C   UNL     1       0.965   9.607  18.869  0.00  0.00    +0.000 A 
ATOM     28  C   UNL     1       1.049   9.002  20.126  0.00  0.00    +0.000 A 
ATOM     29  C   UNL     1       1.811   7.841  20.278  0.00  0.00    +0.000 A 
BRANCH  27  30
ATOM     30  N   UNL     1       0.068  10.756  18.678  0.00  0.00    +0.000 N 
ATOM     31  O   UNL     1       0.436  11.854  19.116  0.00  0.00    +0.000 OA
ATOM     32  O   UNL     1      -0.989  10.566  18.055  0.00  0.00    +0.000 OA
ENDBRANCH  27  30
ENDBRANCH  23  24
ENDBRANCH   1  23
TORSDOF 10
ENDMDL
MODEL 9
REMARK VINA RESULT:      -7.6      2.276      5.600
REMARK  Name = 
REMARK  11 active torsions:
REMARK  status: ('A' for Active; 'I' for Inactive)
REMARK    1  A    between atoms: C_1  and  C_2
REMARK    2  A    between atoms: C_2  and  C_3
REMARK    3  A    between atoms: C_2  and  N_7
REMARK    4  A    between atoms: N_5  and  O_6
REMARK    5  A    between atoms: N_7  and  C_8
REMARK    6  A    between atoms: N_7  and  S_18
REMARK    7  A    between atoms: C_8  and  C_9
REMARK    8  A    between atoms: C_12  and  N_13
REMARK    9  A    between atoms: S_18  and  C_21
REMARK   10  A    between atoms: C_25  and  C_26
REMARK   11  A    between atoms: C_26  and  O_28
REMARK                            x       y       z     vdW  Elec       q    Type
REMARK                         _______ _______ _______ _____ _____    ______ ____
ROOT
ATOM      1  N   UNL     1       3.856   5.197  17.161  0.00  0.00    +0.000 NA
ENDROOT
BRANCH   1   2
ATOM      2  S   UNL     1       5.311   5.383  16.170  0.00  0.00    +0.000 S 
ATOM      3  O   UNL     1       5.820   4.106  15.743  0.00  0.00    +0.000 OA
ATOM      4  O   UNL     1       5.042   6.434  15.213  0.00  0.00    +0.000 OA
BRANCH   2   5
ATOM      5  C   UNL     1       6.505   5.970  17.341  0.00  0.00    +0.000 A 
ATOM      6  C   UNL     1       7.069   5.055  18.235  0.00  0.00    +0.000 A 
ATOM      7  C   UNL     1       8.042   5.488  19.131  0.00  0.00    +0.000 A 
ATOM      8  C   UNL     1       8.436   6.831  19.124  0.00  0.00    +0.000 A 
ATOM      9  C   UNL     1       7.872   7.749  18.226  0.00  0.00    +0.000 A 
ATOM     10  C   UNL     1       6.912   7.307  17.305  0.00  0.00    +0.000 A 
BRANCH   9  11
ATOM     11  C   UNL     1       8.368   9.145  18.261  0.00  0.00    +0.000 C 
ATOM     12  O   UNL     1       9.237   9.507  19.039  0.00  0.00    +0.000 OA
BRANCH  11  13
ATOM     13  O   UNL     1       7.755   9.993  17.409  0.00  0.00    +0.000 OA
ATOM     14  H   UNL     1       6.793  10.108  17.510  0.00  0.00    +0.000 HD
ENDBRANCH  11  13
ENDBRANCH   9  11
ENDBRANCH   2   5
ENDBRANCH   1   2
BRANCH   1  16
ATOM     15  C   UNL     1       4.262   3.154  18.730  0.00  0.00    +0.000 C 
ATOM     16  C   UNL     1       3.582   3.696  17.462  0.00  0.00    +0.000 C 
BRANCH  16  17
ATOM     17  C   UNL     1       2.092   3.378  17.633  0.00  0.00    +0.000 C 
ATOM     18  O   UNL     1       1.180   4.125  17.283  0.00  0.00    +0.000 OA
ATOM     19  N   UNL     1       1.829   2.136  18.167  0.00  0.00    +0.000 N 
ATOM     20  H   UNL     1       2.493   1.669  18.778  0.00  0.00    +0.000 HD
BRANCH  19  21
ATOM     21  O   UNL     1       0.463   1.832  18.364  0.00  0.00    +0.000 OA
ATOM     22  H   UNL     1       0.041   2.193  17.556  0.00  0.00    +0.000 HD
ENDBRANCH  19  21
ENDBRANCH  16  17
ENDBRANCH   1  16
BRANCH   1  23
ATOM     23  C   UNL     1       3.997   5.993  18.434  0.00  0.00    +0.000 C 
BRANCH  23  24
ATOM     24  C   UNL     1       3.062   7.178  18.633  0.00  0.00    +0.000 A 
ATOM     25  C   UNL     1       2.866   8.155  17.645  0.00  0.00    +0.000 A 
ATOM     26  C   UNL     1       1.931   9.184  17.836  0.00  0.00    +0.000 A 
ATOM     27  C   UNL     1       1.172   9.226  19.015  0.00  0.00    +0.000 A 
ATOM     28  C   UNL     1       1.396   8.293  20.032  0.00  0.00    +0.000 A 
ATOM     29  C   UNL     1       2.340   7.282  19.838  0.00  0.00    +0.000 A 
BRANCH  27  30
ATOM     30  N   UNL     1       0.095  10.216  19.164  0.00  0.00    +0.000 N 
ATOM     31  O   UNL     1       0.017  10.823  20.241  0.00  0.00    +0.000 OA
ATOM     32  O   UNL     1      -0.648  10.411  18.191  0.00  0.00    +0.000 OA
ENDBRANCH  27  30
ENDBRANCH  23  24
ENDBRANCH   1  23
TORSDOF 10
ENDMDL
