MODEL 1
REMARK VINA RESULT:      -8.1      0.000      0.000
REMARK  Name = 
REMARK  6 active torsions:
REMARK  status: ('A' for Active; 'I' for Inactive)
REMARK    1  A    between atoms: C_1  and  C_2
REMARK    2  A    between atoms: C_8  and  C_9
REMARK    3  A    between atoms: C_8  and  C_10
REMARK    4  A    between atoms: N_12  and  C_13
REMARK    5  A    between atoms: N_12  and  C_14
REMARK    6  A    between atoms: C_14  and  C_15
REMARK                            x       y       z     vdW  Elec       q    Type
REMARK                         _______ _______ _______ _____ _____    ______ ____
ROOT
ATOM      1  C   UNL     1       1.087   9.214  20.127  0.00  0.00    +0.000 C 
ATOM      2  O   UNL     1       1.072   8.985  21.345  0.00  0.00    +0.000 OA
ATOM      3  N   UNL     1       1.768   8.355  19.266  0.00  0.00    +0.000 N 
ATOM      4  C   UNL     1       1.903   8.489  17.815  0.00  0.00    +0.000 C 
ENDROOT
BRANCH   1  12
ATOM      5  C   UNL     1      -0.092  13.819  21.735  0.00  0.00    +0.000 C 
ATOM      6  C   UNL     1      -1.227  13.499  20.793  0.00  0.00    +0.000 C 
ATOM      7  O   UNL     1      -2.019  14.382  20.466  0.00  0.00    +0.000 OA
ATOM      8  N   UNL     1      -1.290  12.209  20.289  0.00  0.00    +0.000 N 
ATOM      9  C   UNL     1      -2.264  11.881  19.253  0.00  0.00    +0.000 C 
ATOM     10  C   UNL     1      -1.571  11.228  18.058  0.00  0.00    +0.000 C 
ATOM     11  C   UNL     1      -0.668  10.064  18.493  0.00  0.00    +0.000 C 
ATOM     12  C   UNL     1       0.363  10.478  19.597  0.00  0.00    +0.000 C 
ATOM     13  C   UNL     1       1.379  11.432  18.930  0.00  0.00    +0.000 C 
ATOM     14  C   UNL     1      -0.477  11.082  20.741  0.00  0.00    +0.000 C 
ENDBRANCH   1  12
BRANCH   3  15
ATOM     15  C   UNL     1       2.365   7.143  19.857  0.00  0.00    +0.000 C 
BRANCH  15  16
ATOM     16  C   UNL     1       2.815   6.142  18.806  0.00  0.00    +0.000 A 
ATOM     17  C   UNL     1       3.855   6.519  17.935  0.00  0.00    +0.000 A 
ATOM     18  C   UNL     1       4.395   5.617  17.021  0.00  0.00    +0.000 A 
ATOM     19  C   UNL     1       3.923   4.306  16.986  0.00  0.00    +0.000 A 
ATOM     20  C   UNL     1       2.890   3.896  17.842  0.00  0.00    +0.000 A 
ATOM     21  C   UNL     1       2.468   2.554  17.841  0.00  0.00    +0.000 A 
ATOM     22  C   UNL     1       1.463   2.114  18.702  0.00  0.00    +0.000 A 
ATOM     23  C   UNL     1       0.823   3.022  19.528  0.00  0.00    +0.000 A 
ATOM     24  C   UNL     1       1.206   4.362  19.513  0.00  0.00    +0.000 A 
ATOM     25  C   UNL     1       2.287   4.824  18.727  0.00  0.00    +0.000 A 
ENDBRANCH  15  16
ENDBRANCH   3  15
TORSDOF 3
ENDMDL
MODEL 2
REMARK VINA RESULT:      -8.0      2.735      7.871
REMARK  Name = 
REMARK  6 active torsions:
REMARK  status: ('A' for Active; 'I' for Inactive)
REMARK    1  A    between atoms: C_1  and  C_2
REMARK    2  A    between atoms: C_8  and  C_9
REMARK    3  A    between atoms: C_8  and  C_10
REMARK    4  A    between atoms: N_12  and  C_13
REMARK    5  A    between atoms: N_12  and  C_14
REMARK    6  A    between atoms: C_14  and  C_15
REMARK                            x       y       z     vdW  Elec       q    Type
REMARK                         _______ _______ _______ _____ _____    ______ ____
ROOT
ATOM      1  C   UNL     1       2.761   7.457  17.923  0.00  0.00    +0.000 C 
ATOM      2  O   UNL     1       3.241   7.991  16.913  0.00  0.00    +0.000 OA
ATOM      3  N   UNL     1       2.105   8.235  18.876  0.00  0.00    +0.000 N 
ATOM      4  C   UNL     1       1.504   7.773  20.126  0.00  0.00    +0.000 C 
ENDROOT
BRANCH   1  12
ATOM      5  C   UNL     1       1.971   4.000  21.473  0.00  0.00    +0.000 C 
ATOM      6  C   UNL     1       3.158   3.440  20.728  0.00  0.00    +0.000 C 
ATOM      7  O   UNL     1       3.537   2.292  20.954  0.00  0.00    +0.000 OA
ATOM      8  N   UNL     1       3.740   4.248  19.763  0.00  0.00    +0.000 N 
ATOM      9  C   UNL     1       4.784   3.708  18.899  0.00  0.00    +0.000 C 
ATOM     10  C   UNL     1       4.433   3.941  17.430  0.00  0.00    +0.000 C 
ATOM     11  C   UNL     1       4.062   5.408  17.162  0.00  0.00    +0.000 C 
ATOM     12  C   UNL     1       2.931   5.928  18.111  0.00  0.00    +0.000 C 
ATOM     13  C   UNL     1       1.631   5.196  17.707  0.00  0.00    +0.000 C 
ATOM     14  C   UNL     1       3.436   5.661  19.543  0.00  0.00    +0.000 C 
ENDBRANCH   1  12
BRANCH   3  15
ATOM     15  C   UNL     1       1.934   9.668  18.572  0.00  0.00    +0.000 C 
BRANCH  15  16
ATOM     16  C   UNL     1       0.748  10.281  19.299  0.00  0.00    +0.000 A 
ATOM     17  C   UNL     1       0.972  10.848  20.569  0.00  0.00    +0.000 A 
ATOM     18  C   UNL     1      -0.041  11.526  21.246  0.00  0.00    +0.000 A 
ATOM     19  C   UNL     1      -1.290  11.676  20.646  0.00  0.00    +0.000 A 
ATOM     20  C   UNL     1      -1.545  11.126  19.381  0.00  0.00    +0.000 A 
ATOM     21  C   UNL     1      -2.789  11.341  18.761  0.00  0.00    +0.000 A 
ATOM     22  C   UNL     1      -3.058  10.831  17.490  0.00  0.00    +0.000 A 
ATOM     23  C   UNL     1      -2.113  10.045  16.854  0.00  0.00    +0.000 A 
ATOM     24  C   UNL     1      -0.890   9.794  17.472  0.00  0.00    +0.000 A 
ATOM     25  C   UNL     1      -0.544  10.377  18.714  0.00  0.00    +0.000 A 
ENDBRANCH  15  16
ENDBRANCH   3  15
TORSDOF 3
ENDMDL
MODEL 3
REMARK VINA RESULT:      -7.9      1.487      2.821
REMARK  Name = 
REMARK  6 active torsions:
REMARK  status: ('A' for Active; 'I' for Inactive)
REMARK    1  A    between atoms: C_1  and  C_2
REMARK    2  A    between atoms: C_8  and  C_9
REMARK    3  A    between atoms: C_8  and  C_10
REMARK    4  A    between atoms: N_12  and  C_13
REMARK    5  A    between atoms: N_12  and  C_14
REMARK    6  A    between atoms: C_14  and  C_15
REMARK                            x       y       z     vdW  Elec       q    Type
REMARK                         _______ _______ _______ _____ _____    ______ ____
ROOT
ATOM      1  C   UNL     1       1.282   8.600  20.092  0.00  0.00    +0.000 C 
ATOM      2  O   UNL     1       1.016   8.250  21.251  0.00  0.00    +0.000 OA
ATOM      3  N   UNL     1       2.197   7.868  19.337  0.00  0.00    +0.000 N 
ATOM      4  C   UNL     1       2.638   8.152  17.972  0.00  0.00    +0.000 C 
ENDROOT
BRANCH   1  12
ATOM      5  C   UNL     1       2.629  13.000  18.090  0.00  0.00    +0.000 C 
ATOM      6  C   UNL     1       1.330  13.337  18.781  0.00  0.00    +0.000 C 
ATOM      7  O   UNL     1       0.795  14.426  18.580  0.00  0.00    +0.000 OA
ATOM      8  N   UNL     1       0.763  12.357  19.581  0.00  0.00    +0.000 N 
ATOM      9  C   UNL     1      -0.567  12.560  20.145  0.00  0.00    +0.000 C 
ATOM     10  C   UNL     1      -1.475  11.378  19.807  0.00  0.00    +0.000 C 
ATOM     11  C   UNL     1      -0.816  10.037  20.163  0.00  0.00    +0.000 C 
ATOM     12  C   UNL     1       0.603   9.871  19.522  0.00  0.00    +0.000 C 
ATOM     13  C   UNL     1       0.395   9.724  17.998  0.00  0.00    +0.000 C 
ATOM     14  C   UNL     1       1.409  11.106  19.975  0.00  0.00    +0.000 C 
ENDBRANCH   1  12
BRANCH   3  15
ATOM     15  C   UNL     1       2.736   6.635  19.942  0.00  0.00    +0.000 C 
BRANCH  15  16
ATOM     16  C   UNL     1       2.801   5.481  18.956  0.00  0.00    +0.000 A 
ATOM     17  C   UNL     1       1.599   4.826  18.624  0.00  0.00    +0.000 A 
ATOM     18  C   UNL     1       1.563   3.834  17.646  0.00  0.00    +0.000 A 
ATOM     19  C   UNL     1       2.729   3.504  16.956  0.00  0.00    +0.000 A 
ATOM     20  C   UNL     1       3.942   4.139  17.260  0.00  0.00    +0.000 A 
ATOM     21  C   UNL     1       5.095   3.842  16.512  0.00  0.00    +0.000 A 
ATOM     22  C   UNL     1       6.308   4.481  16.773  0.00  0.00    +0.000 A 
ATOM     23  C   UNL     1       6.397   5.375  17.827  0.00  0.00    +0.000 A 
ATOM     24  C   UNL     1       5.271   5.652  18.599  0.00  0.00    +0.000 A 
ATOM     25  C   UNL     1       4.003   5.099  18.300  0.00  0.00    +0.000 A 
ENDBRANCH  15  16
ENDBRANCH   3  15
TORSDOF 3
ENDMDL
MODEL 4
REMARK VINA RESULT:      -7.9      2.385      8.427
REMARK  Name = 
REMARK  6 active torsions:
REMARK  status: ('A' for Active; 'I' for Inactive)
REMARK    1  A    between atoms: C_1  and  C_2
REMARK    2  A    between atoms: C_8  and  C_9
REMARK    3  A    between atoms: C_8  and  C_10
REMARK    4  A    between atoms: N_12  and  C_13
REMARK    5  A    between atoms: N_12  and  C_14
REMARK    6  A    between atoms: C_14  and  C_15
REMARK                            x       y       z     vdW  Elec       q    Type
REMARK                         _______ _______ _______ _____ _____    ______ ____
ROOT
ATOM      1  C   UNL     1       1.981   7.144  19.731  0.00  0.00    +0.000 C 
ATOM      2  O   UNL     1       1.589   6.958  20.891  0.00  0.00    +0.000 OA
ATOM      3  N   UNL     1       1.838   8.399  19.141  0.00  0.00    +0.000 N 
ATOM      4  C   UNL     1       2.224   8.783  17.783  0.00  0.00    +0.000 C 
ENDROOT
BRANCH   1  12
ATOM      5  C   UNL     1       1.752   2.131  19.725  0.00  0.00    +0.000 C 
ATOM      6  C   UNL     1       3.166   2.396  19.267  0.00  0.00    +0.000 C 
ATOM      7  O   UNL     1       3.851   1.473  18.829  0.00  0.00    +0.000 OA
ATOM      8  N   UNL     1       3.613   3.708  19.313  0.00  0.00    +0.000 N 
ATOM      9  C   UNL     1       4.907   4.054  18.736  0.00  0.00    +0.000 C 
ATOM     10  C   UNL     1       4.758   5.208  17.745  0.00  0.00    +0.000 C 
ATOM     11  C   UNL     1       3.985   6.385  18.359  0.00  0.00    +0.000 C 
ATOM     12  C   UNL     1       2.601   5.956  18.952  0.00  0.00    +0.000 C 
ATOM     13  C   UNL     1       1.697   5.575  17.758  0.00  0.00    +0.000 C 
ATOM     14  C   UNL     1       2.912   4.821  19.949  0.00  0.00    +0.000 C 
ENDBRANCH   1  12
BRANCH   3  15
ATOM     15  C   UNL     1       1.302   9.483  19.986  0.00  0.00    +0.000 C 
BRANCH  15  16
ATOM     16  C   UNL     1       0.345  10.391  19.233  0.00  0.00    +0.000 A 
ATOM     17  C   UNL     1      -0.866   9.840  18.772  0.00  0.00    +0.000 A 
ATOM     18  C   UNL     1      -1.840  10.635  18.173  0.00  0.00    +0.000 A 
ATOM     19  C   UNL     1      -1.632  12.009  18.055  0.00  0.00    +0.000 A 
ATOM     20  C   UNL     1      -0.438  12.591  18.506  0.00  0.00    +0.000 A 
ATOM     21  C   UNL     1      -0.269  13.985  18.439  0.00  0.00    +0.000 A 
ATOM     22  C   UNL     1       0.896  14.594  18.909  0.00  0.00    +0.000 A 
ATOM     23  C   UNL     1       1.931  13.809  19.390  0.00  0.00    +0.000 A 
ATOM     24  C   UNL     1       1.791  12.424  19.428  0.00  0.00    +0.000 A 
ATOM     25  C   UNL     1       0.587  11.781  19.054  0.00  0.00    +0.000 A 
ENDBRANCH  15  16
ENDBRANCH   3  15
TORSDOF 3
ENDMDL
MODEL 5
REMARK VINA RESULT:      -7.9      2.455      8.016
REMARK  Name = 
REMARK  6 active torsions:
REMARK  status: ('A' for Active; 'I' for Inactive)
REMARK    1  A    between atoms: C_1  and  C_2
REMARK    2  A    between atoms: C_8  and  C_9
REMARK    3  A    between atoms: C_8  and  C_10
REMARK    4  A    between atoms: N_12  and  C_13
REMARK    5  A    between atoms: N_12  and  C_14
REMARK    6  A    between atoms: C_14  and  C_15
REMARK                            x       y       z     vdW  Elec       q    Type
REMARK                         _______ _______ _______ _____ _____    ______ ____
ROOT
ATOM      1  C   UNL     1       2.340   7.533  18.571  0.00  0.00    +0.000 C 
ATOM      2  O   UNL     1       2.730   7.809  17.428  0.00  0.00    +0.000 OA
ATOM      3  N   UNL     1       1.772   8.523  19.370  0.00  0.00    +0.000 N 
ATOM      4  C   UNL     1       1.283   8.375  20.741  0.00  0.00    +0.000 C 
ENDROOT
BRANCH   1  12
ATOM      5  C   UNL     1       4.099   3.137  16.909  0.00  0.00    +0.000 C 
ATOM      6  C   UNL     1       3.018   2.714  17.873  0.00  0.00    +0.000 C 
ATOM      7  O   UNL     1       2.915   1.532  18.199  0.00  0.00    +0.000 OA
ATOM      8  N   UNL     1       2.211   3.712  18.399  0.00  0.00    +0.000 N 
ATOM      9  C   UNL     1       1.256   3.392  19.455  0.00  0.00    +0.000 C 
ATOM     10  C   UNL     1       1.451   4.325  20.650  0.00  0.00    +0.000 C 
ATOM     11  C   UNL     1       1.473   5.799  20.219  0.00  0.00    +0.000 C 
ATOM     12  C   UNL     1       2.522   6.085  19.092  0.00  0.00    +0.000 C 
ATOM     13  C   UNL     1       3.921   5.921  19.728  0.00  0.00    +0.000 C 
ATOM     14  C   UNL     1       2.182   5.103  17.952  0.00  0.00    +0.000 C 
ENDBRANCH   1  12
BRANCH   3  15
ATOM     15  C   UNL     1       1.577   9.852  18.760  0.00  0.00    +0.000 C 
BRANCH  15  16
ATOM     16  C   UNL     1       0.358  10.574  19.309  0.00  0.00    +0.000 A 
ATOM     17  C   UNL     1       0.517  11.347  20.475  0.00  0.00    +0.000 A 
ATOM     18  C   UNL     1      -0.526  12.125  20.974  0.00  0.00    +0.000 A 
ATOM     19  C   UNL     1      -1.741  12.168  20.291  0.00  0.00    +0.000 A 
ATOM     20  C   UNL     1      -1.932  11.412  19.125  0.00  0.00    +0.000 A 
ATOM     21  C   UNL     1      -3.139  11.515  18.412  0.00  0.00    +0.000 A 
ATOM     22  C   UNL     1      -3.344  10.798  17.233  0.00  0.00    +0.000 A 
ATOM     23  C   UNL     1      -2.370   9.920  16.789  0.00  0.00    +0.000 A 
ATOM     24  C   UNL     1      -1.183   9.780  17.505  0.00  0.00    +0.000 A 
ATOM     25  C   UNL     1      -0.901  10.565  18.648  0.00  0.00    +0.000 A 
ENDBRANCH  15  16
ENDBRANCH   3  15
TORSDOF 3
ENDMDL
MODEL 6
REMARK VINA RESULT:      -7.9      2.724      7.999
REMARK  Name = 
REMARK  6 active torsions:
REMARK  status: ('A' for Active; 'I' for Inactive)
REMARK    1  A    between atoms: C_1  and  C_2
REMARK    2  A    between atoms: C_8  and  C_9
REMARK    3  A    between atoms: C_8  and  C_10
REMARK    4  A    between atoms: N_12  and  C_13
REMARK    5  A    between atoms: N_12  and  C_14
REMARK    6  A    between atoms: C_14  and  C_15
REMARK                            x       y       z     vdW  Elec       q    Type
REMARK                         _______ _______ _______ _____ _____    ______ ____
ROOT
ATOM      1  C   UNL     1       2.859   7.464  17.958  0.00  0.00    +0.000 C 
ATOM      2  O   UNL     1       3.355   8.004  16.959  0.00  0.00    +0.000 OA
ATOM      3  N   UNL     1       2.220   8.241  18.923  0.00  0.00    +0.000 N 
ATOM      4  C   UNL     1       1.604   7.771  20.164  0.00  0.00    +0.000 C 
ENDROOT
BRANCH   1  12
ATOM      5  C   UNL     1       2.042   3.972  21.468  0.00  0.00    +0.000 C 
ATOM      6  C   UNL     1       3.197   3.391  20.690  0.00  0.00    +0.000 C 
ATOM      7  O   UNL     1       3.548   2.229  20.890  0.00  0.00    +0.000 OA
ATOM      8  N   UNL     1       3.783   4.198  19.725  0.00  0.00    +0.000 N 
ATOM      9  C   UNL     1       4.793   3.643  18.831  0.00  0.00    +0.000 C 
ATOM     10  C   UNL     1       4.419   3.911  17.374  0.00  0.00    +0.000 C 
ATOM     11  C   UNL     1       4.085   5.391  17.137  0.00  0.00    +0.000 C 
ATOM     12  C   UNL     1       2.988   5.928  18.118  0.00  0.00    +0.000 C 
ATOM     13  C   UNL     1       1.661   5.239  17.729  0.00  0.00    +0.000 C 
ATOM     14  C   UNL     1       3.515   5.622  19.535  0.00  0.00    +0.000 C 
ENDBRANCH   1  12
BRANCH   3  15
ATOM     15  C   UNL     1       2.087   9.683  18.646  0.00  0.00    +0.000 C 
BRANCH  15  16
ATOM     16  C   UNL     1       0.637  10.126  18.542  0.00  0.00    +0.000 A 
ATOM     17  C   UNL     1      -0.160   9.550  17.534  0.00  0.00    +0.000 A 
ATOM     18  C   UNL     1      -1.524   9.822  17.447  0.00  0.00    +0.000 A 
ATOM     19  C   UNL     1      -2.122  10.654  18.392  0.00  0.00    +0.000 A 
ATOM     20  C   UNL     1      -1.358  11.242  19.411  0.00  0.00    +0.000 A 
ATOM     21  C   UNL     1      -1.986  12.026  20.394  0.00  0.00    +0.000 A 
ATOM     22  C   UNL     1      -1.254  12.598  21.436  0.00  0.00    +0.000 A 
ATOM     23  C   UNL     1       0.121  12.448  21.468  0.00  0.00    +0.000 A 
ATOM     24  C   UNL     1       0.761  11.703  20.480  0.00  0.00    +0.000 A 
ATOM     25  C   UNL     1       0.041  11.027  19.467  0.00  0.00    +0.000 A 
ENDBRANCH  15  16
ENDBRANCH   3  15
TORSDOF 3
ENDMDL
MODEL 7
REMARK VINA RESULT:      -7.8      0.878      2.329
REMARK  Name = 
REMARK  6 active torsions:
REMARK  status: ('A' for Active; 'I' for Inactive)
REMARK    1  A    between atoms: C_1  and  C_2
REMARK    2  A    between atoms: C_8  and  C_9
REMARK    3  A    between atoms: C_8  and  C_10
REMARK    4  A    between atoms: N_12  and  C_13
REMARK    5  A    between atoms: N_12  and  C_14
REMARK    6  A    between atoms: C_14  and  C_15
REMARK                            x       y       z     vdW  Elec       q    Type
REMARK                         _______ _______ _______ _____ _____    ______ ____
ROOT
ATOM      1  C   UNL     1       1.311   8.843  20.030  0.00  0.00    +0.000 C 
ATOM      2  O   UNL     1       1.222   8.609  21.244  0.00  0.00    +0.000 OA
ATOM      3  N   UNL     1       2.092   8.023  19.219  0.00  0.00    +0.000 N 
ATOM      4  C   UNL     1       2.322   8.168  17.781  0.00  0.00    +0.000 C 
ENDROOT
BRANCH   1  12
ATOM      5  C   UNL     1       0.025  13.477  21.464  0.00  0.00    +0.000 C 
ATOM      6  C   UNL     1      -1.097  13.100  20.528  0.00  0.00    +0.000 C 
ATOM      7  O   UNL     1      -1.904  13.954  20.164  0.00  0.00    +0.000 OA
ATOM      8  N   UNL     1      -1.129  11.792  20.069  0.00  0.00    +0.000 N 
ATOM      9  C   UNL     1      -2.088  11.407  19.040  0.00  0.00    +0.000 C 
ATOM     10  C   UNL     1      -1.374  10.726  17.874  0.00  0.00    +0.000 C 
ATOM     11  C   UNL     1      -0.450   9.597  18.355  0.00  0.00    +0.000 C 
ATOM     12  C   UNL     1       0.564  10.072  19.450  0.00  0.00    +0.000 C 
ATOM     13  C   UNL     1       1.565  11.023  18.756  0.00  0.00    +0.000 C 
ATOM     14  C   UNL     1      -0.296  10.698  20.567  0.00  0.00    +0.000 C 
ENDBRANCH   1  12
BRANCH   3  15
ATOM     15  C   UNL     1       2.706   6.839  19.850  0.00  0.00    +0.000 C 
BRANCH  15  16
ATOM     16  C   UNL     1       2.742   5.636  18.923  0.00  0.00    +0.000 A 
ATOM     17  C   UNL     1       1.566   4.874  18.783  0.00  0.00    +0.000 A 
ATOM     18  C   UNL     1       1.489   3.825  17.868  0.00  0.00    +0.000 A 
ATOM     19  C   UNL     1       2.583   3.541  17.052  0.00  0.00    +0.000 A 
ATOM     20  C   UNL     1       3.769   4.282  17.164  0.00  0.00    +0.000 A 
ATOM     21  C   UNL     1       4.841   4.027  16.291  0.00  0.00    +0.000 A 
ATOM     22  C   UNL     1       6.020   4.770  16.360  0.00  0.00    +0.000 A 
ATOM     23  C   UNL     1       6.166   5.730  17.347  0.00  0.00    +0.000 A 
ATOM     24  C   UNL     1       5.126   5.969  18.242  0.00  0.00    +0.000 A 
ATOM     25  C   UNL     1       3.881   5.306  18.138  0.00  0.00    +0.000 A 
ENDBRANCH  15  16
ENDBRANCH   3  15
TORSDOF 3
ENDMDL
MODEL 8
REMARK VINA RESULT:      -7.7      1.769      3.322
REMARK  Name = 
REMARK  6 active torsions:
REMARK  status: ('A' for Active; 'I' for Inactive)
REMARK    1  A    between atoms: C_1  and  C_2
REMARK    2  A    between atoms: C_8  and  C_9
REMARK    3  A    between atoms: C_8  and  C_10
REMARK    4  A    between atoms: N_12  and  C_13
REMARK    5  A    between atoms: N_12  and  C_14
REMARK    6  A    between atoms: C_14  and  C_15
REMARK                            x       y       z     vdW  Elec       q    Type
REMARK                         _______ _______ _______ _____ _____    ______ ____
ROOT
ATOM      1  C   UNL     1       1.225   9.266  18.898  0.00  0.00    +0.000 C 
ATOM      2  O   UNL     1       1.235   9.890  17.827  0.00  0.00    +0.000 OA
ATOM      3  N   UNL     1       2.073   8.174  19.074  0.00  0.00    +0.000 N 
ATOM      4  C   UNL     1       2.172   7.319  20.257  0.00  0.00    +0.000 C 
ENDROOT
BRANCH   1  12
ATOM      5  C   UNL     1      -0.306  13.511  21.093  0.00  0.00    +0.000 C 
ATOM      6  C   UNL     1      -0.431  12.501  22.208  0.00  0.00    +0.000 C 
ATOM      7  O   UNL     1      -1.007  12.808  23.251  0.00  0.00    +0.000 OA
ATOM      8  N   UNL     1       0.074  11.231  21.974  0.00  0.00    +0.000 N 
ATOM      9  C   UNL     1      -0.158  10.167  22.945  0.00  0.00    +0.000 C 
ATOM     10  C   UNL     1      -0.772   8.946  22.261  0.00  0.00    +0.000 C 
ATOM     11  C   UNL     1       0.031   8.528  21.020  0.00  0.00    +0.000 C 
ATOM     12  C   UNL     1       0.239   9.706  20.009  0.00  0.00    +0.000 C 
ATOM     13  C   UNL     1      -1.144  10.025  19.398  0.00  0.00    +0.000 C 
ATOM     14  C   UNL     1       0.891  10.841  20.826  0.00  0.00    +0.000 C 
ENDBRANCH   1  12
BRANCH   3  15
ATOM     15  C   UNL     1       3.023   7.877  17.986  0.00  0.00    +0.000 C 
BRANCH  15  16
ATOM     16  C   UNL     1       3.219   6.385  17.772  0.00  0.00    +0.000 A 
ATOM     17  C   UNL     1       2.099   5.543  17.920  0.00  0.00    +0.000 A 
ATOM     18  C   UNL     1       2.176   4.182  17.632  0.00  0.00    +0.000 A 
ATOM     19  C   UNL     1       3.372   3.644  17.158  0.00  0.00    +0.000 A 
ATOM     20  C   UNL     1       4.505   4.455  16.997  0.00  0.00    +0.000 A 
ATOM     21  C   UNL     1       5.685   3.912  16.458  0.00  0.00    +0.000 A 
ATOM     22  C   UNL     1       6.817   4.703  16.259  0.00  0.00    +0.000 A 
ATOM     23  C   UNL     1       6.804   6.029  16.659  0.00  0.00    +0.000 A 
ATOM     24  C   UNL     1       5.653   6.570  17.228  0.00  0.00    +0.000 A 
ATOM     25  C   UNL     1       4.457   5.826  17.352  0.00  0.00    +0.000 A 
ENDBRANCH  15  16
ENDBRANCH   3  15
TORSDOF 3
ENDMDL
MODEL 9
REMARK VINA RESULT:      -7.7      1.213      1.906
REMARK  Name = 
REMARK  6 active torsions:
REMARK  status: ('A' for Active; 'I' for Inactive)
REMARK    1  A    between atoms: C_1  and  C_2
REMARK    2  A    between atoms: C_8  and  C_9
REMARK    3  A    between atoms: C_8  and  C_10
REMARK    4  A    between atoms: N_12  and  C_13
REMARK    5  A    between atoms: N_12  and  C_14
REMARK    6  A    between atoms: C_14  and  C_15
REMARK                            x       y       z     vdW  Elec       q    Type
REMARK                         _______ _______ _______ _____ _____    ______ ____
ROOT
ATOM      1  C   UNL     1       0.954   9.151  21.074  0.00  0.00    +0.000 C 
ATOM      2  O   UNL     1       0.987   8.769  22.253  0.00  0.00    +0.000 OA
ATOM      3  N   UNL     1       1.576   8.398  20.081  0.00  0.00    +0.000 N 
ATOM      4  C   UNL     1       1.651   8.713  18.654  0.00  0.00    +0.000 C 
ENDROOT
BRANCH   1  12
ATOM      5  C   UNL     1       1.696  13.199  18.203  0.00  0.00    +0.000 C 
ATOM      6  C   UNL     1       0.922  13.762  19.370  0.00  0.00    +0.000 C 
ATOM      7  O   UNL     1       0.485  14.911  19.319  0.00  0.00    +0.000 OA
ATOM      8  N   UNL     1       0.690  12.917  20.445  0.00  0.00    +0.000 N 
ATOM      9  C   UNL     1      -0.185  13.346  21.530  0.00  0.00    +0.000 C 
ATOM     10  C   UNL     1      -1.274  12.304  21.780  0.00  0.00    +0.000 C 
ATOM     11  C   UNL     1      -0.684  10.895  21.941  0.00  0.00    +0.000 C 
ATOM     12  C   UNL     1       0.238  10.485  20.742  0.00  0.00    +0.000 C 
ATOM     13  C   UNL     1      -0.678  10.304  19.511  0.00  0.00    +0.000 C 
ATOM     14  C   UNL     1       1.297  11.601  20.635  0.00  0.00    +0.000 C 
ENDBRANCH   1  12
BRANCH   3  15
ATOM     15  C   UNL     1       2.170   7.109  20.485  0.00  0.00    +0.000 C 
BRANCH  15  16
ATOM     16  C   UNL     1       2.582   6.258  19.296  0.00  0.00    +0.000 A 
ATOM     17  C   UNL     1       3.546   6.779  18.411  0.00  0.00    +0.000 A 
ATOM     18  C   UNL     1       4.054   6.013  17.364  0.00  0.00    +0.000 A 
ATOM     19  C   UNL     1       3.629   4.695  17.204  0.00  0.00    +0.000 A 
ATOM     20  C   UNL     1       2.672   4.144  18.070  0.00  0.00    +0.000 A 
ATOM     21  C   UNL     1       2.300   2.794  17.936  0.00  0.00    +0.000 A 
ATOM     22  C   UNL     1       1.374   2.213  18.802  0.00  0.00    +0.000 A 
ATOM     23  C   UNL     1       0.760   2.990  19.769  0.00  0.00    +0.000 A 
ATOM     24  C   UNL     1       1.092   4.338  19.889  0.00  0.00    +0.000 A 
ATOM     25  C   UNL     1       2.098   4.935  19.095  0.00  0.00    +0.000 A 
ENDBRANCH  15  16
ENDBRANCH   3  15
TORSDOF 3
ENDMDL
