MODEL 1
REMARK VINA RESULT:      -5.4      0.000      0.000
REMARK  Name = 
REMARK  6 active torsions:
REMARK  status: ('A' for Active; 'I' for Inactive)
REMARK    1  A    between atoms: C_1  and  C_2
REMARK    2  A    between atoms: C_6  and  S_7
REMARK    3  A    between atoms: S_7  and  C_8
REMARK    4  A    between atoms: C_8  and  C_9
REMARK    5  A    between atoms: C_8  and  C_10
REMARK    6  A    between atoms: C_10  and  O_12
REMARK                            x       y       z     vdW  Elec       q    Type
REMARK                         _______ _______ _______ _____ _____    ______ ____
ROOT
ATOM      1  S   UNL     1       4.287   3.656  16.935  0.00  0.00    +0.000 S 
ENDROOT
BRANCH   1   7
ATOM      2  C   UNL     1       6.132   3.961  14.076  0.00  0.00    +0.000 C 
ATOM      3  C   UNL     1       6.342   4.760  15.311  0.00  0.00    +0.000 A 
ATOM      4  N   UNL     1       7.383   5.686  15.296  0.00  0.00    +0.000 NA
ATOM      5  N   UNL     1       7.492   6.328  16.445  0.00  0.00    +0.000 NA
ATOM      6  S   UNL     1       6.367   5.836  17.573  0.00  0.00    +0.000 S 
ATOM      7  C   UNL     1       5.631   4.705  16.505  0.00  0.00    +0.000 A 
ENDBRANCH   1   7
BRANCH   1   8
ATOM      8  C   UNL     1       3.759   4.328  18.568  0.00  0.00    +0.000 C 
ATOM      9  C   UNL     1       2.303   4.776  18.507  0.00  0.00    +0.000 C 
BRANCH   8  10
ATOM     10  C   UNL     1       3.925   3.267  19.665  0.00  0.00    +0.000 C 
ATOM     11  O   UNL     1       3.118   3.075  20.561  0.00  0.00    +0.000 OA
BRANCH  10  12
ATOM     12  O   UNL     1       5.104   2.597  19.624  0.00  0.00    +0.000 OA
ATOM     13  H   UNL     1       5.249   2.039  20.413  0.00  0.00    +0.000 HD
ENDBRANCH  10  12
ENDBRANCH   8  10
ENDBRANCH   1   8
TORSDOF 4
ENDMDL
MODEL 2
REMARK VINA RESULT:      -5.4      3.720      4.968
REMARK  Name = 
REMARK  6 active torsions:
REMARK  status: ('A' for Active; 'I' for Inactive)
REMARK    1  A    between atoms: C_1  and  C_2
REMARK    2  A    between atoms: C_6  and  S_7
REMARK    3  A    between atoms: S_7  and  C_8
REMARK    4  A    between atoms: C_8  and  C_9
REMARK    5  A    between atoms: C_8  and  C_10
REMARK    6  A    between atoms: C_10  and  O_12
REMARK                            x       y       z     vdW  Elec       q    Type
REMARK                         _______ _______ _______ _____ _____    ______ ____
ROOT
ATOM      1  S   UNL     1       5.165   4.490  18.918  0.00  0.00    +0.000 S 
ENDROOT
BRANCH   1   7
ATOM      2  C   UNL     1       2.192   5.968  18.117  0.00  0.00    +0.000 C 
ATOM      3  C   UNL     1       2.432   4.502  18.137  0.00  0.00    +0.000 A 
ATOM      4  N   UNL     1       1.354   3.678  17.821  0.00  0.00    +0.000 NA
ATOM      5  N   UNL     1       1.671   2.398  17.884  0.00  0.00    +0.000 NA
ATOM      6  S   UNL     1       3.257   2.144  18.333  0.00  0.00    +0.000 S 
ATOM      7  C   UNL     1       3.610   3.826  18.438  0.00  0.00    +0.000 A 
ENDBRANCH   1   7
BRANCH   1   8
ATOM      8  C   UNL     1       5.845   5.117  17.323  0.00  0.00    +0.000 C 
ATOM      9  C   UNL     1       5.739   6.636  17.266  0.00  0.00    +0.000 C 
BRANCH   8  10
ATOM     10  C   UNL     1       7.313   4.696  17.162  0.00  0.00    +0.000 C 
ATOM     11  O   UNL     1       7.867   4.540  16.085  0.00  0.00    +0.000 OA
BRANCH  10  12
ATOM     12  O   UNL     1       7.947   4.415  18.327  0.00  0.00    +0.000 OA
ATOM     13  H   UNL     1       7.432   4.683  19.113  0.00  0.00    +0.000 HD
ENDBRANCH  10  12
ENDBRANCH   8  10
ENDBRANCH   1   8
TORSDOF 4
ENDMDL
MODEL 3
REMARK VINA RESULT:      -5.2      1.332      1.481
REMARK  Name = 
REMARK  6 active torsions:
REMARK  status: ('A' for Active; 'I' for Inactive)
REMARK    1  A    between atoms: C_1  and  C_2
REMARK    2  A    between atoms: C_6  and  S_7
REMARK    3  A    between atoms: S_7  and  C_8
REMARK    4  A    between atoms: C_8  and  C_9
REMARK    5  A    between atoms: C_8  and  C_10
REMARK    6  A    between atoms: C_10  and  O_12
REMARK                            x       y       z     vdW  Elec       q    Type
REMARK                         _______ _______ _______ _____ _____    ______ ____
ROOT
ATOM      1  S   UNL     1       3.662   4.238  17.515  0.00  0.00    +0.000 S 
ENDROOT
BRANCH   1   7
ATOM      2  C   UNL     1       5.975   3.787  15.043  0.00  0.00    +0.000 C 
ATOM      3  C   UNL     1       6.268   4.349  16.386  0.00  0.00    +0.000 A 
ATOM      4  N   UNL     1       7.590   4.698  16.652  0.00  0.00    +0.000 NA
ATOM      5  N   UNL     1       7.743   5.171  17.876  0.00  0.00    +0.000 NA
ATOM      6  S   UNL     1       6.318   5.200  18.742  0.00  0.00    +0.000 S 
ATOM      7  C   UNL     1       5.386   4.575  17.437  0.00  0.00    +0.000 A 
ENDBRANCH   1   7
BRANCH   1   8
ATOM      8  C   UNL     1       3.451   3.610  19.236  0.00  0.00    +0.000 C 
ATOM      9  C   UNL     1       1.971   3.449  19.560  0.00  0.00    +0.000 C 
BRANCH   8  10
ATOM     10  C   UNL     1       4.167   2.264  19.408  0.00  0.00    +0.000 C 
ATOM     11  O   UNL     1       4.923   2.003  20.332  0.00  0.00    +0.000 OA
BRANCH  10  12
ATOM     12  O   UNL     1       3.969   1.388  18.392  0.00  0.00    +0.000 OA
ATOM     13  H   UNL     1       4.138   1.783  17.515  0.00  0.00    +0.000 HD
ENDBRANCH  10  12
ENDBRANCH   8  10
ENDBRANCH   1   8
TORSDOF 4
ENDMDL
MODEL 4
REMARK VINA RESULT:      -5.2      1.225      1.316
REMARK  Name = 
REMARK  6 active torsions:
REMARK  status: ('A' for Active; 'I' for Inactive)
REMARK    1  A    between atoms: C_1  and  C_2
REMARK    2  A    between atoms: C_6  and  S_7
REMARK    3  A    between atoms: S_7  and  C_8
REMARK    4  A    between atoms: C_8  and  C_9
REMARK    5  A    between atoms: C_8  and  C_10
REMARK    6  A    between atoms: C_10  and  O_12
REMARK                            x       y       z     vdW  Elec       q    Type
REMARK                         _______ _______ _______ _____ _____    ______ ____
ROOT
ATOM      1  S   UNL     1       3.874   4.133  16.914  0.00  0.00    +0.000 S 
ENDROOT
BRANCH   1   7
ATOM      2  C   UNL     1       6.071   3.879  14.312  0.00  0.00    +0.000 C 
ATOM      3  C   UNL     1       6.235   4.789  15.475  0.00  0.00    +0.000 A 
ATOM      4  N   UNL     1       7.382   5.579  15.504  0.00  0.00    +0.000 NA
ATOM      5  N   UNL     1       7.436   6.336  16.585  0.00  0.00    +0.000 NA
ATOM      6  S   UNL     1       6.129   6.116  17.597  0.00  0.00    +0.000 S 
ATOM      7  C   UNL     1       5.385   4.960  16.562  0.00  0.00    +0.000 A 
ENDBRANCH   1   7
BRANCH   1   8
ATOM      8  C   UNL     1       4.259   3.241  18.482  0.00  0.00    +0.000 C 
ATOM      9  C   UNL     1       3.860   4.091  19.683  0.00  0.00    +0.000 C 
BRANCH   8  10
ATOM     10  C   UNL     1       3.517   1.898  18.532  0.00  0.00    +0.000 C 
ATOM     11  O   UNL     1       2.318   1.785  18.735  0.00  0.00    +0.000 OA
BRANCH  10  12
ATOM     12  O   UNL     1       4.318   0.810  18.421  0.00  0.00    +0.000 OA
ATOM     13  H   UNL     1       4.357   0.460  17.510  0.00  0.00    +0.000 HD
ENDBRANCH  10  12
ENDBRANCH   8  10
ENDBRANCH   1   8
TORSDOF 4
ENDMDL
MODEL 5
REMARK VINA RESULT:      -5.2      3.581      4.964
REMARK  Name = 
REMARK  6 active torsions:
REMARK  status: ('A' for Active; 'I' for Inactive)
REMARK    1  A    between atoms: C_1  and  C_2
REMARK    2  A    between atoms: C_6  and  S_7
REMARK    3  A    between atoms: S_7  and  C_8
REMARK    4  A    between atoms: C_8  and  C_9
REMARK    5  A    between atoms: C_8  and  C_10
REMARK    6  A    between atoms: C_10  and  O_12
REMARK                            x       y       z     vdW  Elec       q    Type
REMARK                         _______ _______ _______ _____ _____    ______ ____
ROOT
ATOM      1  S   UNL     1       5.310   4.453  18.873  0.00  0.00    +0.000 S 
ENDROOT
BRANCH   1   7
ATOM      2  C   UNL     1       2.394   6.074  18.144  0.00  0.00    +0.000 C 
ATOM      3  C   UNL     1       2.578   4.601  18.103  0.00  0.00    +0.000 A 
ATOM      4  N   UNL     1       1.468   3.833  17.758  0.00  0.00    +0.000 NA
ATOM      5  N   UNL     1       1.736   2.540  17.768  0.00  0.00    +0.000 NA
ATOM      6  S   UNL     1       3.313   2.208  18.200  0.00  0.00    +0.000 S 
ATOM      7  C   UNL     1       3.729   3.869  18.372  0.00  0.00    +0.000 A 
ENDBRANCH   1   7
BRANCH   1   8
ATOM      8  C   UNL     1       5.911   5.331  17.367  0.00  0.00    +0.000 C 
ATOM      9  C   UNL     1       6.789   6.513  17.761  0.00  0.00    +0.000 C 
BRANCH   8  10
ATOM     10  C   UNL     1       6.707   4.374  16.469  0.00  0.00    +0.000 C 
ATOM     11  O   UNL     1       7.874   4.546  16.149  0.00  0.00    +0.000 OA
BRANCH  10  12
ATOM     12  O   UNL     1       5.985   3.342  15.967  0.00  0.00    +0.000 OA
ATOM     13  H   UNL     1       5.021   3.478  16.056  0.00  0.00    +0.000 HD
ENDBRANCH  10  12
ENDBRANCH   8  10
ENDBRANCH   1   8
TORSDOF 4
ENDMDL
MODEL 6
REMARK VINA RESULT:      -5.2      2.048      2.783
REMARK  Name = 
REMARK  6 active torsions:
REMARK  status: ('A' for Active; 'I' for Inactive)
REMARK    1  A    between atoms: C_1  and  C_2
REMARK    2  A    between atoms: C_6  and  S_7
REMARK    3  A    between atoms: S_7  and  C_8
REMARK    4  A    between atoms: C_8  and  C_9
REMARK    5  A    between atoms: C_8  and  C_10
REMARK    6  A    between atoms: C_10  and  O_12
REMARK                            x       y       z     vdW  Elec       q    Type
REMARK                         _______ _______ _______ _____ _____    ______ ____
ROOT
ATOM      1  S   UNL     1       4.897   4.055  18.663  0.00  0.00    +0.000 S 
ENDROOT
BRANCH   1   7
ATOM      2  C   UNL     1       7.651   6.075  18.651  0.00  0.00    +0.000 C 
ATOM      3  C   UNL     1       6.935   5.609  17.435  0.00  0.00    +0.000 A 
ATOM      4  N   UNL     1       7.421   6.050  16.206  0.00  0.00    +0.000 NA
ATOM      5  N   UNL     1       6.704   5.592  15.195  0.00  0.00    +0.000 NA
ATOM      6  S   UNL     1       5.428   4.636  15.686  0.00  0.00    +0.000 S 
ATOM      7  C   UNL     1       5.821   4.781  17.355  0.00  0.00    +0.000 A 
ENDBRANCH   1   7
BRANCH   1   8
ATOM      8  C   UNL     1       3.499   3.249  17.770  0.00  0.00    +0.000 C 
ATOM      9  C   UNL     1       3.413   1.775  18.149  0.00  0.00    +0.000 C 
BRANCH   8  10
ATOM     10  C   UNL     1       2.174   3.946  18.106  0.00  0.00    +0.000 C 
ATOM     11  O   UNL     1       1.248   4.074  17.319  0.00  0.00    +0.000 OA
BRANCH  10  12
ATOM     12  O   UNL     1       2.129   4.504  19.341  0.00  0.00    +0.000 OA
ATOM     13  H   UNL     1       1.391   5.135  19.444  0.00  0.00    +0.000 HD
ENDBRANCH  10  12
ENDBRANCH   8  10
ENDBRANCH   1   8
TORSDOF 4
ENDMDL
MODEL 7
REMARK VINA RESULT:      -5.2      1.920      2.451
REMARK  Name = 
REMARK  6 active torsions:
REMARK  status: ('A' for Active; 'I' for Inactive)
REMARK    1  A    between atoms: C_1  and  C_2
REMARK    2  A    between atoms: C_6  and  S_7
REMARK    3  A    between atoms: S_7  and  C_8
REMARK    4  A    between atoms: C_8  and  C_9
REMARK    5  A    between atoms: C_8  and  C_10
REMARK    6  A    between atoms: C_10  and  O_12
REMARK                            x       y       z     vdW  Elec       q    Type
REMARK                         _______ _______ _______ _____ _____    ______ ____
ROOT
ATOM      1  S   UNL     1       3.907   4.658  17.187  0.00  0.00    +0.000 S 
ENDROOT
BRANCH   1   7
ATOM      2  C   UNL     1       6.805   6.215  18.105  0.00  0.00    +0.000 C 
ATOM      3  C   UNL     1       6.554   5.606  16.773  0.00  0.00    +0.000 A 
ATOM      4  N   UNL     1       7.577   5.699  15.832  0.00  0.00    +0.000 NA
ATOM      5  N   UNL     1       7.245   5.141  14.681  0.00  0.00    +0.000 NA
ATOM      6  S   UNL     1       5.704   4.505  14.690  0.00  0.00    +0.000 S 
ATOM      7  C   UNL     1       5.414   4.947  16.328  0.00  0.00    +0.000 A 
ENDBRANCH   1   7
BRANCH   1   8
ATOM      8  C   UNL     1       4.321   3.208  18.249  0.00  0.00    +0.000 C 
ATOM      9  C   UNL     1       4.177   3.576  19.721  0.00  0.00    +0.000 C 
BRANCH   8  10
ATOM     10  C   UNL     1       3.402   2.023  17.922  0.00  0.00    +0.000 C 
ATOM     11  O   UNL     1       2.277   2.135  17.459  0.00  0.00    +0.000 OA
BRANCH  10  12
ATOM     12  O   UNL     1       3.901   0.812  18.273  0.00  0.00    +0.000 OA
ATOM     13  H   UNL     1       3.288   0.078  18.073  0.00  0.00    +0.000 HD
ENDBRANCH  10  12
ENDBRANCH   8  10
ENDBRANCH   1   8
TORSDOF 4
ENDMDL
MODEL 8
REMARK VINA RESULT:      -5.2      2.045      2.269
REMARK  Name = 
REMARK  6 active torsions:
REMARK  status: ('A' for Active; 'I' for Inactive)
REMARK    1  A    between atoms: C_1  and  C_2
REMARK    2  A    between atoms: C_6  and  S_7
REMARK    3  A    between atoms: S_7  and  C_8
REMARK    4  A    between atoms: C_8  and  C_9
REMARK    5  A    between atoms: C_8  and  C_10
REMARK    6  A    between atoms: C_10  and  O_12
REMARK                            x       y       z     vdW  Elec       q    Type
REMARK                         _______ _______ _______ _____ _____    ______ ____
ROOT
ATOM      1  S   UNL     1       3.789   5.367  17.792  0.00  0.00    +0.000 S 
ENDROOT
BRANCH   1   7
ATOM      2  C   UNL     1       5.948   4.119  15.458  0.00  0.00    +0.000 C 
ATOM      3  C   UNL     1       6.338   4.567  16.820  0.00  0.00    +0.000 A 
ATOM      4  N   UNL     1       7.682   4.448  17.165  0.00  0.00    +0.000 NA
ATOM      5  N   UNL     1       7.916   4.858  18.399  0.00  0.00    +0.000 NA
ATOM      6  S   UNL     1       6.539   5.383  19.179  0.00  0.00    +0.000 S 
ATOM      7  C   UNL     1       5.526   5.095  17.818  0.00  0.00    +0.000 A 
ENDBRANCH   1   7
BRANCH   1   8
ATOM      8  C   UNL     1       3.141   3.915  18.725  0.00  0.00    +0.000 C 
ATOM      9  C   UNL     1       2.619   4.355  20.088  0.00  0.00    +0.000 C 
BRANCH   8  10
ATOM     10  C   UNL     1       2.014   3.230  17.939  0.00  0.00    +0.000 C 
ATOM     11  O   UNL     1       1.145   3.830  17.325  0.00  0.00    +0.000 OA
BRANCH  10  12
ATOM     12  O   UNL     1       1.995   1.879  18.046  0.00  0.00    +0.000 OA
ATOM     13  H   UNL     1       2.483   1.436  17.325  0.00  0.00    +0.000 HD
ENDBRANCH  10  12
ENDBRANCH   8  10
ENDBRANCH   1   8
TORSDOF 4
ENDMDL
MODEL 9
REMARK VINA RESULT:      -5.2      2.171      2.717
REMARK  Name = 
REMARK  6 active torsions:
REMARK  status: ('A' for Active; 'I' for Inactive)
REMARK    1  A    between atoms: C_1  and  C_2
REMARK    2  A    between atoms: C_6  and  S_7
REMARK    3  A    between atoms: S_7  and  C_8
REMARK    4  A    between atoms: C_8  and  C_9
REMARK    5  A    between atoms: C_8  and  C_10
REMARK    6  A    between atoms: C_10  and  O_12
REMARK                            x       y       z     vdW  Elec       q    Type
REMARK                         _______ _______ _______ _____ _____    ______ ____
ROOT
ATOM      1  S   UNL     1       4.765   4.026  19.013  0.00  0.00    +0.000 S 
ENDROOT
BRANCH   1   7
ATOM      2  C   UNL     1       4.012   6.954  17.425  0.00  0.00    +0.000 C 
ATOM      3  C   UNL     1       5.287   6.208  17.268  0.00  0.00    +0.000 A 
ATOM      4  N   UNL     1       6.230   6.742  16.393  0.00  0.00    +0.000 NA
ATOM      5  N   UNL     1       7.316   5.993  16.316  0.00  0.00    +0.000 NA
ATOM      6  S   UNL     1       7.234   4.631  17.274  0.00  0.00    +0.000 S 
ATOM      7  C   UNL     1       5.673   5.023  17.885  0.00  0.00    +0.000 A 
ENDBRANCH   1   7
BRANCH   1   8
ATOM      8  C   UNL     1       3.426   3.333  17.952  0.00  0.00    +0.000 C 
ATOM      9  C   UNL     1       3.397   1.813  18.066  0.00  0.00    +0.000 C 
BRANCH   8  10
ATOM     10  C   UNL     1       2.063   3.907  18.362  0.00  0.00    +0.000 C 
ATOM     11  O   UNL     1       1.743   4.156  19.514  0.00  0.00    +0.000 OA
BRANCH  10  12
ATOM     12  O   UNL     1       1.180   4.041  17.342  0.00  0.00    +0.000 OA
ATOM     13  H   UNL     1       0.277   3.756  17.584  0.00  0.00    +0.000 HD
ENDBRANCH  10  12
ENDBRANCH   8  10
ENDBRANCH   1   8
TORSDOF 4
ENDMDL
