MODEL 1
REMARK VINA RESULT:      -7.9      0.000      0.000
REMARK  Name = 
REMARK  7 active torsions:
REMARK  status: ('A' for Active; 'I' for Inactive)
REMARK    1  A    between atoms: C_1  and  C_2
REMARK    2  A    between atoms: C_2  and  C_3
REMARK    3  A    between atoms: C_2  and  O_4
REMARK    4  A    between atoms: O_4  and  C_5
REMARK    5  A    between atoms: C_5  and  C_7
REMARK    6  A    between atoms: C_8  and  N_9
REMARK    7  A    between atoms: C_12  and  C_13
REMARK                            x       y       z     vdW  Elec       q    Type
REMARK                         _______ _______ _______ _____ _____    ______ ____
ROOT
ATOM      1  N   UNL     1       4.473   4.797  17.298  0.00  0.00    +0.000 N 
ATOM      2  C   UNL     1       4.325   4.374  18.608  0.00  0.00    +0.000 A 
ATOM      3  N   UNL     1       3.652   5.239  19.319  0.00  0.00    +0.000 NA
ATOM      4  C   UNL     1       3.402   6.233  18.416  0.00  0.00    +0.000 A 
ATOM      5  N   UNL     1       4.001   6.066  17.228  0.00  0.00    +0.000 NA
ENDROOT
BRANCH   4   6
ATOM      6  C   UNL     1       2.548   7.364  18.744  0.00  0.00    +0.000 A 
ATOM      7  C   UNL     1       2.261   8.337  17.774  0.00  0.00    +0.000 A 
ATOM      8  C   UNL     1       1.457   9.433  18.090  0.00  0.00    +0.000 A 
ATOM      9  C   UNL     1       0.951   9.568  19.382  0.00  0.00    +0.000 A 
ATOM     10  C   UNL     1       1.240   8.606  20.349  0.00  0.00    +0.000 A 
ATOM     11 CL   UNL     1       0.615   8.779  21.943  0.00  0.00    +0.000 Cl
ATOM     12  C   UNL     1       2.029   7.505  20.036  0.00  0.00    +0.000 A 
ENDBRANCH   4   6
BRANCH   1  14
ATOM     13  C   UNL     1       6.337   4.175  15.802  0.00  0.00    +0.000 C 
ATOM     14  C   UNL     1       5.069   4.103  16.237  0.00  0.00    +0.000 C 
BRANCH  13  15
ATOM     15  C   UNL     1       7.393   4.794  16.624  0.00  0.00    +0.000 C 
ATOM     16  O   UNL     1       8.125   4.151  17.365  0.00  0.00    +0.000 OA
BRANCH  15  17
ATOM     17  O   UNL     1       7.449   6.129  16.427  0.00  0.00    +0.000 OA
BRANCH  17  19
ATOM     18  C   UNL     1       7.744   6.124  18.841  0.00  0.00    +0.000 C 
ATOM     19  C   UNL     1       7.203   6.884  17.634  0.00  0.00    +0.000 C 
ATOM     20  C   UNL     1       7.875   8.241  17.499  0.00  0.00    +0.000 C 
ENDBRANCH  17  19
ENDBRANCH  15  17
ENDBRANCH  13  15
ENDBRANCH   1  14
TORSDOF 5
ENDMDL
MODEL 2
REMARK VINA RESULT:      -7.8      1.398      2.325
REMARK  Name = 
REMARK  7 active torsions:
REMARK  status: ('A' for Active; 'I' for Inactive)
REMARK    1  A    between atoms: C_1  and  C_2
REMARK    2  A    between atoms: C_2  and  C_3
REMARK    3  A    between atoms: C_2  and  O_4
REMARK    4  A    between atoms: O_4  and  C_5
REMARK    5  A    between atoms: C_5  and  C_7
REMARK    6  A    between atoms: C_8  and  N_9
REMARK    7  A    between atoms: C_12  and  C_13
REMARK                            x       y       z     vdW  Elec       q    Type
REMARK                         _______ _______ _______ _____ _____    ______ ____
ROOT
ATOM      1  N   UNL     1       4.918   4.703  18.015  0.00  0.00    +0.000 N 
ATOM      2  C   UNL     1       3.741   4.136  17.556  0.00  0.00    +0.000 A 
ATOM      3  N   UNL     1       2.715   4.914  17.779  0.00  0.00    +0.000 NA
ATOM      4  C   UNL     1       3.283   5.979  18.417  0.00  0.00    +0.000 A 
ATOM      5  N   UNL     1       4.586   5.825  18.700  0.00  0.00    +0.000 NA
ENDROOT
BRANCH   4   6
ATOM      6  C   UNL     1       2.517   7.171  18.743  0.00  0.00    +0.000 A 
ATOM      7  C   UNL     1       2.228   8.120  17.750  0.00  0.00    +0.000 A 
ATOM      8  C   UNL     1       1.509   9.273  18.063  0.00  0.00    +0.000 A 
ATOM      9  C   UNL     1       1.087   9.489  19.374  0.00  0.00    +0.000 A 
ATOM     10  C   UNL     1       1.376   8.550  20.364  0.00  0.00    +0.000 A 
ATOM     11 CL   UNL     1       0.856   8.823  21.981  0.00  0.00    +0.000 Cl
ATOM     12  C   UNL     1       2.082   7.393  20.054  0.00  0.00    +0.000 A 
ENDBRANCH   4   6
BRANCH   1  14
ATOM     13  C   UNL     1       7.167   4.558  17.007  0.00  0.00    +0.000 C 
ATOM     14  C   UNL     1       6.218   4.198  17.885  0.00  0.00    +0.000 C 
BRANCH  13  15
ATOM     15  C   UNL     1       7.059   5.808  16.232  0.00  0.00    +0.000 C 
ATOM     16  O   UNL     1       7.549   6.867  16.603  0.00  0.00    +0.000 OA
BRANCH  15  17
ATOM     17  O   UNL     1       6.383   5.614  15.080  0.00  0.00    +0.000 OA
BRANCH  17  19
ATOM     18  C   UNL     1       5.917   3.808  13.520  0.00  0.00    +0.000 C 
ATOM     19  C   UNL     1       6.996   4.618  14.232  0.00  0.00    +0.000 C 
ATOM     20  C   UNL     1       7.896   5.324  13.231  0.00  0.00    +0.000 C 
ENDBRANCH  17  19
ENDBRANCH  15  17
ENDBRANCH  13  15
ENDBRANCH   1  14
TORSDOF 5
ENDMDL
MODEL 3
REMARK VINA RESULT:      -7.7      4.108      7.012
REMARK  Name = 
REMARK  7 active torsions:
REMARK  status: ('A' for Active; 'I' for Inactive)
REMARK    1  A    between atoms: C_1  and  C_2
REMARK    2  A    between atoms: C_2  and  C_3
REMARK    3  A    between atoms: C_2  and  O_4
REMARK    4  A    between atoms: O_4  and  C_5
REMARK    5  A    between atoms: C_5  and  C_7
REMARK    6  A    between atoms: C_8  and  N_9
REMARK    7  A    between atoms: C_12  and  C_13
REMARK                            x       y       z     vdW  Elec       q    Type
REMARK                         _______ _______ _______ _____ _____    ______ ____
ROOT
ATOM      1  N   UNL     1       5.499   5.444  17.828  0.00  0.00    +0.000 N 
ATOM      2  C   UNL     1       6.873   5.451  18.002  0.00  0.00    +0.000 A 
ATOM      3  N   UNL     1       7.498   5.152  16.895  0.00  0.00    +0.000 NA
ATOM      4  C   UNL     1       6.470   4.931  16.023  0.00  0.00    +0.000 A 
ATOM      5  N   UNL     1       5.252   4.961  16.585  0.00  0.00    +0.000 NA
ENDROOT
BRANCH   4   6
ATOM      6  C   UNL     1       6.707   4.692  14.609  0.00  0.00    +0.000 A 
ATOM      7  C   UNL     1       7.666   5.447  13.915  0.00  0.00    +0.000 A 
ATOM      8  C   UNL     1       7.883   5.233  12.554  0.00  0.00    +0.000 A 
ATOM      9  C   UNL     1       7.132   4.273  11.877  0.00  0.00    +0.000 A 
ATOM     10  C   UNL     1       6.175   3.525  12.563  0.00  0.00    +0.000 A 
ATOM     11 CL   UNL     1       5.248   2.345  11.723  0.00  0.00    +0.000 Cl
ATOM     12  C   UNL     1       5.963   3.725  13.922  0.00  0.00    +0.000 A 
ENDBRANCH   4   6
BRANCH   1  14
ATOM     13  C   UNL     1       3.741   4.967  19.495  0.00  0.00    +0.000 C 
ATOM     14  C   UNL     1       4.516   5.785  18.765  0.00  0.00    +0.000 C 
BRANCH  13  15
ATOM     15  C   UNL     1       4.060   3.534  19.634  0.00  0.00    +0.000 C 
ATOM     16  O   UNL     1       5.205   3.110  19.715  0.00  0.00    +0.000 OA
BRANCH  15  17
ATOM     17  O   UNL     1       2.938   2.785  19.683  0.00  0.00    +0.000 OA
BRANCH  17  19
ATOM     18  C   UNL     1       2.656   2.312  17.314  0.00  0.00    +0.000 C 
ATOM     19  C   UNL     1       2.073   2.997  18.546  0.00  0.00    +0.000 C 
ATOM     20  C   UNL     1       0.696   2.442  18.876  0.00  0.00    +0.000 C 
ENDBRANCH  17  19
ENDBRANCH  15  17
ENDBRANCH  13  15
ENDBRANCH   1  14
TORSDOF 5
ENDMDL
MODEL 4
REMARK VINA RESULT:      -7.7      2.556      4.015
REMARK  Name = 
REMARK  7 active torsions:
REMARK  status: ('A' for Active; 'I' for Inactive)
REMARK    1  A    between atoms: C_1  and  C_2
REMARK    2  A    between atoms: C_2  and  C_3
REMARK    3  A    between atoms: C_2  and  O_4
REMARK    4  A    between atoms: O_4  and  C_5
REMARK    5  A    between atoms: C_5  and  C_7
REMARK    6  A    between atoms: C_8  and  N_9
REMARK    7  A    between atoms: C_12  and  C_13
REMARK                            x       y       z     vdW  Elec       q    Type
REMARK                         _______ _______ _______ _____ _____    ______ ____
ROOT
ATOM      1  N   UNL     1       3.595   4.565  17.532  0.00  0.00    +0.000 N 
ATOM      2  C   UNL     1       4.699   5.398  17.463  0.00  0.00    +0.000 A 
ATOM      3  N   UNL     1       4.396   6.625  17.791  0.00  0.00    +0.000 NA
ATOM      4  C   UNL     1       3.057   6.542  18.047  0.00  0.00    +0.000 A 
ATOM      5  N   UNL     1       2.513   5.348  17.766  0.00  0.00    +0.000 NA
ENDROOT
BRANCH   4   6
ATOM      6  C   UNL     1       2.311   7.669  18.583  0.00  0.00    +0.000 A 
ATOM      7  C   UNL     1       1.951   8.739  17.749  0.00  0.00    +0.000 A 
ATOM      8  C   UNL     1       1.252   9.831  18.264  0.00  0.00    +0.000 A 
ATOM      9  C   UNL     1       0.922   9.864  19.619  0.00  0.00    +0.000 A 
ATOM     10  C   UNL     1       1.284   8.804  20.450  0.00  0.00    +0.000 A 
ATOM     11 CL   UNL     1       0.879   8.851  22.121  0.00  0.00    +0.000 Cl
ATOM     12  C   UNL     1       1.970   7.708  19.940  0.00  0.00    +0.000 A 
ENDBRANCH   4   6
BRANCH   1  14
ATOM     13  C   UNL     1       3.876   2.199  18.181  0.00  0.00    +0.000 C 
ATOM     14  C   UNL     1       3.553   3.181  17.324  0.00  0.00    +0.000 C 
BRANCH  13  15
ATOM     15  C   UNL     1       4.026   2.463  19.624  0.00  0.00    +0.000 C 
ATOM     16  O   UNL     1       4.963   2.036  20.286  0.00  0.00    +0.000 OA
BRANCH  15  17
ATOM     17  O   UNL     1       3.024   3.240  20.087  0.00  0.00    +0.000 OA
BRANCH  17  19
ATOM     18  C   UNL     1       1.631   2.578  21.967  0.00  0.00    +0.000 C 
ATOM     19  C   UNL     1       1.854   2.480  20.461  0.00  0.00    +0.000 C 
ATOM     20  C   UNL     1       0.659   3.029  19.697  0.00  0.00    +0.000 C 
ENDBRANCH  17  19
ENDBRANCH  15  17
ENDBRANCH  13  15
ENDBRANCH   1  14
TORSDOF 5
ENDMDL
MODEL 5
REMARK VINA RESULT:      -7.7      4.409      7.149
REMARK  Name = 
REMARK  7 active torsions:
REMARK  status: ('A' for Active; 'I' for Inactive)
REMARK    1  A    between atoms: C_1  and  C_2
REMARK    2  A    between atoms: C_2  and  C_3
REMARK    3  A    between atoms: C_2  and  O_4
REMARK    4  A    between atoms: O_4  and  C_5
REMARK    5  A    between atoms: C_5  and  C_7
REMARK    6  A    between atoms: C_8  and  N_9
REMARK    7  A    between atoms: C_12  and  C_13
REMARK                            x       y       z     vdW  Elec       q    Type
REMARK                         _______ _______ _______ _____ _____    ______ ____
ROOT
ATOM      1  N   UNL     1       5.987   4.977  17.778  0.00  0.00    +0.000 N 
ATOM      2  C   UNL     1       5.826   6.290  17.368  0.00  0.00    +0.000 A 
ATOM      3  N   UNL     1       6.100   6.434  16.099  0.00  0.00    +0.000 NA
ATOM      4  C   UNL     1       6.464   5.171  15.729  0.00  0.00    +0.000 A 
ATOM      5  N   UNL     1       6.542   4.297  16.745  0.00  0.00    +0.000 NA
ENDROOT
BRANCH   4   6
ATOM      6  C   UNL     1       6.732   4.830  14.342  0.00  0.00    +0.000 A 
ATOM      7  C   UNL     1       7.689   5.550  13.609  0.00  0.00    +0.000 A 
ATOM      8  C   UNL     1       7.935   5.238  12.272  0.00  0.00    +0.000 A 
ATOM      9  C   UNL     1       7.217   4.213  11.658  0.00  0.00    +0.000 A 
ATOM     10  C   UNL     1       6.263   3.499  12.382  0.00  0.00    +0.000 A 
ATOM     11 CL   UNL     1       5.376   2.238  11.619  0.00  0.00    +0.000 Cl
ATOM     12  C   UNL     1       6.022   3.798  13.718  0.00  0.00    +0.000 A 
ENDBRANCH   4   6
BRANCH   1  14
ATOM     13  C   UNL     1       4.627   3.762  19.442  0.00  0.00    +0.000 C 
ATOM     14  C   UNL     1       5.716   4.436  19.041  0.00  0.00    +0.000 C 
BRANCH  13  15
ATOM     15  C   UNL     1       3.667   3.210  18.468  0.00  0.00    +0.000 C 
ATOM     16  O   UNL     1       3.954   2.316  17.683  0.00  0.00    +0.000 OA
BRANCH  15  17
ATOM     17  O   UNL     1       2.458   3.800  18.582  0.00  0.00    +0.000 OA
BRANCH  17  19
ATOM     18  C   UNL     1       0.960   4.233  20.448  0.00  0.00    +0.000 C 
ATOM     19  C   UNL     1       1.620   3.170  19.575  0.00  0.00    +0.000 C 
ATOM     20  C   UNL     1       0.575   2.328  18.860  0.00  0.00    +0.000 C 
ENDBRANCH  17  19
ENDBRANCH  15  17
ENDBRANCH  13  15
ENDBRANCH   1  14
TORSDOF 5
ENDMDL
MODEL 6
REMARK VINA RESULT:      -7.7      4.478      7.013
REMARK  Name = 
REMARK  7 active torsions:
REMARK  status: ('A' for Active; 'I' for Inactive)
REMARK    1  A    between atoms: C_1  and  C_2
REMARK    2  A    between atoms: C_2  and  C_3
REMARK    3  A    between atoms: C_2  and  O_4
REMARK    4  A    between atoms: O_4  and  C_5
REMARK    5  A    between atoms: C_5  and  C_7
REMARK    6  A    between atoms: C_8  and  N_9
REMARK    7  A    between atoms: C_12  and  C_13
REMARK                            x       y       z     vdW  Elec       q    Type
REMARK                         _______ _______ _______ _____ _____    ______ ____
ROOT
ATOM      1  N   UNL     1       5.372   4.505  17.906  0.00  0.00    +0.000 N 
ATOM      2  C   UNL     1       4.718   5.628  17.429  0.00  0.00    +0.000 A 
ATOM      3  N   UNL     1       4.980   5.836  16.166  0.00  0.00    +0.000 NA
ATOM      4  C   UNL     1       5.841   4.819  15.871  0.00  0.00    +0.000 A 
ATOM      5  N   UNL     1       6.210   4.080  16.928  0.00  0.00    +0.000 NA
ENDROOT
BRANCH   4   6
ATOM      6  C   UNL     1       6.300   4.577  14.512  0.00  0.00    +0.000 A 
ATOM      7  C   UNL     1       7.379   5.308  13.990  0.00  0.00    +0.000 A 
ATOM      8  C   UNL     1       7.809   5.093  12.680  0.00  0.00    +0.000 A 
ATOM      9  C   UNL     1       7.154   4.155  11.883  0.00  0.00    +0.000 A 
ATOM     10  C   UNL     1       6.079   3.432  12.398  0.00  0.00    +0.000 A 
ATOM     11 CL   UNL     1       5.271   2.280  11.408  0.00  0.00    +0.000 Cl
ATOM     12  C   UNL     1       5.653   3.634  13.706  0.00  0.00    +0.000 A 
ENDBRANCH   4   6
BRANCH   1  14
ATOM     13  C   UNL     1       4.376   3.043  19.628  0.00  0.00    +0.000 C 
ATOM     14  C   UNL     1       5.274   3.935  19.182  0.00  0.00    +0.000 C 
BRANCH  13  15
ATOM     15  C   UNL     1       3.527   2.279  18.695  0.00  0.00    +0.000 C 
ATOM     16  O   UNL     1       3.982   1.560  17.816  0.00  0.00    +0.000 OA
BRANCH  15  17
ATOM     17  O   UNL     1       2.217   2.465  18.961  0.00  0.00    +0.000 OA
BRANCH  17  19
ATOM     18  C   UNL     1       1.333   4.393  17.773  0.00  0.00    +0.000 C 
ATOM     19  C   UNL     1       1.865   3.859  19.099  0.00  0.00    +0.000 C 
ATOM     20  C   UNL     1       0.820   3.987  20.195  0.00  0.00    +0.000 C 
ENDBRANCH  17  19
ENDBRANCH  15  17
ENDBRANCH  13  15
ENDBRANCH   1  14
TORSDOF 5
ENDMDL
MODEL 7
REMARK VINA RESULT:      -7.6      2.576      4.151
REMARK  Name = 
REMARK  7 active torsions:
REMARK  status: ('A' for Active; 'I' for Inactive)
REMARK    1  A    between atoms: C_1  and  C_2
REMARK    2  A    between atoms: C_2  and  C_3
REMARK    3  A    between atoms: C_2  and  O_4
REMARK    4  A    between atoms: O_4  and  C_5
REMARK    5  A    between atoms: C_5  and  C_7
REMARK    6  A    between atoms: C_8  and  N_9
REMARK    7  A    between atoms: C_12  and  C_13
REMARK                            x       y       z     vdW  Elec       q    Type
REMARK                         _______ _______ _______ _____ _____    ______ ____
ROOT
ATOM      1  N   UNL     1       3.464   5.063  17.361  0.00  0.00    +0.000 N 
ATOM      2  C   UNL     1       4.413   6.049  17.152  0.00  0.00    +0.000 A 
ATOM      3  N   UNL     1       4.054   7.183  17.695  0.00  0.00    +0.000 NA
ATOM      4  C   UNL     1       2.835   6.882  18.232  0.00  0.00    +0.000 A 
ATOM      5  N   UNL     1       2.385   5.655  17.931  0.00  0.00    +0.000 NA
ENDROOT
BRANCH   4   6
ATOM      6  C   UNL     1       2.112   7.832  19.061  0.00  0.00    +0.000 A 
ATOM      7  C   UNL     1       1.868   7.547  20.414  0.00  0.00    +0.000 A 
ATOM      8  C   UNL     1       1.158   8.448  21.208  0.00  0.00    +0.000 A 
ATOM      9  C   UNL     1       0.677   9.631  20.650  0.00  0.00    +0.000 A 
ATOM     10  C   UNL     1       0.914   9.914  19.305  0.00  0.00    +0.000 A 
ATOM     11 CL   UNL     1       0.315  11.374  18.620  0.00  0.00    +0.000 Cl
ATOM     12  C   UNL     1       1.631   9.026  18.512  0.00  0.00    +0.000 A 
ENDBRANCH   4   6
BRANCH   1  14
ATOM     13  C   UNL     1       3.971   2.674  17.722  0.00  0.00    +0.000 C 
ATOM     14  C   UNL     1       3.537   3.714  16.993  0.00  0.00    +0.000 C 
BRANCH  13  15
ATOM     15  C   UNL     1       4.143   2.782  19.182  0.00  0.00    +0.000 C 
ATOM     16  O   UNL     1       5.100   3.340  19.702  0.00  0.00    +0.000 OA
BRANCH  15  17
ATOM     17  O   UNL     1       3.109   2.214  19.840  0.00  0.00    +0.000 OA
BRANCH  17  19
ATOM     18  C   UNL     1       0.820   3.027  19.734  0.00  0.00    +0.000 C 
ATOM     19  C   UNL     1       2.190   3.187  20.384  0.00  0.00    +0.000 C 
ATOM     20  C   UNL     1       2.107   2.983  21.888  0.00  0.00    +0.000 C 
ENDBRANCH  17  19
ENDBRANCH  15  17
ENDBRANCH  13  15
ENDBRANCH   1  14
TORSDOF 5
ENDMDL
MODEL 8
REMARK VINA RESULT:      -7.5      3.056      4.353
REMARK  Name = 
REMARK  7 active torsions:
REMARK  status: ('A' for Active; 'I' for Inactive)
REMARK    1  A    between atoms: C_1  and  C_2
REMARK    2  A    between atoms: C_2  and  C_3
REMARK    3  A    between atoms: C_2  and  O_4
REMARK    4  A    between atoms: O_4  and  C_5
REMARK    5  A    between atoms: C_5  and  C_7
REMARK    6  A    between atoms: C_8  and  N_9
REMARK    7  A    between atoms: C_12  and  C_13
REMARK                            x       y       z     vdW  Elec       q    Type
REMARK                         _______ _______ _______ _____ _____    ______ ____
ROOT
ATOM      1  N   UNL     1       3.750   4.387  17.911  0.00  0.00    +0.000 N 
ATOM      2  C   UNL     1       4.729   4.914  18.738  0.00  0.00    +0.000 A 
ATOM      3  N   UNL     1       4.429   6.125  19.124  0.00  0.00    +0.000 NA
ATOM      4  C   UNL     1       3.240   6.353  18.493  0.00  0.00    +0.000 A 
ATOM      5  N   UNL     1       2.869   5.383  17.644  0.00  0.00    +0.000 NA
ENDROOT
BRANCH   4   6
ATOM      6  C   UNL     1       2.460   7.554  18.746  0.00  0.00    +0.000 A 
ATOM      7  C   UNL     1       2.279   8.505  17.730  0.00  0.00    +0.000 A 
ATOM      8  C   UNL     1       1.547   9.668  17.974  0.00  0.00    +0.000 A 
ATOM      9  C   UNL     1       1.005   9.890  19.239  0.00  0.00    +0.000 A 
ATOM     10  C   UNL     1       1.188   8.949  20.251  0.00  0.00    +0.000 A 
ATOM     11 CL   UNL     1       0.521   9.230  21.812  0.00  0.00    +0.000 Cl
ATOM     12  C   UNL     1       1.906   7.783  20.010  0.00  0.00    +0.000 A 
ENDBRANCH   4   6
BRANCH   1  14
ATOM     13  C   UNL     1       2.952   2.055  17.776  0.00  0.00    +0.000 C 
ATOM     14  C   UNL     1       3.692   3.098  17.368  0.00  0.00    +0.000 C 
BRANCH  13  15
ATOM     15  C   UNL     1       1.819   2.236  18.702  0.00  0.00    +0.000 C 
ATOM     16  O   UNL     1       0.660   2.338  18.326  0.00  0.00    +0.000 OA
BRANCH  15  17
ATOM     17  O   UNL     1       2.234   2.247  19.987  0.00  0.00    +0.000 OA
BRANCH  17  19
ATOM     18  C   UNL     1       1.281   2.265  22.224  0.00  0.00    +0.000 C 
ATOM     19  C   UNL     1       1.326   2.951  20.863  0.00  0.00    +0.000 C 
ATOM     20  C   UNL     1       1.800   4.389  20.993  0.00  0.00    +0.000 C 
ENDBRANCH  17  19
ENDBRANCH  15  17
ENDBRANCH  13  15
ENDBRANCH   1  14
TORSDOF 5
ENDMDL
MODEL 9
REMARK VINA RESULT:      -7.5      1.182      1.628
REMARK  Name = 
REMARK  7 active torsions:
REMARK  status: ('A' for Active; 'I' for Inactive)
REMARK    1  A    between atoms: C_1  and  C_2
REMARK    2  A    between atoms: C_2  and  C_3
REMARK    3  A    between atoms: C_2  and  O_4
REMARK    4  A    between atoms: O_4  and  C_5
REMARK    5  A    between atoms: C_5  and  C_7
REMARK    6  A    between atoms: C_8  and  N_9
REMARK    7  A    between atoms: C_12  and  C_13
REMARK                            x       y       z     vdW  Elec       q    Type
REMARK                         _______ _______ _______ _____ _____    ______ ____
ROOT
ATOM      1  N   UNL     1       4.511   4.570  16.654  0.00  0.00    +0.000 N 
ATOM      2  C   UNL     1       4.002   3.660  17.565  0.00  0.00    +0.000 A 
ATOM      3  N   UNL     1       3.315   4.253  18.504  0.00  0.00    +0.000 NA
ATOM      4  C   UNL     1       3.430   5.572  18.166  0.00  0.00    +0.000 A 
ATOM      5  N   UNL     1       4.258   5.810  17.138  0.00  0.00    +0.000 NA
ENDROOT
BRANCH   4   6
ATOM      6  C   UNL     1       2.698   6.608  18.877  0.00  0.00    +0.000 A 
ATOM      7  C   UNL     1       2.203   6.364  20.168  0.00  0.00    +0.000 A 
ATOM      8  C   UNL     1       1.484   7.349  20.846  0.00  0.00    +0.000 A 
ATOM      9  C   UNL     1       1.245   8.576  20.230  0.00  0.00    +0.000 A 
ATOM     10  C   UNL     1       1.730   8.819  18.946  0.00  0.00    +0.000 A 
ATOM     11 CL   UNL     1       1.428  10.334  18.188  0.00  0.00    +0.000 Cl
ATOM     12  C   UNL     1       2.458   7.846  18.271  0.00  0.00    +0.000 A 
ENDBRANCH   4   6
BRANCH   1  14
ATOM     13  C   UNL     1       6.513   4.580  15.209  0.00  0.00    +0.000 C 
ATOM     14  C   UNL     1       5.230   4.297  15.483  0.00  0.00    +0.000 C 
BRANCH  13  15
ATOM     15  C   UNL     1       7.459   4.952  16.277  0.00  0.00    +0.000 C 
ATOM     16  O   UNL     1       7.987   4.132  17.016  0.00  0.00    +0.000 OA
BRANCH  15  17
ATOM     17  O   UNL     1       7.670   6.286  16.301  0.00  0.00    +0.000 OA
BRANCH  17  19
ATOM     18  C   UNL     1       7.738   6.076  18.723  0.00  0.00    +0.000 C 
ATOM     19  C   UNL     1       7.240   6.897  17.538  0.00  0.00    +0.000 C 
ATOM     20  C   UNL     1       7.787   8.315  17.589  0.00  0.00    +0.000 C 
ENDBRANCH  17  19
ENDBRANCH  15  17
ENDBRANCH  13  15
ENDBRANCH   1  14
TORSDOF 5
ENDMDL
