MODEL 1
REMARK VINA RESULT:      -8.2      0.000      0.000
REMARK  Name = 
REMARK  17 active torsions:
REMARK  status: ('A' for Active; 'I' for Inactive)
REMARK    1  A    between atoms: C_1  and  O_2
REMARK    2  A    between atoms: O_2  and  C_3
REMARK    3  A    between atoms: C_10  and  C_11
REMARK    4  A    between atoms: C_10  and  C_12
REMARK    5  A    between atoms: C_14  and  C_15
REMARK    6  A    between atoms: C_15  and  C_16
REMARK    7  A    between atoms: C_16  and  C_17
REMARK    8  A    between atoms: C_17  and  C_18
REMARK    9  A    between atoms: C_18  and  C_19
REMARK   10  A    between atoms: C_19  and  C_20
REMARK   11  A    between atoms: C_20  and  C_21
REMARK   12  A    between atoms: C_21  and  C_22
REMARK   13  A    between atoms: C_22  and  C_23
REMARK   14  A    between atoms: C_25  and  C_26
REMARK   15  A    between atoms: C_25  and  C_27
REMARK   16  A    between atoms: C_31  and  O_32
REMARK   17  A    between atoms: O_32  and  C_33
REMARK                            x       y       z     vdW  Elec       q    Type
REMARK                         _______ _______ _______ _____ _____    ______ ____
ROOT
ATOM      1  C   UNL     1       2.233   9.683  17.812  0.00  0.00    +0.000 C 
ENDROOT
BRANCH   1   2
ATOM      2  C   UNL     1       1.714   8.276  18.135  0.00  0.00    +0.000 C 
BRANCH   2   3
ATOM      3  C   UNL     1       2.156   7.819  19.522  0.00  0.00    +0.000 C 
BRANCH   3   4
ATOM      4  C   UNL     1       2.663   6.380  19.475  0.00  0.00    +0.000 C 
BRANCH   4  16
ATOM      5  C   UNL     1       6.199   5.032  16.099  0.00  0.00    +0.000 A 
ATOM      6  C   UNL     1       5.756   6.326  16.367  0.00  0.00    +0.000 A 
ATOM      7  C   UNL     1       4.536   6.527  17.008  0.00  0.00    +0.000 A 
ATOM      8  C   UNL     1       3.738   5.438  17.400  0.00  0.00    +0.000 A 
ATOM      9  C   UNL     1       4.183   4.133  17.124  0.00  0.00    +0.000 A 
ATOM     10  C   UNL     1       5.390   3.947  16.449  0.00  0.00    +0.000 A 
ATOM     11  C   UNL     1       3.324   2.942  17.502  0.00  0.00    +0.000 C 
ATOM     12  C   UNL     1       2.297   3.261  18.618  0.00  0.00    +0.000 C 
ATOM     13  C   UNL     1       2.987   3.304  19.996  0.00  0.00    +0.000 C 
ATOM     14  C   UNL     1       1.222   2.164  18.698  0.00  0.00    +0.000 C 
ATOM     15  N   UNL     1       1.586   4.493  18.239  0.00  0.00    +0.000 NA
ATOM     16  C   UNL     1       2.427   5.685  18.127  0.00  0.00    +0.000 C 
ATOM     17  H   UNL     1       0.782   4.663  18.831  0.00  0.00    +0.000 HD
BRANCH   5  19
ATOM     18  C   UNL     1       7.321   4.806  14.042  0.00  0.00    +0.000 C 
ATOM     19  O   UNL     1       7.373   4.726  15.463  0.00  0.00    +0.000 OA
ENDBRANCH   5  19
ENDBRANCH   4  16
ENDBRANCH   3   4
ENDBRANCH   2   3
ENDBRANCH   1   2
BRANCH   1  20
ATOM     20  C   UNL     1       1.403  10.774  18.510  0.00  0.00    +0.000 C 
BRANCH  20  21
ATOM     21  C   UNL     1       1.969  12.174  18.261  0.00  0.00    +0.000 C 
BRANCH  21  22
ATOM     22  C   UNL     1       1.537  13.175  19.335  0.00  0.00    +0.000 C 
BRANCH  22  23
ATOM     23  C   UNL     1       0.109  12.986  19.872  0.00  0.00    +0.000 C 
BRANCH  23  24
ATOM     24  C   UNL     1       0.133  12.798  21.411  0.00  0.00    +0.000 C 
ATOM     25  N   UNL     1       0.800  11.543  21.811  0.00  0.00    +0.000 NA
ATOM     26  C   UNL     1      -0.079  10.380  22.057  0.00  0.00    +0.000 C 
ATOM     27  C   UNL     1      -0.740   9.799  20.796  0.00  0.00    +0.000 C 
ATOM     28  C   UNL     1       0.844   9.270  22.614  0.00  0.00    +0.000 C 
ATOM     29  C   UNL     1      -1.169  10.724  23.090  0.00  0.00    +0.000 C 
ATOM     30  C   UNL     1      -1.848  12.056  22.827  0.00  0.00    +0.000 A 
ATOM     31  C   UNL     1      -3.104  12.307  23.390  0.00  0.00    +0.000 A 
ATOM     32  C   UNL     1      -3.719  13.541  23.243  0.00  0.00    +0.000 A 
ATOM     33  C   UNL     1      -3.057  14.561  22.558  0.00  0.00    +0.000 A 
ATOM     34  C   UNL     1      -1.803  14.319  21.982  0.00  0.00    +0.000 A 
ATOM     35  C   UNL     1      -1.199  13.057  22.080  0.00  0.00    +0.000 A 
ATOM     36  H   UNL     1       1.289  11.744  22.684  0.00  0.00    +0.000 HD
BRANCH  32  37
ATOM     37  O   UNL     1      -4.956  13.885  23.720  0.00  0.00    +0.000 OA
ATOM     38  C   UNL     1      -5.806  12.806  24.102  0.00  0.00    +0.000 C 
ENDBRANCH  32  37
ENDBRANCH  23  24
ENDBRANCH  22  23
ENDBRANCH  21  22
ENDBRANCH  20  21
ENDBRANCH   1  20
TORSDOF 11
ENDMDL
MODEL 2
REMARK VINA RESULT:      -7.9      7.069      8.609
REMARK  Name = 
REMARK  17 active torsions:
REMARK  status: ('A' for Active; 'I' for Inactive)
REMARK    1  A    between atoms: C_1  and  O_2
REMARK    2  A    between atoms: O_2  and  C_3
REMARK    3  A    between atoms: C_10  and  C_11
REMARK    4  A    between atoms: C_10  and  C_12
REMARK    5  A    between atoms: C_14  and  C_15
REMARK    6  A    between atoms: C_15  and  C_16
REMARK    7  A    between atoms: C_16  and  C_17
REMARK    8  A    between atoms: C_17  and  C_18
REMARK    9  A    between atoms: C_18  and  C_19
REMARK   10  A    between atoms: C_19  and  C_20
REMARK   11  A    between atoms: C_20  and  C_21
REMARK   12  A    between atoms: C_21  and  C_22
REMARK   13  A    between atoms: C_22  and  C_23
REMARK   14  A    between atoms: C_25  and  C_26
REMARK   15  A    between atoms: C_25  and  C_27
REMARK   16  A    between atoms: C_31  and  O_32
REMARK   17  A    between atoms: O_32  and  C_33
REMARK                            x       y       z     vdW  Elec       q    Type
REMARK                         _______ _______ _______ _____ _____    ______ ____
ROOT
ATOM      1  C   UNL     1       7.860   7.965  17.842  0.00  0.00    +0.000 C 
ENDROOT
BRANCH   1   2
ATOM      2  C   UNL     1       8.576   7.223  18.978  0.00  0.00    +0.000 C 
BRANCH   2   3
ATOM      3  C   UNL     1       7.836   5.946  19.369  0.00  0.00    +0.000 C 
BRANCH   3   4
ATOM      4  C   UNL     1       6.578   5.775  18.521  0.00  0.00    +0.000 C 
BRANCH   4  16
ATOM      5  C   UNL     1       2.444   2.843  18.653  0.00  0.00    +0.000 A 
ATOM      6  C   UNL     1       3.304   3.114  19.715  0.00  0.00    +0.000 A 
ATOM      7  C   UNL     1       4.588   3.594  19.468  0.00  0.00    +0.000 A 
ATOM      8  C   UNL     1       5.034   3.819  18.154  0.00  0.00    +0.000 A 
ATOM      9  C   UNL     1       4.167   3.539  17.082  0.00  0.00    +0.000 A 
ATOM     10  C   UNL     1       2.896   3.024  17.344  0.00  0.00    +0.000 A 
ATOM     11  C   UNL     1       4.636   3.737  15.654  0.00  0.00    +0.000 C 
ATOM     12  C   UNL     1       5.829   4.719  15.535  0.00  0.00    +0.000 C 
ATOM     13  C   UNL     1       5.348   6.178  15.664  0.00  0.00    +0.000 C 
ATOM     14  C   UNL     1       6.499   4.597  14.156  0.00  0.00    +0.000 C 
ATOM     15  N   UNL     1       6.850   4.311  16.515  0.00  0.00    +0.000 NA
ATOM     16  C   UNL     1       6.428   4.374  17.914  0.00  0.00    +0.000 C 
ATOM     17  H   UNL     1       7.727   4.797  16.371  0.00  0.00    +0.000 HD
BRANCH   5  19
ATOM     18  C   UNL     1       0.432   2.903  19.873  0.00  0.00    +0.000 C 
ATOM     19  O   UNL     1       1.170   2.356  18.787  0.00  0.00    +0.000 OA
ENDBRANCH   5  19
ENDBRANCH   4  16
ENDBRANCH   3   4
ENDBRANCH   2   3
ENDBRANCH   1   2
BRANCH   1  20
ATOM     20  C   UNL     1       8.140   9.478  17.881  0.00  0.00    +0.000 C 
BRANCH  20  21
ATOM     21  C   UNL     1       9.076   9.859  19.030  0.00  0.00    +0.000 C 
BRANCH  21  22
ATOM     22  C   UNL     1      10.060  10.963  18.636  0.00  0.00    +0.000 C 
BRANCH  22  23
ATOM     23  C   UNL     1      10.415  11.955  19.756  0.00  0.00    +0.000 C 
BRANCH  23  24
ATOM     24  C   UNL     1       9.214  12.892  20.046  0.00  0.00    +0.000 C 
ATOM     25  N   UNL     1       9.323  14.180  19.332  0.00  0.00    +0.000 NA
ATOM     26  C   UNL     1       9.906  15.306  20.093  0.00  0.00    +0.000 C 
ATOM     27  C   UNL     1      11.410  15.172  20.384  0.00  0.00    +0.000 C 
ATOM     28  C   UNL     1       9.749  16.548  19.183  0.00  0.00    +0.000 C 
ATOM     29  C   UNL     1       9.149  15.525  21.417  0.00  0.00    +0.000 C 
ATOM     30  C   UNL     1       8.892  14.239  22.182  0.00  0.00    +0.000 A 
ATOM     31  C   UNL     1       8.615  14.302  23.551  0.00  0.00    +0.000 A 
ATOM     32  C   UNL     1       8.291  13.159  24.268  0.00  0.00    +0.000 A 
ATOM     33  C   UNL     1       8.200  11.935  23.604  0.00  0.00    +0.000 A 
ATOM     34  C   UNL     1       8.484  11.858  22.234  0.00  0.00    +0.000 A 
ATOM     35  C   UNL     1       8.864  13.000  21.515  0.00  0.00    +0.000 A 
ATOM     36  H   UNL     1       8.373  14.446  19.076  0.00  0.00    +0.000 HD
BRANCH  32  37
ATOM     37  O   UNL     1       8.036  13.099  25.612  0.00  0.00    +0.000 OA
ATOM     38  C   UNL     1       7.343  11.940  26.070  0.00  0.00    +0.000 C 
ENDBRANCH  32  37
ENDBRANCH  23  24
ENDBRANCH  22  23
ENDBRANCH  21  22
ENDBRANCH  20  21
ENDBRANCH   1  20
TORSDOF 11
ENDMDL
MODEL 3
REMARK VINA RESULT:      -7.7      2.165      3.657
REMARK  Name = 
REMARK  17 active torsions:
REMARK  status: ('A' for Active; 'I' for Inactive)
REMARK    1  A    between atoms: C_1  and  O_2
REMARK    2  A    between atoms: O_2  and  C_3
REMARK    3  A    between atoms: C_10  and  C_11
REMARK    4  A    between atoms: C_10  and  C_12
REMARK    5  A    between atoms: C_14  and  C_15
REMARK    6  A    between atoms: C_15  and  C_16
REMARK    7  A    between atoms: C_16  and  C_17
REMARK    8  A    between atoms: C_17  and  C_18
REMARK    9  A    between atoms: C_18  and  C_19
REMARK   10  A    between atoms: C_19  and  C_20
REMARK   11  A    between atoms: C_20  and  C_21
REMARK   12  A    between atoms: C_21  and  C_22
REMARK   13  A    between atoms: C_22  and  C_23
REMARK   14  A    between atoms: C_25  and  C_26
REMARK   15  A    between atoms: C_25  and  C_27
REMARK   16  A    between atoms: C_31  and  O_32
REMARK   17  A    between atoms: O_32  and  C_33
REMARK                            x       y       z     vdW  Elec       q    Type
REMARK                         _______ _______ _______ _____ _____    ______ ____
ROOT
ATOM      1  C   UNL     1       0.656   9.510  20.873  0.00  0.00    +0.000 C 
ENDROOT
BRANCH   1   2
ATOM      2  C   UNL     1       1.453   8.422  20.142  0.00  0.00    +0.000 C 
BRANCH   2   3
ATOM      3  C   UNL     1       1.540   7.139  20.964  0.00  0.00    +0.000 C 
BRANCH   3   4
ATOM      4  C   UNL     1       2.484   6.140  20.298  0.00  0.00    +0.000 C 
BRANCH   4  16
ATOM      5  C   UNL     1       5.345   5.799  16.127  0.00  0.00    +0.000 A 
ATOM      6  C   UNL     1       4.889   6.970  16.727  0.00  0.00    +0.000 A 
ATOM      7  C   UNL     1       3.812   6.928  17.609  0.00  0.00    +0.000 A 
ATOM      8  C   UNL     1       3.175   5.712  17.915  0.00  0.00    +0.000 A 
ATOM      9  C   UNL     1       3.633   4.531  17.303  0.00  0.00    +0.000 A 
ATOM     10  C   UNL     1       4.690   4.594  16.393  0.00  0.00    +0.000 A 
ATOM     11  C   UNL     1       2.940   3.212  17.585  0.00  0.00    +0.000 C 
ATOM     12  C   UNL     1       2.140   3.215  18.913  0.00  0.00    +0.000 C 
ATOM     13  C   UNL     1       3.089   3.068  20.119  0.00  0.00    +0.000 C 
ATOM     14  C   UNL     1       1.171   2.023  18.966  0.00  0.00    +0.000 C 
ATOM     15  N   UNL     1       1.296   4.421  18.928  0.00  0.00    +0.000 NA
ATOM     16  C   UNL     1       2.024   5.690  18.906  0.00  0.00    +0.000 C 
ATOM     17  H   UNL     1       0.617   4.398  19.681  0.00  0.00    +0.000 HD
BRANCH   5  19
ATOM     18  C   UNL     1       7.210   4.580  15.364  0.00  0.00    +0.000 C 
ATOM     19  O   UNL     1       6.384   5.733  15.236  0.00  0.00    +0.000 OA
ENDBRANCH   5  19
ENDBRANCH   4  16
ENDBRANCH   3   4
ENDBRANCH   2   3
ENDBRANCH   1   2
BRANCH   1  20
ATOM     20  C   UNL     1      -0.044   8.961  22.128  0.00  0.00    +0.000 C 
BRANCH  20  21
ATOM     21  C   UNL     1      -0.308  10.056  23.163  0.00  0.00    +0.000 C 
BRANCH  21  22
ATOM     22  C   UNL     1      -1.277  11.122  22.646  0.00  0.00    +0.000 C 
BRANCH  22  23
ATOM     23  C   UNL     1      -0.903  12.573  22.995  0.00  0.00    +0.000 C 
BRANCH  23  24
ATOM     24  C   UNL     1      -1.739  13.563  22.143  0.00  0.00    +0.000 C 
ATOM     25  N   UNL     1      -2.676  14.355  22.964  0.00  0.00    +0.000 NA
ATOM     26  C   UNL     1      -4.062  13.847  23.056  0.00  0.00    +0.000 C 
ATOM     27  C   UNL     1      -4.215  12.550  23.869  0.00  0.00    +0.000 C 
ATOM     28  C   UNL     1      -4.855  14.934  23.821  0.00  0.00    +0.000 C 
ATOM     29  C   UNL     1      -4.666  13.643  21.654  0.00  0.00    +0.000 C 
ATOM     30  C   UNL     1      -3.733  12.926  20.695  0.00  0.00    +0.000 A 
ATOM     31  C   UNL     1      -4.265  12.300  19.563  0.00  0.00    +0.000 A 
ATOM     32  C   UNL     1      -3.438  11.708  18.620  0.00  0.00    +0.000 A 
ATOM     33  C   UNL     1      -2.054  11.774  18.781  0.00  0.00    +0.000 A 
ATOM     34  C   UNL     1      -1.510  12.390  19.916  0.00  0.00    +0.000 A 
ATOM     35  C   UNL     1      -2.341  12.944  20.901  0.00  0.00    +0.000 A 
ATOM     36  H   UNL     1      -2.720  15.281  22.537  0.00  0.00    +0.000 HD
BRANCH  32  37
ATOM     37  O   UNL     1      -3.849  11.041  17.497  0.00  0.00    +0.000 OA
ATOM     38  C   UNL     1      -3.489   9.663  17.416  0.00  0.00    +0.000 C 
ENDBRANCH  32  37
ENDBRANCH  23  24
ENDBRANCH  22  23
ENDBRANCH  21  22
ENDBRANCH  20  21
ENDBRANCH   1  20
TORSDOF 11
ENDMDL
MODEL 4
REMARK VINA RESULT:      -7.7      2.353      4.073
REMARK  Name = 
REMARK  17 active torsions:
REMARK  status: ('A' for Active; 'I' for Inactive)
REMARK    1  A    between atoms: C_1  and  O_2
REMARK    2  A    between atoms: O_2  and  C_3
REMARK    3  A    between atoms: C_10  and  C_11
REMARK    4  A    between atoms: C_10  and  C_12
REMARK    5  A    between atoms: C_14  and  C_15
REMARK    6  A    between atoms: C_15  and  C_16
REMARK    7  A    between atoms: C_16  and  C_17
REMARK    8  A    between atoms: C_17  and  C_18
REMARK    9  A    between atoms: C_18  and  C_19
REMARK   10  A    between atoms: C_19  and  C_20
REMARK   11  A    between atoms: C_20  and  C_21
REMARK   12  A    between atoms: C_21  and  C_22
REMARK   13  A    between atoms: C_22  and  C_23
REMARK   14  A    between atoms: C_25  and  C_26
REMARK   15  A    between atoms: C_25  and  C_27
REMARK   16  A    between atoms: C_31  and  O_32
REMARK   17  A    between atoms: O_32  and  C_33
REMARK                            x       y       z     vdW  Elec       q    Type
REMARK                         _______ _______ _______ _____ _____    ______ ____
ROOT
ATOM      1  C   UNL     1       0.083   8.634  21.239  0.00  0.00    +0.000 C 
ENDROOT
BRANCH   1   2
ATOM      2  C   UNL     1       1.438   7.924  21.351  0.00  0.00    +0.000 C 
BRANCH   2   3
ATOM      3  C   UNL     1       1.428   6.576  20.636  0.00  0.00    +0.000 C 
BRANCH   3   4
ATOM      4  C   UNL     1       2.674   6.422  19.767  0.00  0.00    +0.000 C 
BRANCH   4  16
ATOM      5  C   UNL     1       6.066   5.519  16.109  0.00  0.00    +0.000 A 
ATOM      6  C   UNL     1       5.584   6.764  16.504  0.00  0.00    +0.000 A 
ATOM      7  C   UNL     1       4.395   6.855  17.224  0.00  0.00    +0.000 A 
ATOM      8  C   UNL     1       3.669   5.701  17.568  0.00  0.00    +0.000 A 
ATOM      9  C   UNL     1       4.154   4.445  17.162  0.00  0.00    +0.000 A 
ATOM     10  C   UNL     1       5.328   4.372  16.411  0.00  0.00    +0.000 A 
ATOM     11  C   UNL     1       3.371   3.188  17.487  0.00  0.00    +0.000 C 
ATOM     12  C   UNL     1       2.397   3.367  18.679  0.00  0.00    +0.000 C 
ATOM     13  C   UNL     1       3.162   3.334  20.017  0.00  0.00    +0.000 C 
ATOM     14  C   UNL     1       1.377   2.217  18.726  0.00  0.00    +0.000 C 
ATOM     15  N   UNL     1       1.612   4.590  18.440  0.00  0.00    +0.000 NA
ATOM     16  C   UNL     1       2.392   5.827  18.381  0.00  0.00    +0.000 C 
ATOM     17  H   UNL     1       0.836   4.673  19.087  0.00  0.00    +0.000 HD
BRANCH   5  19
ATOM     18  C   UNL     1       7.017   4.777  14.087  0.00  0.00    +0.000 C 
ATOM     19  O   UNL     1       7.215   5.321  15.387  0.00  0.00    +0.000 OA
ENDBRANCH   5  19
ENDBRANCH   4  16
ENDBRANCH   3   4
ENDBRANCH   2   3
ENDBRANCH   1   2
BRANCH   1  20
ATOM     20  C   UNL     1      -0.526   8.929  22.620  0.00  0.00    +0.000 C 
BRANCH  20  21
ATOM     21  C   UNL     1      -0.424  10.410  22.989  0.00  0.00    +0.000 C 
BRANCH  21  22
ATOM     22  C   UNL     1      -0.631  11.325  21.780  0.00  0.00    +0.000 C 
BRANCH  22  23
ATOM     23  C   UNL     1      -2.018  11.982  21.684  0.00  0.00    +0.000 C 
BRANCH  23  24
ATOM     24  C   UNL     1      -2.070  12.955  20.478  0.00  0.00    +0.000 C 
ATOM     25  N   UNL     1      -2.826  12.396  19.340  0.00  0.00    +0.000 NA
ATOM     26  C   UNL     1      -2.033  11.726  18.287  0.00  0.00    +0.000 C 
ATOM     27  C   UNL     1      -1.402  10.390  18.715  0.00  0.00    +0.000 C 
ATOM     28  C   UNL     1      -3.036  11.390  17.158  0.00  0.00    +0.000 C 
ATOM     29  C   UNL     1      -0.931  12.660  17.751  0.00  0.00    +0.000 C 
ATOM     30  C   UNL     1      -0.158  13.370  18.848  0.00  0.00    +0.000 A 
ATOM     31  C   UNL     1       1.107  13.895  18.564  0.00  0.00    +0.000 A 
ATOM     32  C   UNL     1       1.808  14.623  19.513  0.00  0.00    +0.000 A 
ATOM     33  C   UNL     1       1.226  14.870  20.757  0.00  0.00    +0.000 A 
ATOM     34  C   UNL     1      -0.037  14.341  21.057  0.00  0.00    +0.000 A 
ATOM     35  C   UNL     1      -0.728  13.559  20.121  0.00  0.00    +0.000 A 
ATOM     36  H   UNL     1      -3.308  13.182  18.902  0.00  0.00    +0.000 HD
BRANCH  32  37
ATOM     37  O   UNL     1       3.061  15.152  19.357  0.00  0.00    +0.000 OA
ATOM     38  C   UNL     1       3.946  14.433  18.500  0.00  0.00    +0.000 C 
ENDBRANCH  32  37
ENDBRANCH  23  24
ENDBRANCH  22  23
ENDBRANCH  21  22
ENDBRANCH  20  21
ENDBRANCH   1  20
TORSDOF 11
ENDMDL
MODEL 5
REMARK VINA RESULT:      -7.7      2.305      2.973
REMARK  Name = 
REMARK  17 active torsions:
REMARK  status: ('A' for Active; 'I' for Inactive)
REMARK    1  A    between atoms: C_1  and  O_2
REMARK    2  A    between atoms: O_2  and  C_3
REMARK    3  A    between atoms: C_10  and  C_11
REMARK    4  A    between atoms: C_10  and  C_12
REMARK    5  A    between atoms: C_14  and  C_15
REMARK    6  A    between atoms: C_15  and  C_16
REMARK    7  A    between atoms: C_16  and  C_17
REMARK    8  A    between atoms: C_17  and  C_18
REMARK    9  A    between atoms: C_18  and  C_19
REMARK   10  A    between atoms: C_19  and  C_20
REMARK   11  A    between atoms: C_20  and  C_21
REMARK   12  A    between atoms: C_21  and  C_22
REMARK   13  A    between atoms: C_22  and  C_23
REMARK   14  A    between atoms: C_25  and  C_26
REMARK   15  A    between atoms: C_25  and  C_27
REMARK   16  A    between atoms: C_31  and  O_32
REMARK   17  A    between atoms: O_32  and  C_33
REMARK                            x       y       z     vdW  Elec       q    Type
REMARK                         _______ _______ _______ _____ _____    ______ ____
ROOT
ATOM      1  C   UNL     1       2.173   9.363  17.859  0.00  0.00    +0.000 C 
ENDROOT
BRANCH   1   2
ATOM      2  C   UNL     1       1.402   8.186  18.471  0.00  0.00    +0.000 C 
BRANCH   2   3
ATOM      3  C   UNL     1       2.026   7.729  19.787  0.00  0.00    +0.000 C 
BRANCH   3   4
ATOM      4  C   UNL     1       2.708   6.374  19.614  0.00  0.00    +0.000 C 
BRANCH   4  16
ATOM      5  C   UNL     1       6.160   5.211  16.087  0.00  0.00    +0.000 A 
ATOM      6  C   UNL     1       5.700   6.486  16.410  0.00  0.00    +0.000 A 
ATOM      7  C   UNL     1       4.497   6.640  17.096  0.00  0.00    +0.000 A 
ATOM      8  C   UNL     1       3.734   5.523  17.477  0.00  0.00    +0.000 A 
ATOM      9  C   UNL     1       4.197   4.237  17.144  0.00  0.00    +0.000 A 
ATOM     10  C   UNL     1       5.385   4.099  16.426  0.00  0.00    +0.000 A 
ATOM     11  C   UNL     1       3.375   3.016  17.510  0.00  0.00    +0.000 C 
ATOM     12  C   UNL     1       2.377   3.277  18.668  0.00  0.00    +0.000 C 
ATOM     13  C   UNL     1       3.110   3.291  20.024  0.00  0.00    +0.000 C 
ATOM     14  C   UNL     1       1.328   2.156  18.745  0.00  0.00    +0.000 C 
ATOM     15  N   UNL     1       1.630   4.506  18.352  0.00  0.00    +0.000 NA
ATOM     16  C   UNL     1       2.442   5.719  18.252  0.00  0.00    +0.000 C 
ATOM     17  H   UNL     1       0.842   4.640  18.974  0.00  0.00    +0.000 HD
BRANCH   5  19
ATOM     18  C   UNL     1       7.151   4.718  14.009  0.00  0.00    +0.000 C 
ATOM     19  O   UNL     1       7.319   4.951  15.404  0.00  0.00    +0.000 OA
ENDBRANCH   5  19
ENDBRANCH   4  16
ENDBRANCH   3   4
ENDBRANCH   2   3
ENDBRANCH   1   2
BRANCH   1  20
ATOM     20  C   UNL     1       1.612  10.718  18.323  0.00  0.00    +0.000 C 
BRANCH  20  21
ATOM     21  C   UNL     1       0.120  10.640  18.651  0.00  0.00    +0.000 C 
BRANCH  21  22
ATOM     22  C   UNL     1      -0.482  12.014  18.953  0.00  0.00    +0.000 C 
BRANCH  22  23
ATOM     23  C   UNL     1      -1.078  12.174  20.362  0.00  0.00    +0.000 C 
BRANCH  23  24
ATOM     24  C   UNL     1      -2.207  13.237  20.350  0.00  0.00    +0.000 C 
ATOM     25  N   UNL     1      -2.110  14.170  21.491  0.00  0.00    +0.000 NA
ATOM     26  C   UNL     1      -2.934  13.849  22.676  0.00  0.00    +0.000 C 
ATOM     27  C   UNL     1      -2.472  12.609  23.460  0.00  0.00    +0.000 C 
ATOM     28  C   UNL     1      -2.774  15.053  23.634  0.00  0.00    +0.000 C 
ATOM     29  C   UNL     1      -4.415  13.681  22.285  0.00  0.00    +0.000 C 
ATOM     30  C   UNL     1      -4.618  12.819  21.052  0.00  0.00    +0.000 A 
ATOM     31  C   UNL     1      -5.867  12.232  20.826  0.00  0.00    +0.000 A 
ATOM     32  C   UNL     1      -6.118  11.508  19.670  0.00  0.00    +0.000 A 
ATOM     33  C   UNL     1      -5.122  11.398  18.699  0.00  0.00    +0.000 A 
ATOM     34  C   UNL     1      -3.863  11.974  18.918  0.00  0.00    +0.000 A 
ATOM     35  C   UNL     1      -3.586  12.662  20.109  0.00  0.00    +0.000 A 
ATOM     36  H   UNL     1      -2.417  15.079  21.145  0.00  0.00    +0.000 HD
BRANCH  32  37
ATOM     37  O   UNL     1      -7.286  10.864  19.362  0.00  0.00    +0.000 OA
ATOM     38  C   UNL     1      -7.252   9.439  19.409  0.00  0.00    +0.000 C 
ENDBRANCH  32  37
ENDBRANCH  23  24
ENDBRANCH  22  23
ENDBRANCH  21  22
ENDBRANCH  20  21
ENDBRANCH   1  20
TORSDOF 11
ENDMDL
MODEL 6
REMARK VINA RESULT:      -7.6      2.389     11.313
REMARK  Name = 
REMARK  17 active torsions:
REMARK  status: ('A' for Active; 'I' for Inactive)
REMARK    1  A    between atoms: C_1  and  O_2
REMARK    2  A    between atoms: O_2  and  C_3
REMARK    3  A    between atoms: C_10  and  C_11
REMARK    4  A    between atoms: C_10  and  C_12
REMARK    5  A    between atoms: C_14  and  C_15
REMARK    6  A    between atoms: C_15  and  C_16
REMARK    7  A    between atoms: C_16  and  C_17
REMARK    8  A    between atoms: C_17  and  C_18
REMARK    9  A    between atoms: C_18  and  C_19
REMARK   10  A    between atoms: C_19  and  C_20
REMARK   11  A    between atoms: C_20  and  C_21
REMARK   12  A    between atoms: C_21  and  C_22
REMARK   13  A    between atoms: C_22  and  C_23
REMARK   14  A    between atoms: C_25  and  C_26
REMARK   15  A    between atoms: C_25  and  C_27
REMARK   16  A    between atoms: C_31  and  O_32
REMARK   17  A    between atoms: O_32  and  C_33
REMARK                            x       y       z     vdW  Elec       q    Type
REMARK                         _______ _______ _______ _____ _____    ______ ____
ROOT
ATOM      1  C   UNL     1      -0.178   8.878  21.867  0.00  0.00    +0.000 C 
ENDROOT
BRANCH   1   2
ATOM      2  C   UNL     1       0.163  10.161  22.634  0.00  0.00    +0.000 C 
BRANCH   2   3
ATOM      3  C   UNL     1      -0.003  11.401  21.759  0.00  0.00    +0.000 C 
BRANCH   3   4
ATOM      4  C   UNL     1      -1.275  11.296  20.919  0.00  0.00    +0.000 C 
BRANCH   4  16
ATOM      5  C   UNL     1      -5.829  12.115  18.846  0.00  0.00    +0.000 A 
ATOM      6  C   UNL     1      -4.709  11.587  18.208  0.00  0.00    +0.000 A 
ATOM      7  C   UNL     1      -3.441  11.777  18.754  0.00  0.00    +0.000 A 
ATOM      8  C   UNL     1      -3.270  12.491  19.952  0.00  0.00    +0.000 A 
ATOM      9  C   UNL     1      -4.401  13.028  20.592  0.00  0.00    +0.000 A 
ATOM     10  C   UNL     1      -5.661  12.862  20.015  0.00  0.00    +0.000 A 
ATOM     11  C   UNL     1      -4.241  13.836  21.866  0.00  0.00    +0.000 C 
ATOM     12  C   UNL     1      -2.914  13.542  22.611  0.00  0.00    +0.000 C 
ATOM     13  C   UNL     1      -3.003  12.205  23.373  0.00  0.00    +0.000 C 
ATOM     14  C   UNL     1      -2.627  14.629  23.660  0.00  0.00    +0.000 C 
ATOM     15  N   UNL     1      -1.818  13.629  21.632  0.00  0.00    +0.000 NA
ATOM     16  C   UNL     1      -1.880  12.655  20.542  0.00  0.00    +0.000 C 
ATOM     17  H   UNL     1      -0.909  13.623  22.081  0.00  0.00    +0.000 HD
BRANCH   5  19
ATOM     18  C   UNL     1      -7.756  13.234  18.088  0.00  0.00    +0.000 C 
ATOM     19  O   UNL     1      -7.115  11.999  18.387  0.00  0.00    +0.000 OA
ENDBRANCH   5  19
ENDBRANCH   4  16
ENDBRANCH   3   4
ENDBRANCH   2   3
ENDBRANCH   1   2
BRANCH   1  20
ATOM     20  C   UNL     1       1.066   8.258  21.205  0.00  0.00    +0.000 C 
BRANCH  20  21
ATOM     21  C   UNL     1       1.228   8.711  19.753  0.00  0.00    +0.000 C 
BRANCH  21  22
ATOM     22  C   UNL     1       2.401   8.018  19.055  0.00  0.00    +0.000 C 
BRANCH  22  23
ATOM     23  C   UNL     1       2.590   6.533  19.409  0.00  0.00    +0.000 C 
BRANCH  23  24
ATOM     24  C   UNL     1       2.397   5.651  18.148  0.00  0.00    +0.000 C 
ATOM     25  N   UNL     1       1.549   4.472  18.414  0.00  0.00    +0.000 NA
ATOM     26  C   UNL     1       2.254   3.212  18.731  0.00  0.00    +0.000 C 
ATOM     27  C   UNL     1       2.956   3.199  20.100  0.00  0.00    +0.000 C 
ATOM     28  C   UNL     1       1.155   2.125  18.797  0.00  0.00    +0.000 C 
ATOM     29  C   UNL     1       3.275   2.862  17.632  0.00  0.00    +0.000 C 
ATOM     30  C   UNL     1       4.132   4.042  17.210  0.00  0.00    +0.000 A 
ATOM     31  C   UNL     1       5.350   3.806  16.563  0.00  0.00    +0.000 A 
ATOM     32  C   UNL     1       6.120   4.856  16.086  0.00  0.00    +0.000 A 
ATOM     33  C   UNL     1       5.655   6.165  16.217  0.00  0.00    +0.000 A 
ATOM     34  C   UNL     1       4.441   6.414  16.871  0.00  0.00    +0.000 A 
ATOM     35  C   UNL     1       3.682   5.361  17.403  0.00  0.00    +0.000 A 
ATOM     36  H   UNL     1       1.008   4.312  17.564  0.00  0.00    +0.000 HD
BRANCH  32  37
ATOM     37  O   UNL     1       7.339   4.744  15.472  0.00  0.00    +0.000 OA
ATOM     38  C   UNL     1       7.328   4.737  14.046  0.00  0.00    +0.000 C 
ENDBRANCH  32  37
ENDBRANCH  23  24
ENDBRANCH  22  23
ENDBRANCH  21  22
ENDBRANCH  20  21
ENDBRANCH   1  20
TORSDOF 11
ENDMDL
MODEL 7
REMARK VINA RESULT:      -7.6      2.262      2.805
REMARK  Name = 
REMARK  17 active torsions:
REMARK  status: ('A' for Active; 'I' for Inactive)
REMARK    1  A    between atoms: C_1  and  O_2
REMARK    2  A    between atoms: O_2  and  C_3
REMARK    3  A    between atoms: C_10  and  C_11
REMARK    4  A    between atoms: C_10  and  C_12
REMARK    5  A    between atoms: C_14  and  C_15
REMARK    6  A    between atoms: C_15  and  C_16
REMARK    7  A    between atoms: C_16  and  C_17
REMARK    8  A    between atoms: C_17  and  C_18
REMARK    9  A    between atoms: C_18  and  C_19
REMARK   10  A    between atoms: C_19  and  C_20
REMARK   11  A    between atoms: C_20  and  C_21
REMARK   12  A    between atoms: C_21  and  C_22
REMARK   13  A    between atoms: C_22  and  C_23
REMARK   14  A    between atoms: C_25  and  C_26
REMARK   15  A    between atoms: C_25  and  C_27
REMARK   16  A    between atoms: C_31  and  O_32
REMARK   17  A    between atoms: O_32  and  C_33
REMARK                            x       y       z     vdW  Elec       q    Type
REMARK                         _______ _______ _______ _____ _____    ______ ____
ROOT
ATOM      1  C   UNL     1       2.107   8.410  18.801  0.00  0.00    +0.000 C 
ENDROOT
BRANCH   1   2
ATOM      2  C   UNL     1       1.591   8.076  20.206  0.00  0.00    +0.000 C 
BRANCH   2   3
ATOM      3  C   UNL     1       1.854   6.617  20.570  0.00  0.00    +0.000 C 
BRANCH   3   4
ATOM      4  C   UNL     1       2.950   6.034  19.681  0.00  0.00    +0.000 C 
BRANCH   4  16
ATOM      5  C   UNL     1       5.733   4.452  15.749  0.00  0.00    +0.000 A 
ATOM      6  C   UNL     1       5.487   5.774  16.114  0.00  0.00    +0.000 A 
ATOM      7  C   UNL     1       4.414   6.079  16.948  0.00  0.00    +0.000 A 
ATOM      8  C   UNL     1       3.570   5.068  17.440  0.00  0.00    +0.000 A 
ATOM      9  C   UNL     1       3.816   3.734  17.065  0.00  0.00    +0.000 A 
ATOM     10  C   UNL     1       4.872   3.447  16.199  0.00  0.00    +0.000 A 
ATOM     11  C   UNL     1       2.899   2.628  17.549  0.00  0.00    +0.000 C 
ATOM     12  C   UNL     1       2.103   3.010  18.824  0.00  0.00    +0.000 C 
ATOM     13  C   UNL     1       3.003   2.922  20.073  0.00  0.00    +0.000 C 
ATOM     14  C   UNL     1       0.938   2.034  19.051  0.00  0.00    +0.000 C 
ATOM     15  N   UNL     1       1.485   4.327  18.593  0.00  0.00    +0.000 NA
ATOM     16  C   UNL     1       2.427   5.425  18.374  0.00  0.00    +0.000 C 
ATOM     17  H   UNL     1       0.809   4.558  19.311  0.00  0.00    +0.000 HD
BRANCH   5  19
ATOM     18  C   UNL     1       7.300   5.074  14.106  0.00  0.00    +0.000 C 
ATOM     19  O   UNL     1       6.749   4.047  14.924  0.00  0.00    +0.000 OA
ENDBRANCH   5  19
ENDBRANCH   4  16
ENDBRANCH   3   4
ENDBRANCH   2   3
ENDBRANCH   1   2
BRANCH   1  20
ATOM     20  C   UNL     1       1.280   9.525  18.137  0.00  0.00    +0.000 C 
BRANCH  20  21
ATOM     21  C   UNL     1       2.095  10.805  17.941  0.00  0.00    +0.000 C 
BRANCH  21  22
ATOM     22  C   UNL     1       1.727  11.889  18.957  0.00  0.00    +0.000 C 
BRANCH  22  23
ATOM     23  C   UNL     1       0.551  11.545  19.886  0.00  0.00    +0.000 C 
BRANCH  23  24
ATOM     24  C   UNL     1      -0.453  12.726  19.941  0.00  0.00    +0.000 C 
ATOM     25  N   UNL     1      -0.436  13.415  21.246  0.00  0.00    +0.000 NA
ATOM     26  C   UNL     1      -1.455  12.990  22.229  0.00  0.00    +0.000 C 
ATOM     27  C   UNL     1      -1.240  11.580  22.805  0.00  0.00    +0.000 C 
ATOM     28  C   UNL     1      -1.322  13.970  23.419  0.00  0.00    +0.000 C 
ATOM     29  C   UNL     1      -2.871  13.083  21.627  0.00  0.00    +0.000 C 
ATOM     30  C   UNL     1      -2.971  12.492  20.233  0.00  0.00    +0.000 A 
ATOM     31  C   UNL     1      -4.225  12.118  19.737  0.00  0.00    +0.000 A 
ATOM     32  C   UNL     1      -4.369  11.654  18.438  0.00  0.00    +0.000 A 
ATOM     33  C   UNL     1      -3.255  11.599  17.600  0.00  0.00    +0.000 A 
ATOM     34  C   UNL     1      -1.993  11.963  18.088  0.00  0.00    +0.000 A 
ATOM     35  C   UNL     1      -1.830  12.382  19.416  0.00  0.00    +0.000 A 
ATOM     36  H   UNL     1      -0.597  14.404  21.051  0.00  0.00    +0.000 HD
BRANCH  32  37
ATOM     37  O   UNL     1      -5.537  11.229  17.862  0.00  0.00    +0.000 OA
ATOM     38  C   UNL     1      -6.435  12.249  17.431  0.00  0.00    +0.000 C 
ENDBRANCH  32  37
ENDBRANCH  23  24
ENDBRANCH  22  23
ENDBRANCH  21  22
ENDBRANCH  20  21
ENDBRANCH   1  20
TORSDOF 11
ENDMDL
MODEL 8
REMARK VINA RESULT:      -7.5      2.042      3.323
REMARK  Name = 
REMARK  17 active torsions:
REMARK  status: ('A' for Active; 'I' for Inactive)
REMARK    1  A    between atoms: C_1  and  O_2
REMARK    2  A    between atoms: O_2  and  C_3
REMARK    3  A    between atoms: C_10  and  C_11
REMARK    4  A    between atoms: C_10  and  C_12
REMARK    5  A    between atoms: C_14  and  C_15
REMARK    6  A    between atoms: C_15  and  C_16
REMARK    7  A    between atoms: C_16  and  C_17
REMARK    8  A    between atoms: C_17  and  C_18
REMARK    9  A    between atoms: C_18  and  C_19
REMARK   10  A    between atoms: C_19  and  C_20
REMARK   11  A    between atoms: C_20  and  C_21
REMARK   12  A    between atoms: C_21  and  C_22
REMARK   13  A    between atoms: C_22  and  C_23
REMARK   14  A    between atoms: C_25  and  C_26
REMARK   15  A    between atoms: C_25  and  C_27
REMARK   16  A    between atoms: C_31  and  O_32
REMARK   17  A    between atoms: O_32  and  C_33
REMARK                            x       y       z     vdW  Elec       q    Type
REMARK                         _______ _______ _______ _____ _____    ______ ____
ROOT
ATOM      1  C   UNL     1       1.833   9.892  18.181  0.00  0.00    +0.000 C 
ENDROOT
BRANCH   1   2
ATOM      2  C   UNL     1       1.766   8.360  18.173  0.00  0.00    +0.000 C 
BRANCH   2   3
ATOM      3  C   UNL     1       2.041   7.777  19.556  0.00  0.00    +0.000 C 
BRANCH   3   4
ATOM      4  C   UNL     1       2.776   6.444  19.439  0.00  0.00    +0.000 C 
BRANCH   4  16
ATOM      5  C   UNL     1       6.222   5.045  15.993  0.00  0.00    +0.000 A 
ATOM      6  C   UNL     1       5.768   6.339  16.235  0.00  0.00    +0.000 A 
ATOM      7  C   UNL     1       4.566   6.542  16.909  0.00  0.00    +0.000 A 
ATOM      8  C   UNL     1       3.798   5.454  17.360  0.00  0.00    +0.000 A 
ATOM      9  C   UNL     1       4.255   4.148  17.110  0.00  0.00    +0.000 A 
ATOM     10  C   UNL     1       5.443   3.959  16.402  0.00  0.00    +0.000 A 
ATOM     11  C   UNL     1       3.428   2.956  17.552  0.00  0.00    +0.000 C 
ATOM     12  C   UNL     1       2.432   3.294  18.691  0.00  0.00    +0.000 C 
ATOM     13  C   UNL     1       3.166   3.391  20.044  0.00  0.00    +0.000 C 
ATOM     14  C   UNL     1       1.378   2.185  18.840  0.00  0.00    +0.000 C 
ATOM     15  N   UNL     1       1.690   4.504  18.298  0.00  0.00    +0.000 NA
ATOM     16  C   UNL     1       2.507   5.704  18.121  0.00  0.00    +0.000 C 
ATOM     17  H   UNL     1       0.902   4.680  18.910  0.00  0.00    +0.000 HD
BRANCH   5  19
ATOM     18  C   UNL     1       7.285   4.786  13.908  0.00  0.00    +0.000 C 
ATOM     19  O   UNL     1       7.380   4.737  15.328  0.00  0.00    +0.000 OA
ENDBRANCH   5  19
ENDBRANCH   4  16
ENDBRANCH   3   4
ENDBRANCH   2   3
ENDBRANCH   1   2
BRANCH   1  20
ATOM     20  C   UNL     1       1.061  10.493  19.369  0.00  0.00    +0.000 C 
BRANCH  20  21
ATOM     21  C   UNL     1      -0.441  10.584  19.090  0.00  0.00    +0.000 C 
BRANCH  21  22
ATOM     22  C   UNL     1      -0.844  11.947  18.522  0.00  0.00    +0.000 C 
BRANCH  22  23
ATOM     23  C   UNL     1       0.034  13.129  18.965  0.00  0.00    +0.000 C 
BRANCH  23  24
ATOM     24  C   UNL     1      -0.852  14.326  19.395  0.00  0.00    +0.000 C 
ATOM     25  N   UNL     1      -0.606  15.528  18.574  0.00  0.00    +0.000 NA
ATOM     26  C   UNL     1       0.346  16.517  19.123  0.00  0.00    +0.000 C 
ATOM     27  C   UNL     1       1.812  16.051  19.144  0.00  0.00    +0.000 C 
ATOM     28  C   UNL     1       0.291  17.729  18.163  0.00  0.00    +0.000 C 
ATOM     29  C   UNL     1      -0.070  16.951  20.542  0.00  0.00    +0.000 C 
ATOM     30  C   UNL     1      -0.448  15.787  21.440  0.00  0.00    +0.000 A 
ATOM     31  C   UNL     1      -0.430  15.960  22.828  0.00  0.00    +0.000 A 
ATOM     32  C   UNL     1      -0.850  14.949  23.679  0.00  0.00    +0.000 A 
ATOM     33  C   UNL     1      -1.335  13.755  23.142  0.00  0.00    +0.000 A 
ATOM     34  C   UNL     1      -1.348  13.567  21.754  0.00  0.00    +0.000 A 
ATOM     35  C   UNL     1      -0.876  14.565  20.889  0.00  0.00    +0.000 A 
ATOM     36  H   UNL     1      -1.507  15.997  18.475  0.00  0.00    +0.000 HD
BRANCH  32  37
ATOM     37  O   UNL     1      -0.843  14.996  25.048  0.00  0.00    +0.000 OA
ATOM     38  C   UNL     1      -1.486  16.121  25.643  0.00  0.00    +0.000 C 
ENDBRANCH  32  37
ENDBRANCH  23  24
ENDBRANCH  22  23
ENDBRANCH  21  22
ENDBRANCH  20  21
ENDBRANCH   1  20
TORSDOF 11
ENDMDL
MODEL 9
REMARK VINA RESULT:      -7.5      2.081     11.497
REMARK  Name = 
REMARK  17 active torsions:
REMARK  status: ('A' for Active; 'I' for Inactive)
REMARK    1  A    between atoms: C_1  and  O_2
REMARK    2  A    between atoms: O_2  and  C_3
REMARK    3  A    between atoms: C_10  and  C_11
REMARK    4  A    between atoms: C_10  and  C_12
REMARK    5  A    between atoms: C_14  and  C_15
REMARK    6  A    between atoms: C_15  and  C_16
REMARK    7  A    between atoms: C_16  and  C_17
REMARK    8  A    between atoms: C_17  and  C_18
REMARK    9  A    between atoms: C_18  and  C_19
REMARK   10  A    between atoms: C_19  and  C_20
REMARK   11  A    between atoms: C_20  and  C_21
REMARK   12  A    between atoms: C_21  and  C_22
REMARK   13  A    between atoms: C_22  and  C_23
REMARK   14  A    between atoms: C_25  and  C_26
REMARK   15  A    between atoms: C_25  and  C_27
REMARK   16  A    between atoms: C_31  and  O_32
REMARK   17  A    between atoms: O_32  and  C_33
REMARK                            x       y       z     vdW  Elec       q    Type
REMARK                         _______ _______ _______ _____ _____    ______ ____
ROOT
ATOM      1  C   UNL     1       0.978   9.867  19.858  0.00  0.00    +0.000 C 
ENDROOT
BRANCH   1   2
ATOM      2  C   UNL     1      -0.098  10.202  18.818  0.00  0.00    +0.000 C 
BRANCH   2   3
ATOM      3  C   UNL     1      -0.531  11.663  18.907  0.00  0.00    +0.000 C 
BRANCH   3   4
ATOM      4  C   UNL     1      -1.244  11.930  20.231  0.00  0.00    +0.000 C 
BRANCH   4  16
ATOM      5  C   UNL     1      -6.305  12.116  20.475  0.00  0.00    +0.000 A 
ATOM      6  C   UNL     1      -5.541  11.720  19.380  0.00  0.00    +0.000 A 
ATOM      7  C   UNL     1      -4.198  12.081  19.300  0.00  0.00    +0.000 A 
ATOM      8  C   UNL     1      -3.591  12.839  20.316  0.00  0.00    +0.000 A 
ATOM      9  C   UNL     1      -4.366  13.244  21.418  0.00  0.00    +0.000 A 
ATOM     10  C   UNL     1      -5.719  12.906  21.468  0.00  0.00    +0.000 A 
ATOM     11  C   UNL     1      -3.747  14.095  22.510  0.00  0.00    +0.000 C 
ATOM     12  C   UNL     1      -2.201  13.989  22.563  0.00  0.00    +0.000 C 
ATOM     13  C   UNL     1      -1.769  12.670  23.233  0.00  0.00    +0.000 C 
ATOM     14  C   UNL     1      -1.606  15.128  23.407  0.00  0.00    +0.000 C 
ATOM     15  N   UNL     1      -1.688  14.191  21.197  0.00  0.00    +0.000 NA
ATOM     16  C   UNL     1      -2.117  13.192  20.219  0.00  0.00    +0.000 C 
ATOM     17  H   UNL     1      -0.682  14.312  21.186  0.00  0.00    +0.000 HD
BRANCH   5  19
ATOM     18  C   UNL     1      -7.916  10.463  20.938  0.00  0.00    +0.000 C 
ATOM     19  O   UNL     1      -7.634  11.827  20.644  0.00  0.00    +0.000 OA
ENDBRANCH   5  19
ENDBRANCH   4  16
ENDBRANCH   3   4
ENDBRANCH   2   3
ENDBRANCH   1   2
BRANCH   1  20
ATOM     20  C   UNL     1       0.476   8.845  20.893  0.00  0.00    +0.000 C 
BRANCH  20  21
ATOM     21  C   UNL     1       1.574   7.865  21.310  0.00  0.00    +0.000 C 
BRANCH  21  22
ATOM     22  C   UNL     1       1.647   6.647  20.386  0.00  0.00    +0.000 C 
BRANCH  22  23
ATOM     23  C   UNL     1       2.868   6.604  19.452  0.00  0.00    +0.000 C 
BRANCH  23  24
ATOM     24  C   UNL     1       2.545   5.775  18.182  0.00  0.00    +0.000 C 
ATOM     25  N   UNL     1       1.609   4.667  18.460  0.00  0.00    +0.000 NA
ATOM     26  C   UNL     1       2.214   3.343  18.717  0.00  0.00    +0.000 C 
ATOM     27  C   UNL     1       2.971   3.233  20.051  0.00  0.00    +0.000 C 
ATOM     28  C   UNL     1       1.028   2.353  18.808  0.00  0.00    +0.000 C 
ATOM     29  C   UNL     1       3.152   2.935  17.565  0.00  0.00    +0.000 C 
ATOM     30  C   UNL     1       4.090   4.047  17.130  0.00  0.00    +0.000 A 
ATOM     31  C   UNL     1       5.253   3.724  16.424  0.00  0.00    +0.000 A 
ATOM     32  C   UNL     1       6.091   4.715  15.936  0.00  0.00    +0.000 A 
ATOM     33  C   UNL     1       5.748   6.055  16.117  0.00  0.00    +0.000 A 
ATOM     34  C   UNL     1       4.590   6.392  16.831  0.00  0.00    +0.000 A 
ATOM     35  C   UNL     1       3.766   5.394  17.373  0.00  0.00    +0.000 A 
ATOM     36  H   UNL     1       1.019   4.576  17.632  0.00  0.00    +0.000 HD
BRANCH  32  37
ATOM     37  O   UNL     1       7.268   4.515  15.265  0.00  0.00    +0.000 OA
ATOM     38  C   UNL     1       7.367   5.114  13.975  0.00  0.00    +0.000 C 
ENDBRANCH  32  37
ENDBRANCH  23  24
ENDBRANCH  22  23
ENDBRANCH  21  22
ENDBRANCH  20  21
ENDBRANCH   1  20
TORSDOF 11
ENDMDL
