MODEL 1
REMARK VINA RESULT:      -7.2      0.000      0.000
REMARK  Name = 
REMARK  4 active torsions:
REMARK  status: ('A' for Active; 'I' for Inactive)
REMARK    1  A    between atoms: C_1  and  C_2
REMARK    2  A    between atoms: C_2  and  N_3
REMARK    3  A    between atoms: N_6  and  C_7
REMARK    4  A    between atoms: C_7  and  C_8
REMARK                            x       y       z     vdW  Elec       q    Type
REMARK                         _______ _______ _______ _____ _____    ______ ____
ROOT
ATOM      1  C   UNL     1       8.473   9.093  18.496  0.00  0.00    +0.000 C 
ATOM      2  O   UNL     1       7.817   9.512  17.538  0.00  0.00    +0.000 OA
ATOM      3  N   UNL     1       8.516   7.778  18.904  0.00  0.00    +0.000 N 
ATOM      4  C   UNL     1       7.781   6.843  18.240  0.00  0.00    +0.000 A 
ATOM      5  N   UNL     1       7.160   5.831  18.802  0.00  0.00    +0.000 NA
ATOM      6  C   UNL     1       6.437   5.254  17.783  0.00  0.00    +0.000 A 
ATOM      7  C   UNL     1       5.460   4.256  17.836  0.00  0.00    +0.000 A 
ATOM      8  C   UNL     1       4.878   3.826  16.635  0.00  0.00    +0.000 A 
ATOM      9  C   UNL     1       5.286   4.354  15.408  0.00  0.00    +0.000 A 
ATOM     10  C   UNL     1       6.248   5.371  15.340  0.00  0.00    +0.000 A 
ATOM     11  C   UNL     1       6.763   5.817  16.553  0.00  0.00    +0.000 A 
ATOM     12  N   UNL     1       7.607   6.845  16.879  0.00  0.00    +0.000 N 
ATOM     13  H   UNL     1       8.787   7.555  19.853  0.00  0.00    +0.000 HD
ATOM     14  H   UNL     1       8.005   7.528  16.252  0.00  0.00    +0.000 HD
ENDROOT
BRANCH   1  15
ATOM     15  C   UNL     1       9.382  10.024  19.295  0.00  0.00    +0.000 C 
BRANCH  15  19
ATOM     16  N   UNL     1      11.797  12.928  19.705  0.00  0.00    +0.000 NA
ATOM     17  C   UNL     1      10.546  12.750  20.472  0.00  0.00    +0.000 C 
ATOM     18  C   UNL     1       9.297  12.462  19.604  0.00  0.00    +0.000 C 
ATOM     19  N   UNL     1       9.437  11.345  18.636  0.00  0.00    +0.000 NA
ATOM     20  C   UNL     1      10.706  11.502  17.896  0.00  0.00    +0.000 C 
ATOM     21  C   UNL     1      11.948  11.781  18.782  0.00  0.00    +0.000 C 
BRANCH  16  23
ATOM     22  C   UNL     1      11.568  15.429  19.816  0.00  0.00    +0.000 C 
ATOM     23  C   UNL     1      11.854  14.196  18.963  0.00  0.00    +0.000 C 
ENDBRANCH  16  23
ENDBRANCH  15  19
ENDBRANCH   1  15
TORSDOF 3
ENDMDL
MODEL 2
REMARK VINA RESULT:      -7.0      6.392      9.215
REMARK  Name = 
REMARK  4 active torsions:
REMARK  status: ('A' for Active; 'I' for Inactive)
REMARK    1  A    between atoms: C_1  and  C_2
REMARK    2  A    between atoms: C_2  and  N_3
REMARK    3  A    between atoms: N_6  and  C_7
REMARK    4  A    between atoms: C_7  and  C_8
REMARK                            x       y       z     vdW  Elec       q    Type
REMARK                         _______ _______ _______ _____ _____    ______ ____
ROOT
ATOM      1  C   UNL     1       2.345   5.960  20.006  0.00  0.00    +0.000 C 
ATOM      2  O   UNL     1       1.580   5.498  20.858  0.00  0.00    +0.000 OA
ATOM      3  N   UNL     1       2.476   7.300  19.712  0.00  0.00    +0.000 N 
ATOM      4  C   UNL     1       1.711   8.212  20.374  0.00  0.00    +0.000 A 
ATOM      5  N   UNL     1       1.187   9.290  19.837  0.00  0.00    +0.000 NA
ATOM      6  C   UNL     1       0.385   9.818  20.824  0.00  0.00    +0.000 A 
ATOM      7  C   UNL     1      -0.545  10.859  20.756  0.00  0.00    +0.000 A 
ATOM      8  C   UNL     1      -1.230  11.221  21.925  0.00  0.00    +0.000 A 
ATOM      9  C   UNL     1      -0.966  10.583  23.140  0.00  0.00    +0.000 A 
ATOM     10  C   UNL     1      -0.054   9.522  23.219  0.00  0.00    +0.000 A 
ATOM     11  C   UNL     1       0.565   9.149  22.030  0.00  0.00    +0.000 A 
ATOM     12  N   UNL     1       1.400   8.113  21.706  0.00  0.00    +0.000 N 
ATOM     13  H   UNL     1       2.849   7.583  18.815  0.00  0.00    +0.000 HD
ATOM     14  H   UNL     1       1.709   7.368  22.313  0.00  0.00    +0.000 HD
ENDROOT
BRANCH   1  15
ATOM     15  C   UNL     1       3.296   5.055  19.227  0.00  0.00    +0.000 C 
BRANCH  15  19
ATOM     16  N   UNL     1       6.103   4.098  16.853  0.00  0.00    +0.000 NA
ATOM     17  C   UNL     1       6.245   4.255  18.316  0.00  0.00    +0.000 C 
ATOM     18  C   UNL     1       5.673   5.580  18.877  0.00  0.00    +0.000 C 
ATOM     19  N   UNL     1       4.272   5.883  18.489  0.00  0.00    +0.000 NA
ATOM     20  C   UNL     1       4.120   5.689  17.032  0.00  0.00    +0.000 C 
ATOM     21  C   UNL     1       4.691   4.353  16.489  0.00  0.00    +0.000 C 
BRANCH  16  23
ATOM     22  C   UNL     1       6.888   4.793  14.568  0.00  0.00    +0.000 C 
ATOM     23  C   UNL     1       6.999   4.970  16.079  0.00  0.00    +0.000 C 
ENDBRANCH  16  23
ENDBRANCH  15  19
ENDBRANCH   1  15
TORSDOF 3
ENDMDL
MODEL 3
REMARK VINA RESULT:      -6.6      1.107      1.323
REMARK  Name = 
REMARK  4 active torsions:
REMARK  status: ('A' for Active; 'I' for Inactive)
REMARK    1  A    between atoms: C_1  and  C_2
REMARK    2  A    between atoms: C_2  and  N_3
REMARK    3  A    between atoms: N_6  and  C_7
REMARK    4  A    between atoms: C_7  and  C_8
REMARK                            x       y       z     vdW  Elec       q    Type
REMARK                         _______ _______ _______ _____ _____    ______ ____
ROOT
ATOM      1  C   UNL     1       8.269   8.436  18.261  0.00  0.00    +0.000 C 
ATOM      2  O   UNL     1       7.448   8.721  17.384  0.00  0.00    +0.000 OA
ATOM      3  N   UNL     1       8.325   7.228  18.922  0.00  0.00    +0.000 N 
ATOM      4  C   UNL     1       7.415   6.258  18.630  0.00  0.00    +0.000 A 
ATOM      5  N   UNL     1       6.873   5.442  19.504  0.00  0.00    +0.000 NA
ATOM      6  C   UNL     1       5.919   4.750  18.794  0.00  0.00    +0.000 A 
ATOM      7  C   UNL     1       4.922   3.882  19.248  0.00  0.00    +0.000 A 
ATOM      8  C   UNL     1       4.075   3.283  18.304  0.00  0.00    +0.000 A 
ATOM      9  C   UNL     1       4.243   3.518  16.937  0.00  0.00    +0.000 A 
ATOM     10  C   UNL     1       5.223   4.403  16.467  0.00  0.00    +0.000 A 
ATOM     11  C   UNL     1       6.007   5.025  17.433  0.00  0.00    +0.000 A 
ATOM     12  N   UNL     1       6.957   6.010  17.361  0.00  0.00    +0.000 N 
ATOM     13  H   UNL     1       8.778   7.171  19.825  0.00  0.00    +0.000 HD
ATOM     14  H   UNL     1       7.250   6.513  16.537  0.00  0.00    +0.000 HD
ENDROOT
BRANCH   1  15
ATOM     15  C   UNL     1       9.377   9.412  18.650  0.00  0.00    +0.000 C 
BRANCH  15  19
ATOM     16  N   UNL     1      10.949  12.816  19.262  0.00  0.00    +0.000 NA
ATOM     17  C   UNL     1      10.746  11.777  20.294  0.00  0.00    +0.000 C 
ATOM     18  C   UNL     1       9.312  11.194  20.343  0.00  0.00    +0.000 C 
ATOM     19  N   UNL     1       8.779  10.704  19.048  0.00  0.00    +0.000 NA
ATOM     20  C   UNL     1       9.017  11.726  18.008  0.00  0.00    +0.000 C 
ATOM     21  C   UNL     1      10.460  12.292  17.967  0.00  0.00    +0.000 C 
BRANCH  16  23
ATOM     22  C   UNL     1      11.182  15.072  20.345  0.00  0.00    +0.000 C 
ATOM     23  C   UNL     1      10.296  14.094  19.580  0.00  0.00    +0.000 C 
ENDBRANCH  16  23
ENDBRANCH  15  19
ENDBRANCH   1  15
TORSDOF 3
ENDMDL
MODEL 4
REMARK VINA RESULT:      -6.5      7.367      8.757
REMARK  Name = 
REMARK  4 active torsions:
REMARK  status: ('A' for Active; 'I' for Inactive)
REMARK    1  A    between atoms: C_1  and  C_2
REMARK    2  A    between atoms: C_2  and  N_3
REMARK    3  A    between atoms: N_6  and  C_7
REMARK    4  A    between atoms: C_7  and  C_8
REMARK                            x       y       z     vdW  Elec       q    Type
REMARK                         _______ _______ _______ _____ _____    ______ ____
ROOT
ATOM      1  C   UNL     1       1.667   8.338  19.543  0.00  0.00    +0.000 C 
ATOM      2  O   UNL     1       1.688   8.209  18.315  0.00  0.00    +0.000 OA
ATOM      3  N   UNL     1       1.995   7.348  20.442  0.00  0.00    +0.000 N 
ATOM      4  C   UNL     1       2.357   6.116  19.985  0.00  0.00    +0.000 A 
ATOM      5  N   UNL     1       2.035   4.976  20.551  0.00  0.00    +0.000 NA
ATOM      6  C   UNL     1       2.479   4.012  19.675  0.00  0.00    +0.000 A 
ATOM      7  C   UNL     1       2.253   2.632  19.675  0.00  0.00    +0.000 A 
ATOM      8  C   UNL     1       2.841   1.858  18.665  0.00  0.00    +0.000 A 
ATOM      9  C   UNL     1       3.663   2.442  17.698  0.00  0.00    +0.000 A 
ATOM     10  C   UNL     1       3.881   3.826  17.671  0.00  0.00    +0.000 A 
ATOM     11  C   UNL     1       3.236   4.573  18.652  0.00  0.00    +0.000 A 
ATOM     12  N   UNL     1       3.121   5.921  18.863  0.00  0.00    +0.000 N 
ATOM     13  H   UNL     1       1.652   7.398  21.393  0.00  0.00    +0.000 HD
ATOM     14  H   UNL     1       3.486   6.661  18.282  0.00  0.00    +0.000 HD
ENDROOT
BRANCH   1  15
ATOM     15  C   UNL     1       1.331   9.680  20.188  0.00  0.00    +0.000 C 
BRANCH  15  19
ATOM     16  N   UNL     1      -0.594  11.322  23.022  0.00  0.00    +0.000 NA
ATOM     17  C   UNL     1      -0.091   9.932  23.031  0.00  0.00    +0.000 C 
ATOM     18  C   UNL     1      -0.460   9.108  21.773  0.00  0.00    +0.000 C 
ATOM     19  N   UNL     1      -0.117   9.741  20.475  0.00  0.00    +0.000 NA
ATOM     20  C   UNL     1      -0.586  11.142  20.480  0.00  0.00    +0.000 C 
ATOM     21  C   UNL     1      -0.201  11.954  21.743  0.00  0.00    +0.000 C 
BRANCH  16  23
ATOM     22  C   UNL     1      -2.599  12.838  23.093  0.00  0.00    +0.000 C 
ATOM     23  C   UNL     1      -2.049  11.420  23.219  0.00  0.00    +0.000 C 
ENDBRANCH  16  23
ENDBRANCH  15  19
ENDBRANCH   1  15
TORSDOF 3
ENDMDL
MODEL 5
REMARK VINA RESULT:      -6.5      6.958     10.172
REMARK  Name = 
REMARK  4 active torsions:
REMARK  status: ('A' for Active; 'I' for Inactive)
REMARK    1  A    between atoms: C_1  and  C_2
REMARK    2  A    between atoms: C_2  and  N_3
REMARK    3  A    between atoms: N_6  and  C_7
REMARK    4  A    between atoms: C_7  and  C_8
REMARK                            x       y       z     vdW  Elec       q    Type
REMARK                         _______ _______ _______ _____ _____    ______ ____
ROOT
ATOM      1  C   UNL     1       2.212   8.472  18.268  0.00  0.00    +0.000 C 
ATOM      2  O   UNL     1       2.003   9.345  17.420  0.00  0.00    +0.000 OA
ATOM      3  N   UNL     1       1.640   8.443  19.521  0.00  0.00    +0.000 N 
ATOM      4  C   UNL     1       0.792   9.440  19.898  0.00  0.00    +0.000 A 
ATOM      5  N   UNL     1       0.724   9.959  21.103  0.00  0.00    +0.000 NA
ATOM      6  C   UNL     1      -0.148  11.017  20.979  0.00  0.00    +0.000 A 
ATOM      7  C   UNL     1      -0.459  12.029  21.892  0.00  0.00    +0.000 A 
ATOM      8  C   UNL     1      -1.407  12.994  21.523  0.00  0.00    +0.000 A 
ATOM      9  C   UNL     1      -2.054  12.931  20.287  0.00  0.00    +0.000 A 
ATOM     10  C   UNL     1      -1.736  11.937  19.351  0.00  0.00    +0.000 A 
ATOM     11  C   UNL     1      -0.750  11.030  19.725  0.00  0.00    +0.000 A 
ATOM     12  N   UNL     1      -0.113  10.024  19.048  0.00  0.00    +0.000 N 
ATOM     13  H   UNL     1       2.083   7.917  20.264  0.00  0.00    +0.000 HD
ATOM     14  H   UNL     1      -0.235   9.770  18.079  0.00  0.00    +0.000 HD
ENDROOT
BRANCH   1  15
ATOM     15  C   UNL     1       3.100   7.269  17.960  0.00  0.00    +0.000 C 
BRANCH  15  19
ATOM     16  N   UNL     1       4.527   3.765  18.299  0.00  0.00    +0.000 NA
ATOM     17  C   UNL     1       3.516   4.177  17.301  0.00  0.00    +0.000 C 
ATOM     18  C   UNL     1       2.307   4.942  17.892  0.00  0.00    +0.000 C 
ATOM     19  N   UNL     1       2.647   6.105  18.750  0.00  0.00    +0.000 NA
ATOM     20  C   UNL     1       3.684   5.704  19.722  0.00  0.00    +0.000 C 
ATOM     21  C   UNL     1       4.892   4.946  19.112  0.00  0.00    +0.000 C 
BRANCH  16  23
ATOM     22  C   UNL     1       3.496   1.474  18.406  0.00  0.00    +0.000 C 
ATOM     23  C   UNL     1       4.080   2.663  19.164  0.00  0.00    +0.000 C 
ENDBRANCH  16  23
ENDBRANCH  15  19
ENDBRANCH   1  15
TORSDOF 3
ENDMDL
MODEL 6
REMARK VINA RESULT:      -6.4      7.453      8.831
REMARK  Name = 
REMARK  4 active torsions:
REMARK  status: ('A' for Active; 'I' for Inactive)
REMARK    1  A    between atoms: C_1  and  C_2
REMARK    2  A    between atoms: C_2  and  N_3
REMARK    3  A    between atoms: N_6  and  C_7
REMARK    4  A    between atoms: C_7  and  C_8
REMARK                            x       y       z     vdW  Elec       q    Type
REMARK                         _______ _______ _______ _____ _____    ______ ____
ROOT
ATOM      1  C   UNL     1       1.669   9.273  18.504  0.00  0.00    +0.000 C 
ATOM      2  O   UNL     1       1.924   9.281  17.295  0.00  0.00    +0.000 OA
ATOM      3  N   UNL     1       1.962   8.235  19.362  0.00  0.00    +0.000 N 
ATOM      4  C   UNL     1       2.559   7.110  18.878  0.00  0.00    +0.000 A 
ATOM      5  N   UNL     1       2.297   5.886  19.275  0.00  0.00    +0.000 NA
ATOM      6  C   UNL     1       3.013   5.080  18.420  0.00  0.00    +0.000 A 
ATOM      7  C   UNL     1       2.976   3.692  18.260  0.00  0.00    +0.000 A 
ATOM      8  C   UNL     1       3.831   3.104  17.317  0.00  0.00    +0.000 A 
ATOM      9  C   UNL     1       4.727   3.879  16.577  0.00  0.00    +0.000 A 
ATOM     10  C   UNL     1       4.760   5.274  16.708  0.00  0.00    +0.000 A 
ATOM     11  C   UNL     1       3.858   5.831  17.609  0.00  0.00    +0.000 A 
ATOM     12  N   UNL     1       3.529   7.127  17.909  0.00  0.00    +0.000 N 
ATOM     13  H   UNL     1       1.452   8.143  20.231  0.00  0.00    +0.000 HD
ATOM     14  H   UNL     1       3.888   7.962  17.472  0.00  0.00    +0.000 HD
ENDROOT
BRANCH   1  15
ATOM     15  C   UNL     1       1.048  10.490  19.185  0.00  0.00    +0.000 C 
BRANCH  15  19
ATOM     16  N   UNL     1      -1.986  12.747  19.543  0.00  0.00    +0.000 NA
ATOM     17  C   UNL     1      -1.048  12.406  20.634  0.00  0.00    +0.000 C 
ATOM     18  C   UNL     1      -0.771  10.891  20.791  0.00  0.00    +0.000 C 
ATOM     19  N   UNL     1      -0.351  10.189  19.552  0.00  0.00    +0.000 NA
ATOM     20  C   UNL     1      -1.265  10.560  18.452  0.00  0.00    +0.000 C 
ATOM     21  C   UNL     1      -1.525  12.081  18.304  0.00  0.00    +0.000 C 
BRANCH  16  23
ATOM     22  C   UNL     1      -3.892  12.906  21.174  0.00  0.00    +0.000 C 
ATOM     23  C   UNL     1      -3.381  12.385  19.834  0.00  0.00    +0.000 C 
ENDBRANCH  16  23
ENDBRANCH  15  19
ENDBRANCH   1  15
TORSDOF 3
ENDMDL
MODEL 7
REMARK VINA RESULT:      -6.3      7.289      8.391
REMARK  Name = 
REMARK  4 active torsions:
REMARK  status: ('A' for Active; 'I' for Inactive)
REMARK    1  A    between atoms: C_1  and  C_2
REMARK    2  A    between atoms: C_2  and  N_3
REMARK    3  A    between atoms: N_6  and  C_7
REMARK    4  A    between atoms: C_7  and  C_8
REMARK                            x       y       z     vdW  Elec       q    Type
REMARK                         _______ _______ _______ _____ _____    ______ ____
ROOT
ATOM      1  C   UNL     1       1.707   8.787  18.595  0.00  0.00    +0.000 C 
ATOM      2  O   UNL     1       1.369   8.406  17.470  0.00  0.00    +0.000 OA
ATOM      3  N   UNL     1       2.126   7.958  19.613  0.00  0.00    +0.000 N 
ATOM      4  C   UNL     1       2.167   6.611  19.410  0.00  0.00    +0.000 A 
ATOM      5  N   UNL     1       1.855   5.703  20.306  0.00  0.00    +0.000 NA
ATOM      6  C   UNL     1       1.897   4.509  19.623  0.00  0.00    +0.000 A 
ATOM      7  C   UNL     1       1.485   3.235  20.025  0.00  0.00    +0.000 A 
ATOM      8  C   UNL     1       1.654   2.165  19.134  0.00  0.00    +0.000 A 
ATOM      9  C   UNL     1       2.252   2.356  17.886  0.00  0.00    +0.000 A 
ATOM     10  C   UNL     1       2.649   3.631  17.459  0.00  0.00    +0.000 A 
ATOM     11  C   UNL     1       2.414   4.679  18.342  0.00  0.00    +0.000 A 
ATOM     12  N   UNL     1       2.556   6.037  18.227  0.00  0.00    +0.000 N 
ATOM     13  H   UNL     1       2.069   8.273  20.573  0.00  0.00    +0.000 HD
ATOM     14  H   UNL     1       2.847   6.551  17.409  0.00  0.00    +0.000 HD
ENDROOT
BRANCH   1  15
ATOM     15  C   UNL     1       1.758  10.273  18.941  0.00  0.00    +0.000 C 
BRANCH  15  19
ATOM     16  N   UNL     1       0.112  11.952  21.925  0.00  0.00    +0.000 NA
ATOM     17  C   UNL     1       0.127  10.495  21.672  0.00  0.00    +0.000 C 
ATOM     18  C   UNL     1      -0.318  10.087  20.246  0.00  0.00    +0.000 C 
ATOM     19  N   UNL     1       0.384  10.781  19.137  0.00  0.00    +0.000 NA
ATOM     20  C   UNL     1       0.402  12.233  19.408  0.00  0.00    +0.000 C 
ATOM     21  C   UNL     1       0.859  12.623  20.838  0.00  0.00    +0.000 C 
BRANCH  16  23
ATOM     22  C   UNL     1      -2.111  11.828  23.094  0.00  0.00    +0.000 C 
ATOM     23  C   UNL     1      -1.243  12.512  22.041  0.00  0.00    +0.000 C 
ENDBRANCH  16  23
ENDBRANCH  15  19
ENDBRANCH   1  15
TORSDOF 3
ENDMDL
MODEL 8
REMARK VINA RESULT:      -6.3      6.585      9.470
REMARK  Name = 
REMARK  4 active torsions:
REMARK  status: ('A' for Active; 'I' for Inactive)
REMARK    1  A    between atoms: C_1  and  C_2
REMARK    2  A    between atoms: C_2  and  N_3
REMARK    3  A    between atoms: N_6  and  C_7
REMARK    4  A    between atoms: C_7  and  C_8
REMARK                            x       y       z     vdW  Elec       q    Type
REMARK                         _______ _______ _______ _____ _____    ______ ____
ROOT
ATOM      1  C   UNL     1       2.213   7.199  19.706  0.00  0.00    +0.000 C 
ATOM      2  O   UNL     1       1.558   7.093  20.748  0.00  0.00    +0.000 OA
ATOM      3  N   UNL     1       2.092   8.234  18.805  0.00  0.00    +0.000 N 
ATOM      4  C   UNL     1       1.182   9.222  19.032  0.00  0.00    +0.000 A 
ATOM      5  N   UNL     1       0.462   9.813  18.107  0.00  0.00    +0.000 NA
ATOM      6  C   UNL     1      -0.409  10.620  18.804  0.00  0.00    +0.000 A 
ATOM      7  C   UNL     1      -1.515  11.343  18.348  0.00  0.00    +0.000 A 
ATOM      8  C   UNL     1      -2.238  12.113  19.271  0.00  0.00    +0.000 A 
ATOM      9  C   UNL     1      -1.844  12.187  20.609  0.00  0.00    +0.000 A 
ATOM     10  C   UNL     1      -0.752  11.450  21.087  0.00  0.00    +0.000 A 
ATOM     11  C   UNL     1      -0.092  10.651  20.158  0.00  0.00    +0.000 A 
ATOM     12  N   UNL     1       0.914   9.730  20.278  0.00  0.00    +0.000 N 
ATOM     13  H   UNL     1       2.393   8.104  17.848  0.00  0.00    +0.000 HD
ATOM     14  H   UNL     1       1.363   9.426  21.129  0.00  0.00    +0.000 HD
ENDROOT
BRANCH   1  15
ATOM     15  C   UNL     1       3.302   6.189  19.354  0.00  0.00    +0.000 C 
BRANCH  15  19
ATOM     16  N   UNL     1       5.695   4.222  17.156  0.00  0.00    +0.000 NA
ATOM     17  C   UNL     1       5.868   5.638  17.542  0.00  0.00    +0.000 C 
ATOM     18  C   UNL     1       4.620   6.524  17.305  0.00  0.00    +0.000 C 
ATOM     19  N   UNL     1       3.355   6.011  17.888  0.00  0.00    +0.000 NA
ATOM     20  C   UNL     1       3.201   4.585  17.534  0.00  0.00    +0.000 C 
ATOM     21  C   UNL     1       4.457   3.712  17.786  0.00  0.00    +0.000 C 
BRANCH  16  23
ATOM     22  C   UNL     1       6.842   4.615  14.953  0.00  0.00    +0.000 C 
ATOM     23  C   UNL     1       5.656   4.012  15.701  0.00  0.00    +0.000 C 
ENDBRANCH  16  23
ENDBRANCH  15  19
ENDBRANCH   1  15
TORSDOF 3
ENDMDL
MODEL 9
REMARK VINA RESULT:      -6.2      7.200      8.681
REMARK  Name = 
REMARK  4 active torsions:
REMARK  status: ('A' for Active; 'I' for Inactive)
REMARK    1  A    between atoms: C_1  and  C_2
REMARK    2  A    between atoms: C_2  and  N_3
REMARK    3  A    between atoms: N_6  and  C_7
REMARK    4  A    between atoms: C_7  and  C_8
REMARK                            x       y       z     vdW  Elec       q    Type
REMARK                         _______ _______ _______ _____ _____    ______ ____
ROOT
ATOM      1  C   UNL     1       1.868   8.708  18.477  0.00  0.00    +0.000 C 
ATOM      2  O   UNL     1       2.328   8.164  17.468  0.00  0.00    +0.000 OA
ATOM      3  N   UNL     1       1.816   8.130  19.726  0.00  0.00    +0.000 N 
ATOM      4  C   UNL     1       2.279   6.860  19.901  0.00  0.00    +0.000 A 
ATOM      5  N   UNL     1       1.737   5.961  20.689  0.00  0.00    +0.000 NA
ATOM      6  C   UNL     1       2.438   4.804  20.434  0.00  0.00    +0.000 A 
ATOM      7  C   UNL     1       2.183   3.495  20.852  0.00  0.00    +0.000 A 
ATOM      8  C   UNL     1       3.073   2.483  20.462  0.00  0.00    +0.000 A 
ATOM      9  C   UNL     1       4.208   2.777  19.703  0.00  0.00    +0.000 A 
ATOM     10  C   UNL     1       4.465   4.080  19.256  0.00  0.00    +0.000 A 
ATOM     11  C   UNL     1       3.532   5.050  19.610  0.00  0.00    +0.000 A 
ATOM     12  N   UNL     1       3.391   6.368  19.267  0.00  0.00    +0.000 N 
ATOM     13  H   UNL     1       1.153   8.471  20.410  0.00  0.00    +0.000 HD
ATOM     14  H   UNL     1       3.965   6.894  18.625  0.00  0.00    +0.000 HD
ENDROOT
BRANCH   1  15
ATOM     15  C   UNL     1       1.363  10.148  18.434  0.00  0.00    +0.000 C 
BRANCH  15  19
ATOM     16  N   UNL     1      -1.203  12.856  19.149  0.00  0.00    +0.000 NA
ATOM     17  C   UNL     1       0.242  12.957  19.443  0.00  0.00    +0.000 C 
ATOM     18  C   UNL     1       0.824  11.751  20.220  0.00  0.00    +0.000 C 
ATOM     19  N   UNL     1       0.540  10.418  19.631  0.00  0.00    +0.000 NA
ATOM     20  C   UNL     1      -0.898  10.330  19.301  0.00  0.00    +0.000 C 
ATOM     21  C   UNL     1      -1.462  11.543  18.517  0.00  0.00    +0.000 C 
BRANCH  16  23
ATOM     22  C   UNL     1      -3.526  12.695  20.098  0.00  0.00    +0.000 C 
ATOM     23  C   UNL     1      -2.057  13.034  20.333  0.00  0.00    +0.000 C 
ENDBRANCH  16  23
ENDBRANCH  15  19
ENDBRANCH   1  15
TORSDOF 3
ENDMDL
