MODEL 1
REMARK VINA RESULT:      -8.8      0.000      0.000
REMARK  Name = 
REMARK  4 active torsions:
REMARK  status: ('A' for Active; 'I' for Inactive)
REMARK    1  A    between atoms: C_2  and  O_3
REMARK    2  A    between atoms: C_2  and  C_4
REMARK    3  A    between atoms: C_9  and  C_10
REMARK    4  A    between atoms: C_14  and  C_15
REMARK                            x       y       z     vdW  Elec       q    Type
REMARK                         _______ _______ _______ _____ _____    ______ ____
ROOT
ATOM      1  C   UNL     1       5.714   6.954  17.101  0.00  0.00    +0.000 C 
ATOM      2  C   UNL     1       5.745   5.600  17.814  0.00  0.00    +0.000 C 
ATOM      3  C   UNL     1       4.523   4.904  17.270  0.00  0.00    +0.000 C 
ATOM      4  C   UNL     1       3.500   5.483  18.205  0.00  0.00    +0.000 A 
ATOM      5  C   UNL     1       3.266   6.899  18.117  0.00  0.00    +0.000 A 
ATOM      6  C   UNL     1       2.237   7.399  18.918  0.00  0.00    +0.000 A 
ATOM      7  N   UNL     1       1.688   6.589  19.898  0.00  0.00    +0.000 NA
ATOM      8  C   UNL     1       2.118   5.332  20.138  0.00  0.00    +0.000 A 
ATOM      9  C   UNL     1       1.661   4.674  21.246  0.00  0.00    +0.000 A 
ATOM     10  C   UNL     1       2.165   3.444  21.683  0.00  0.00    +0.000 A 
ATOM     11  C   UNL     1       3.166   2.878  20.906  0.00  0.00    +0.000 A 
ATOM     12  N   UNL     1       3.888   1.723  21.072  0.00  0.00    +0.000 N 
ATOM     13  N   UNL     1       4.849   1.543  20.161  0.00  0.00    +0.000 NA
ATOM     14  C   UNL     1       4.703   2.606  19.377  0.00  0.00    +0.000 A 
ATOM     15  C   UNL     1       3.633   3.468  19.732  0.00  0.00    +0.000 A 
ATOM     16  C   UNL     1       3.061   4.728  19.321  0.00  0.00    +0.000 A 
ATOM     17  C   UNL     1       4.239   7.602  17.133  0.00  0.00    +0.000 C 
ATOM     18  H   UNL     1       3.822   1.049  21.824  0.00  0.00    +0.000 HD
ENDROOT
BRANCH   6  19
ATOM     19  C   UNL     1       1.613   8.716  19.010  0.00  0.00    +0.000 A 
ATOM     20  C   UNL     1       1.419   9.438  17.836  0.00  0.00    +0.000 A 
ATOM     21  N   UNL     1       0.635  10.499  18.135  0.00  0.00    +0.000 N 
ATOM     22  N   UNL     1       0.369  10.594  19.438  0.00  0.00    +0.000 NA
ATOM     23  C   UNL     1       0.885   9.465  19.982  0.00  0.00    +0.000 A 
ATOM     24  H   UNL     1       0.216  11.177  17.500  0.00  0.00    +0.000 HD
BRANCH  23  25
ATOM     25  C   UNL     1       0.559   9.152  21.408  0.00  0.00    +0.000 C 
ATOM     26  F   UNL     1      -0.383   8.185  21.560  0.00  0.00    +0.000 F 
ATOM     27  F   UNL     1       1.654   8.743  22.104  0.00  0.00    +0.000 F 
ATOM     28  F   UNL     1       0.054  10.231  22.067  0.00  0.00    +0.000 F 
ENDBRANCH  23  25
ENDBRANCH   6  19
BRANCH   1  30
ATOM     29  O   UNL     1       7.924   6.534  16.316  0.00  0.00    +0.000 OA
ATOM     30  C   UNL     1       7.197   7.286  16.970  0.00  0.00    +0.000 C 
BRANCH  30  31
ATOM     31  O   UNL     1       7.754   8.211  17.757  0.00  0.00    +0.000 OA
ATOM     32  H   UNL     1       7.824   9.107  17.399  0.00  0.00    +0.000 HD
ENDBRANCH  30  31
ENDBRANCH   1  30
TORSDOF 4
ENDMDL
MODEL 2
REMARK VINA RESULT:      -8.7      1.840      2.247
REMARK  Name = 
REMARK  4 active torsions:
REMARK  status: ('A' for Active; 'I' for Inactive)
REMARK    1  A    between atoms: C_2  and  O_3
REMARK    2  A    between atoms: C_2  and  C_4
REMARK    3  A    between atoms: C_9  and  C_10
REMARK    4  A    between atoms: C_14  and  C_15
REMARK                            x       y       z     vdW  Elec       q    Type
REMARK                         _______ _______ _______ _____ _____    ______ ____
ROOT
ATOM      1  C   UNL     1       5.213   7.034  17.343  0.00  0.00    +0.000 C 
ATOM      2  C   UNL     1       5.120   5.514  17.495  0.00  0.00    +0.000 C 
ATOM      3  C   UNL     1       3.790   5.192  16.863  0.00  0.00    +0.000 C 
ATOM      4  C   UNL     1       2.907   5.463  18.047  0.00  0.00    +0.000 A 
ATOM      5  C   UNL     1       2.845   6.820  18.515  0.00  0.00    +0.000 A 
ATOM      6  C   UNL     1       1.937   7.070  19.547  0.00  0.00    +0.000 A 
ATOM      7  N   UNL     1       1.354   6.003  20.208  0.00  0.00    +0.000 NA
ATOM      8  C   UNL     1       1.638   4.716  19.919  0.00  0.00    +0.000 A 
ATOM      9  C   UNL     1       1.174   3.730  20.745  0.00  0.00    +0.000 A 
ATOM     10  C   UNL     1       1.547   2.386  20.639  0.00  0.00    +0.000 A 
ATOM     11  C   UNL     1       2.420   2.069  19.608  0.00  0.00    +0.000 A 
ATOM     12  N   UNL     1       3.002   0.876  19.257  0.00  0.00    +0.000 N 
ATOM     13  N   UNL     1       3.875   0.969  18.250  0.00  0.00    +0.000 NA
ATOM     14  C   UNL     1       3.814   2.259  17.936  0.00  0.00    +0.000 A 
ATOM     15  C   UNL     1       2.883   3.016  18.695  0.00  0.00    +0.000 A 
ATOM     16  C   UNL     1       2.447   4.384  18.843  0.00  0.00    +0.000 A 
ATOM     17  C   UNL     1       3.835   7.753  17.767  0.00  0.00    +0.000 C 
ATOM     18  H   UNL     1       2.900  -0.024  19.708  0.00  0.00    +0.000 HD
ENDROOT
BRANCH   6  19
ATOM     19  C   UNL     1       1.488   8.305  20.185  0.00  0.00    +0.000 A 
ATOM     20  C   UNL     1       1.544   8.389  21.573  0.00  0.00    +0.000 A 
ATOM     21  N   UNL     1       1.303   9.676  21.914  0.00  0.00    +0.000 N 
ATOM     22  N   UNL     1       0.995  10.438  20.864  0.00  0.00    +0.000 NA
ATOM     23  C   UNL     1       1.186   9.641  19.786  0.00  0.00    +0.000 A 
ATOM     24  H   UNL     1       1.365  10.110  22.833  0.00  0.00    +0.000 HD
BRANCH  23  25
ATOM     25  C   UNL     1       1.141  10.265  18.426  0.00  0.00    +0.000 C 
ATOM     26  F   UNL     1       0.778   9.409  17.437  0.00  0.00    +0.000 F 
ATOM     27  F   UNL     1       0.274  11.312  18.374  0.00  0.00    +0.000 F 
ATOM     28  F   UNL     1       2.357  10.741  18.041  0.00  0.00    +0.000 F 
ENDBRANCH  23  25
ENDBRANCH   6  19
BRANCH   1  30
ATOM     29  O   UNL     1       7.181   8.374  17.406  0.00  0.00    +0.000 OA
ATOM     30  C   UNL     1       6.715   7.253  17.191  0.00  0.00    +0.000 C 
BRANCH  30  31
ATOM     31  O   UNL     1       7.473   6.337  16.582  0.00  0.00    +0.000 OA
ATOM     32  H   UNL     1       7.759   5.580  17.114  0.00  0.00    +0.000 HD
ENDBRANCH  30  31
ENDBRANCH   1  30
TORSDOF 4
ENDMDL
MODEL 3
REMARK VINA RESULT:      -8.4      1.048      1.220
REMARK  Name = 
REMARK  4 active torsions:
REMARK  status: ('A' for Active; 'I' for Inactive)
REMARK    1  A    between atoms: C_2  and  O_3
REMARK    2  A    between atoms: C_2  and  C_4
REMARK    3  A    between atoms: C_9  and  C_10
REMARK    4  A    between atoms: C_14  and  C_15
REMARK                            x       y       z     vdW  Elec       q    Type
REMARK                         _______ _______ _______ _____ _____    ______ ____
ROOT
ATOM      1  C   UNL     1       5.856   6.766  17.281  0.00  0.00    +0.000 C 
ATOM      2  C   UNL     1       5.592   5.295  17.609  0.00  0.00    +0.000 C 
ATOM      3  C   UNL     1       4.412   4.960  16.732  0.00  0.00    +0.000 C 
ATOM      4  C   UNL     1       3.316   5.459  17.630  0.00  0.00    +0.000 A 
ATOM      5  C   UNL     1       3.277   6.873  17.885  0.00  0.00    +0.000 A 
ATOM      6  C   UNL     1       2.190   7.330  18.632  0.00  0.00    +0.000 A 
ATOM      7  N   UNL     1       1.377   6.411  19.275  0.00  0.00    +0.000 NA
ATOM      8  C   UNL     1       1.599   5.080  19.236  0.00  0.00    +0.000 A 
ATOM      9  C   UNL     1       0.872   4.261  20.054  0.00  0.00    +0.000 A 
ATOM     10  C   UNL     1       1.134   2.896  20.219  0.00  0.00    +0.000 A 
ATOM     11  C   UNL     1       2.182   2.375  19.473  0.00  0.00    +0.000 A 
ATOM     12  N   UNL     1       2.714   1.111  19.431  0.00  0.00    +0.000 N 
ATOM     13  N   UNL     1       3.795   0.999  18.653  0.00  0.00    +0.000 NA
ATOM     14  C   UNL     1       3.924   2.227  18.164  0.00  0.00    +0.000 A 
ATOM     15  C   UNL     1       2.922   3.144  18.575  0.00  0.00    +0.000 A 
ATOM     16  C   UNL     1       2.593   4.542  18.433  0.00  0.00    +0.000 A 
ATOM     17  C   UNL     1       4.491   7.621  17.271  0.00  0.00    +0.000 C 
ATOM     18  H   UNL     1       2.431   0.297  19.961  0.00  0.00    +0.000 HD
ENDROOT
BRANCH   6  19
ATOM     19  C   UNL     1       1.726   8.671  18.977  0.00  0.00    +0.000 A 
ATOM     20  C   UNL     1       1.614   9.613  17.959  0.00  0.00    +0.000 A 
ATOM     21  N   UNL     1       0.961  10.685  18.465  0.00  0.00    +0.000 N 
ATOM     22  N   UNL     1       0.714  10.569  19.770  0.00  0.00    +0.000 NA
ATOM     23  C   UNL     1       1.096   9.309  20.088  0.00  0.00    +0.000 A 
ATOM     24  H   UNL     1       0.623  11.510  17.975  0.00  0.00    +0.000 HD
BRANCH  23  25
ATOM     25  C   UNL     1       0.741   8.780  21.442  0.00  0.00    +0.000 C 
ATOM     26  F   UNL     1       1.689   7.974  21.986  0.00  0.00    +0.000 F 
ATOM     27  F   UNL     1       0.517   9.780  22.337  0.00  0.00    +0.000 F 
ATOM     28  F   UNL     1      -0.386   8.017  21.414  0.00  0.00    +0.000 F 
ENDBRANCH  23  25
ENDBRANCH   6  19
BRANCH   1  30
ATOM     29  O   UNL     1       7.947   6.047  18.168  0.00  0.00    +0.000 OA
ATOM     30  C   UNL     1       7.368   6.870  17.456  0.00  0.00    +0.000 C 
BRANCH  30  31
ATOM     31  O   UNL     1       8.017   7.974  17.074  0.00  0.00    +0.000 OA
ATOM     32  H   UNL     1       7.849   8.780  17.582  0.00  0.00    +0.000 HD
ENDBRANCH  30  31
ENDBRANCH   1  30
TORSDOF 4
ENDMDL
MODEL 4
REMARK VINA RESULT:      -8.1      3.078      4.551
REMARK  Name = 
REMARK  4 active torsions:
REMARK  status: ('A' for Active; 'I' for Inactive)
REMARK    1  A    between atoms: C_2  and  O_3
REMARK    2  A    between atoms: C_2  and  C_4
REMARK    3  A    between atoms: C_9  and  C_10
REMARK    4  A    between atoms: C_14  and  C_15
REMARK                            x       y       z     vdW  Elec       q    Type
REMARK                         _______ _______ _______ _____ _____    ______ ____
ROOT
ATOM      1  C   UNL     1       1.719   4.369  20.491  0.00  0.00    +0.000 C 
ATOM      2  C   UNL     1       2.733   3.859  19.466  0.00  0.00    +0.000 C 
ATOM      3  C   UNL     1       3.977   4.641  19.804  0.00  0.00    +0.000 C 
ATOM      4  C   UNL     1       3.674   5.891  19.028  0.00  0.00    +0.000 A 
ATOM      5  C   UNL     1       2.545   6.668  19.461  0.00  0.00    +0.000 A 
ATOM      6  C   UNL     1       2.345   7.879  18.795  0.00  0.00    +0.000 A 
ATOM      7  N   UNL     1       3.058   8.141  17.638  0.00  0.00    +0.000 NA
ATOM      8  C   UNL     1       3.932   7.264  17.099  0.00  0.00    +0.000 A 
ATOM      9  C   UNL     1       4.444   7.514  15.857  0.00  0.00    +0.000 A 
ATOM     10  C   UNL     1       5.219   6.599  15.136  0.00  0.00    +0.000 A 
ATOM     11  C   UNL     1       5.483   5.388  15.762  0.00  0.00    +0.000 A 
ATOM     12  N   UNL     1       6.164   4.280  15.324  0.00  0.00    +0.000 N 
ATOM     13  N   UNL     1       6.135   3.250  16.175  0.00  0.00    +0.000 NA
ATOM     14  C   UNL     1       5.440   3.741  17.195  0.00  0.00    +0.000 A 
ATOM     15  C   UNL     1       5.041   5.095  17.051  0.00  0.00    +0.000 A 
ATOM     16  C   UNL     1       4.263   6.087  17.753  0.00  0.00    +0.000 A 
ATOM     17  C   UNL     1       1.750   5.976  20.601  0.00  0.00    +0.000 C 
ATOM     18  H   UNL     1       6.611   4.136  14.428  0.00  0.00    +0.000 HD
ENDROOT
BRANCH   6  19
ATOM     19  C   UNL     1       1.421   8.987  19.024  0.00  0.00    +0.000 A 
ATOM     20  C   UNL     1       0.892   9.645  17.918  0.00  0.00    +0.000 A 
ATOM     21  N   UNL     1      -0.092  10.462  18.361  0.00  0.00    +0.000 N 
ATOM     22  N   UNL     1      -0.194  10.471  19.691  0.00  0.00    +0.000 NA
ATOM     23  C   UNL     1       0.663   9.512  20.114  0.00  0.00    +0.000 A 
ATOM     24  H   UNL     1      -0.752  11.012  17.816  0.00  0.00    +0.000 HD
BRANCH  23  25
ATOM     25  C   UNL     1       0.624   9.111  21.555  0.00  0.00    +0.000 C 
ATOM     26  F   UNL     1      -0.216   8.077  21.818  0.00  0.00    +0.000 F 
ATOM     27  F   UNL     1       1.851   8.745  22.016  0.00  0.00    +0.000 F 
ATOM     28  F   UNL     1       0.187  10.121  22.355  0.00  0.00    +0.000 F 
ENDBRANCH  23  25
ENDBRANCH   6  19
BRANCH   1  30
ATOM     29  O   UNL     1       1.043   2.441  21.715  0.00  0.00    +0.000 OA
ATOM     30  C   UNL     1       0.844   3.141  20.721  0.00  0.00    +0.000 C 
BRANCH  30  31
ATOM     31  O   UNL     1       0.061   2.677  19.742  0.00  0.00    +0.000 OA
ATOM     32  H   UNL     1       0.464   2.577  18.867  0.00  0.00    +0.000 HD
ENDBRANCH  30  31
ENDBRANCH   1  30
TORSDOF 4
ENDMDL
MODEL 5
REMARK VINA RESULT:      -8.0      4.125      6.697
REMARK  Name = 
REMARK  4 active torsions:
REMARK  status: ('A' for Active; 'I' for Inactive)
REMARK    1  A    between atoms: C_2  and  O_3
REMARK    2  A    between atoms: C_2  and  C_4
REMARK    3  A    between atoms: C_9  and  C_10
REMARK    4  A    between atoms: C_14  and  C_15
REMARK                            x       y       z     vdW  Elec       q    Type
REMARK                         _______ _______ _______ _____ _____    ______ ____
ROOT
ATOM      1  C   UNL     1       3.073   3.197  20.039  0.00  0.00    +0.000 C 
ATOM      2  C   UNL     1       2.242   4.364  20.576  0.00  0.00    +0.000 C 
ATOM      3  C   UNL     1       1.312   4.673  19.429  0.00  0.00    +0.000 C 
ATOM      4  C   UNL     1       2.226   5.562  18.635  0.00  0.00    +0.000 A 
ATOM      5  C   UNL     1       3.406   4.955  18.082  0.00  0.00    +0.000 A 
ATOM      6  C   UNL     1       4.184   5.771  17.259  0.00  0.00    +0.000 A 
ATOM      7  N   UNL     1       3.931   7.132  17.219  0.00  0.00    +0.000 NA
ATOM      8  C   UNL     1       2.972   7.722  17.964  0.00  0.00    +0.000 A 
ATOM      9  C   UNL     1       2.917   9.087  18.017  0.00  0.00    +0.000 A 
ATOM     10  C   UNL     1       2.081   9.799  18.884  0.00  0.00    +0.000 A 
ATOM     11  C   UNL     1       1.256   9.042  19.703  0.00  0.00    +0.000 A 
ATOM     12  N   UNL     1       0.363   9.419  20.674  0.00  0.00    +0.000 N 
ATOM     13  N   UNL     1      -0.193   8.398  21.333  0.00  0.00    +0.000 NA
ATOM     14  C   UNL     1       0.345   7.342  20.730  0.00  0.00    +0.000 A 
ATOM     15  C   UNL     1       1.219   7.649  19.655  0.00  0.00    +0.000 A 
ATOM     16  C   UNL     1       2.091   6.970  18.727  0.00  0.00    +0.000 A 
ATOM     17  C   UNL     1       3.585   3.482  18.538  0.00  0.00    +0.000 C 
ATOM     18  H   UNL     1       0.138  10.355  20.986  0.00  0.00    +0.000 HD
ENDROOT
BRANCH   6  19
ATOM     19  C   UNL     1       5.349   5.498  16.420  0.00  0.00    +0.000 A 
ATOM     20  C   UNL     1       5.253   5.750  15.055  0.00  0.00    +0.000 A 
ATOM     21  N   UNL     1       6.496   5.645  14.532  0.00  0.00    +0.000 N 
ATOM     22  N   UNL     1       7.401   5.247  15.428  0.00  0.00    +0.000 NA
ATOM     23  C   UNL     1       6.738   5.234  16.610  0.00  0.00    +0.000 A 
ATOM     24  H   UNL     1       6.807   5.862  13.587  0.00  0.00    +0.000 HD
BRANCH  23  25
ATOM     25  C   UNL     1       7.531   5.045  17.865  0.00  0.00    +0.000 C 
ATOM     26  F   UNL     1       8.488   4.086  17.775  0.00  0.00    +0.000 F 
ATOM     27  F   UNL     1       8.160   6.190  18.248  0.00  0.00    +0.000 F 
ATOM     28  F   UNL     1       6.751   4.656  18.910  0.00  0.00    +0.000 F 
ENDBRANCH  23  25
ENDBRANCH   6  19
BRANCH   1  30
ATOM     29  O   UNL     1       2.607   2.502  22.269  0.00  0.00    +0.000 OA
ATOM     30  C   UNL     1       3.368   2.398  21.304  0.00  0.00    +0.000 C 
BRANCH  30  31
ATOM     31  O   UNL     1       4.556   1.810  21.469  0.00  0.00    +0.000 OA
ATOM     32  H   UNL     1       5.332   2.388  21.498  0.00  0.00    +0.000 HD
ENDBRANCH  30  31
ENDBRANCH   1  30
TORSDOF 4
ENDMDL
MODEL 6
REMARK VINA RESULT:      -7.9      4.907      8.775
REMARK  Name = 
REMARK  4 active torsions:
REMARK  status: ('A' for Active; 'I' for Inactive)
REMARK    1  A    between atoms: C_2  and  O_3
REMARK    2  A    between atoms: C_2  and  C_4
REMARK    3  A    between atoms: C_9  and  C_10
REMARK    4  A    between atoms: C_14  and  C_15
REMARK                            x       y       z     vdW  Elec       q    Type
REMARK                         _______ _______ _______ _____ _____    ______ ____
ROOT
ATOM      1  C   UNL     1      -2.160  10.595  17.085  0.00  0.00    +0.000 C 
ATOM      2  C   UNL     1      -2.986  11.477  18.022  0.00  0.00    +0.000 C 
ATOM      3  C   UNL     1      -1.990  12.514  18.476  0.00  0.00    +0.000 C 
ATOM      4  C   UNL     1      -1.358  11.742  19.599  0.00  0.00    +0.000 A 
ATOM      5  C   UNL     1      -0.621  10.561  19.243  0.00  0.00    +0.000 A 
ATOM      6  C   UNL     1       0.047   9.919  20.288  0.00  0.00    +0.000 A 
ATOM      7  N   UNL     1      -0.227  10.288  21.594  0.00  0.00    +0.000 NA
ATOM      8  C   UNL     1      -1.136  11.232  21.915  0.00  0.00    +0.000 A 
ATOM      9  C   UNL     1      -1.489  11.397  23.225  0.00  0.00    +0.000 A 
ATOM     10  C   UNL     1      -2.537  12.222  23.651  0.00  0.00    +0.000 A 
ATOM     11  C   UNL     1      -3.216  12.915  22.659  0.00  0.00    +0.000 A 
ATOM     12  N   UNL     1      -4.296  13.759  22.732  0.00  0.00    +0.000 N 
ATOM     13  N   UNL     1      -4.745  14.175  21.544  0.00  0.00    +0.000 NA
ATOM     14  C   UNL     1      -3.896  13.599  20.699  0.00  0.00    +0.000 A 
ATOM     15  C   UNL     1      -2.866  12.838  21.312  0.00  0.00    +0.000 A 
ATOM     16  C   UNL     1      -1.764  11.986  20.935  0.00  0.00    +0.000 A 
ATOM     17  C   UNL     1      -0.731  10.225  17.731  0.00  0.00    +0.000 C 
ATOM     18  H   UNL     1      -4.817  14.037  23.553  0.00  0.00    +0.000 HD
ENDROOT
BRANCH   6  19
ATOM     19  C   UNL     1       0.990   8.804  20.315  0.00  0.00    +0.000 A 
ATOM     20  C   UNL     1       0.904   7.892  21.363  0.00  0.00    +0.000 A 
ATOM     21  N   UNL     1       1.705   6.845  21.060  0.00  0.00    +0.000 N 
ATOM     22  N   UNL     1       2.395   7.032  19.934  0.00  0.00    +0.000 NA
ATOM     23  C   UNL     1       1.909   8.186  19.415  0.00  0.00    +0.000 A 
ATOM     24  H   UNL     1       1.805   5.960  21.553  0.00  0.00    +0.000 HD
BRANCH  23  25
ATOM     25  C   UNL     1       2.318   8.566  18.027  0.00  0.00    +0.000 C 
ATOM     26  F   UNL     1       3.500   8.028  17.631  0.00  0.00    +0.000 F 
ATOM     27  F   UNL     1       1.391   8.195  17.103  0.00  0.00    +0.000 F 
ATOM     28  F   UNL     1       2.490   9.910  17.894  0.00  0.00    +0.000 F 
ENDBRANCH  23  25
ENDBRANCH   6  19
BRANCH   1  30
ATOM     29  O   UNL     1      -2.839   9.461  15.103  0.00  0.00    +0.000 OA
ATOM     30  C   UNL     1      -3.200  10.138  16.068  0.00  0.00    +0.000 C 
BRANCH  30  31
ATOM     31  O   UNL     1      -4.424  10.675  16.066  0.00  0.00    +0.000 OA
ATOM     32  H   UNL     1      -4.706  11.122  15.256  0.00  0.00    +0.000 HD
ENDBRANCH  30  31
ENDBRANCH   1  30
TORSDOF 4
ENDMDL
MODEL 7
REMARK VINA RESULT:      -7.8      6.390      8.960
REMARK  Name = 
REMARK  4 active torsions:
REMARK  status: ('A' for Active; 'I' for Inactive)
REMARK    1  A    between atoms: C_2  and  O_3
REMARK    2  A    between atoms: C_2  and  C_4
REMARK    3  A    between atoms: C_9  and  C_10
REMARK    4  A    between atoms: C_14  and  C_15
REMARK                            x       y       z     vdW  Elec       q    Type
REMARK                         _______ _______ _______ _____ _____    ______ ____
ROOT
ATOM      1  C   UNL     1       0.315  10.422  21.346  0.00  0.00    +0.000 C 
ATOM      2  C   UNL     1      -0.277  10.113  19.970  0.00  0.00    +0.000 C 
ATOM      3  C   UNL     1      -0.292  11.463  19.298  0.00  0.00    +0.000 C 
ATOM      4  C   UNL     1      -1.592  11.974  19.850  0.00  0.00    +0.000 A 
ATOM      5  C   UNL     1      -1.653  12.197  21.269  0.00  0.00    +0.000 A 
ATOM      6  C   UNL     1      -2.831  12.772  21.747  0.00  0.00    +0.000 A 
ATOM      7  N   UNL     1      -3.930  12.862  20.909  0.00  0.00    +0.000 NA
ATOM      8  C   UNL     1      -3.927  12.394  19.643  0.00  0.00    +0.000 A 
ATOM      9  C   UNL     1      -5.105  12.342  18.950  0.00  0.00    +0.000 A 
ATOM     10  C   UNL     1      -5.248  11.722  17.704  0.00  0.00    +0.000 A 
ATOM     11  C   UNL     1      -4.101  11.163  17.159  0.00  0.00    +0.000 A 
ATOM     12  N   UNL     1      -3.908  10.461  15.996  0.00  0.00    +0.000 N 
ATOM     13  N   UNL     1      -2.668   9.988  15.842  0.00  0.00    +0.000 NA
ATOM     14  C   UNL     1      -2.053  10.437  16.930  0.00  0.00    +0.000 A 
ATOM     15  C   UNL     1      -2.857  11.235  17.786  0.00  0.00    +0.000 A 
ATOM     16  C   UNL     1      -2.767  11.904  19.061  0.00  0.00    +0.000 A 
ATOM     17  C   UNL     1      -0.366  11.728  22.000  0.00  0.00    +0.000 C 
ATOM     18  H   UNL     1      -4.596  10.210  15.298  0.00  0.00    +0.000 HD
ENDROOT
BRANCH   6  19
ATOM     19  C   UNL     1      -3.219  13.272  23.064  0.00  0.00    +0.000 A 
ATOM     20  C   UNL     1      -4.238  12.614  23.746  0.00  0.00    +0.000 A 
ATOM     21  N   UNL     1      -4.264  13.100  25.009  0.00  0.00    +0.000 N 
ATOM     22  N   UNL     1      -3.403  14.101  25.194  0.00  0.00    +0.000 NA
ATOM     23  C   UNL     1      -2.692  14.167  24.042  0.00  0.00    +0.000 A 
ATOM     24  H   UNL     1      -4.814  12.776  25.801  0.00  0.00    +0.000 HD
BRANCH  23  25
ATOM     25  C   UNL     1      -1.483  15.048  24.005  0.00  0.00    +0.000 C 
ATOM     26  F   UNL     1      -0.430  14.515  23.332  0.00  0.00    +0.000 F 
ATOM     27  F   UNL     1      -1.746  16.252  23.427  0.00  0.00    +0.000 F 
ATOM     28  F   UNL     1      -0.999  15.307  25.251  0.00  0.00    +0.000 F 
ENDBRANCH  23  25
ENDBRANCH   6  19
BRANCH   1  30
ATOM     29  O   UNL     1       0.606   8.059  21.279  0.00  0.00    +0.000 OA
ATOM     30  C   UNL     1       1.062   9.134  21.675  0.00  0.00    +0.000 C 
BRANCH  30  31
ATOM     31  O   UNL     1       2.035   9.132  22.592  0.00  0.00    +0.000 OA
ATOM     32  H   UNL     1       2.841   9.623  22.378  0.00  0.00    +0.000 HD
ENDBRANCH  30  31
ENDBRANCH   1  30
TORSDOF 4
ENDMDL
MODEL 8
REMARK VINA RESULT:      -7.6      6.793      9.190
REMARK  Name = 
REMARK  4 active torsions:
REMARK  status: ('A' for Active; 'I' for Inactive)
REMARK    1  A    between atoms: C_2  and  O_3
REMARK    2  A    between atoms: C_2  and  C_4
REMARK    3  A    between atoms: C_9  and  C_10
REMARK    4  A    between atoms: C_14  and  C_15
REMARK                            x       y       z     vdW  Elec       q    Type
REMARK                         _______ _______ _______ _____ _____    ______ ____
ROOT
ATOM      1  C   UNL     1      -0.227  10.935  21.933  0.00  0.00    +0.000 C 
ATOM      2  C   UNL     1      -0.609  10.356  20.569  0.00  0.00    +0.000 C 
ATOM      3  C   UNL     1      -0.473  11.543  19.649  0.00  0.00    +0.000 C 
ATOM      4  C   UNL     1      -1.825  12.158  19.875  0.00  0.00    +0.000 A 
ATOM      5  C   UNL     1      -2.097  12.663  21.193  0.00  0.00    +0.000 A 
ATOM      6  C   UNL     1      -3.315  13.326  21.354  0.00  0.00    +0.000 A 
ATOM      7  N   UNL     1      -4.266  13.248  20.351  0.00  0.00    +0.000 NA
ATOM      8  C   UNL     1      -4.083  12.534  19.220  0.00  0.00    +0.000 A 
ATOM      9  C   UNL     1      -5.140  12.347  18.374  0.00  0.00    +0.000 A 
ATOM     10  C   UNL     1      -5.110  11.489  17.268  0.00  0.00    +0.000 A 
ATOM     11  C   UNL     1      -3.912  10.828  17.035  0.00  0.00    +0.000 A 
ATOM     12  N   UNL     1      -3.565   9.906  16.080  0.00  0.00    +0.000 N 
ATOM     13  N   UNL     1      -2.334   9.408  16.222  0.00  0.00    +0.000 NA
ATOM     14  C   UNL     1      -1.880  10.065  17.283  0.00  0.00    +0.000 A 
ATOM     15  C   UNL     1      -2.778  11.022  17.824  0.00  0.00    +0.000 A 
ATOM     16  C   UNL     1      -2.865  11.934  18.939  0.00  0.00    +0.000 A 
ATOM     17  C   UNL     1      -0.956  12.347  22.198  0.00  0.00    +0.000 C 
ATOM     18  H   UNL     1      -4.145   9.521  15.345  0.00  0.00    +0.000 HD
ENDROOT
BRANCH   6  19
ATOM     19  C   UNL     1      -3.884  14.082  22.467  0.00  0.00    +0.000 A 
ATOM     20  C   UNL     1      -4.348  15.370  22.221  0.00  0.00    +0.000 A 
ATOM     21  N   UNL     1      -5.027  15.776  23.319  0.00  0.00    +0.000 N 
ATOM     22  N   UNL     1      -4.969  14.894  24.316  0.00  0.00    +0.000 NA
ATOM     23  C   UNL     1      -4.348  13.811  23.789  0.00  0.00    +0.000 A 
ATOM     24  H   UNL     1      -5.579  16.622  23.446  0.00  0.00    +0.000 HD
BRANCH  23  25
ATOM     25  C   UNL     1      -4.323  12.547  24.590  0.00  0.00    +0.000 C 
ATOM     26  F   UNL     1      -5.533  11.941  24.703  0.00  0.00    +0.000 F 
ATOM     27  F   UNL     1      -3.472  11.626  24.063  0.00  0.00    +0.000 F 
ATOM     28  F   UNL     1      -3.926  12.763  25.874  0.00  0.00    +0.000 F 
ENDBRANCH  23  25
ENDBRANCH   6  19
BRANCH   1  30
ATOM     29  O   UNL     1       0.363   9.657  23.855  0.00  0.00    +0.000 OA
ATOM     30  C   UNL     1       0.415   9.737  22.626  0.00  0.00    +0.000 C 
BRANCH  30  31
ATOM     31  O   UNL     1       1.244   8.933  21.954  0.00  0.00    +0.000 OA
ATOM     32  H   UNL     1       2.164   9.220  21.873  0.00  0.00    +0.000 HD
ENDBRANCH  30  31
ENDBRANCH   1  30
TORSDOF 4
ENDMDL
MODEL 9
REMARK VINA RESULT:      -7.5      7.366      9.727
REMARK  Name = 
REMARK  4 active torsions:
REMARK  status: ('A' for Active; 'I' for Inactive)
REMARK    1  A    between atoms: C_2  and  O_3
REMARK    2  A    between atoms: C_2  and  C_4
REMARK    3  A    between atoms: C_9  and  C_10
REMARK    4  A    between atoms: C_14  and  C_15
REMARK                            x       y       z     vdW  Elec       q    Type
REMARK                         _______ _______ _______ _____ _____    ______ ____
ROOT
ATOM      1  C   UNL     1      -0.737  10.986  22.407  0.00  0.00    +0.000 C 
ATOM      2  C   UNL     1      -1.026  10.441  21.007  0.00  0.00    +0.000 C 
ATOM      3  C   UNL     1      -0.773  11.634  20.121  0.00  0.00    +0.000 C 
ATOM      4  C   UNL     1      -2.115  12.296  20.247  0.00  0.00    +0.000 A 
ATOM      5  C   UNL     1      -2.476  12.793  21.547  0.00  0.00    +0.000 A 
ATOM      6  C   UNL     1      -3.678  13.499  21.619  0.00  0.00    +0.000 A 
ATOM      7  N   UNL     1      -4.546  13.470  20.540  0.00  0.00    +0.000 NA
ATOM      8  C   UNL     1      -4.298  12.765  19.416  0.00  0.00    +0.000 A 
ATOM      9  C   UNL     1      -5.288  12.629  18.484  0.00  0.00    +0.000 A 
ATOM     10  C   UNL     1      -5.198  11.786  17.371  0.00  0.00    +0.000 A 
ATOM     11  C   UNL     1      -4.010  11.084  17.225  0.00  0.00    +0.000 A 
ATOM     12  N   UNL     1      -3.620  10.163  16.285  0.00  0.00    +0.000 N 
ATOM     13  N   UNL     1      -2.422   9.617  16.519  0.00  0.00    +0.000 NA
ATOM     14  C   UNL     1      -2.033  10.243  17.625  0.00  0.00    +0.000 A 
ATOM     15  C   UNL     1      -2.938  11.225  18.106  0.00  0.00    +0.000 A 
ATOM     16  C   UNL     1      -3.083  12.124  19.225  0.00  0.00    +0.000 A 
ATOM     17  C   UNL     1      -1.433  12.421  22.635  0.00  0.00    +0.000 C 
ATOM     18  H   UNL     1      -4.151   9.810  15.500  0.00  0.00    +0.000 HD
ENDROOT
BRANCH   6  19
ATOM     19  C   UNL     1      -4.310  14.260  22.694  0.00  0.00    +0.000 A 
ATOM     20  C   UNL     1      -4.045  15.623  22.782  0.00  0.00    +0.000 A 
ATOM     21  N   UNL     1      -4.900  16.148  23.689  0.00  0.00    +0.000 N 
ATOM     22  N   UNL     1      -5.652  15.221  24.285  0.00  0.00    +0.000 NA
ATOM     23  C   UNL     1      -5.369  14.069  23.631  0.00  0.00    +0.000 A 
ATOM     24  H   UNL     1      -5.051  17.126  23.926  0.00  0.00    +0.000 HD
BRANCH  23  25
ATOM     25  C   UNL     1      -6.218  12.869  23.910  0.00  0.00    +0.000 C 
ATOM     26  F   UNL     1      -5.614  11.933  24.687  0.00  0.00    +0.000 F 
ATOM     27  F   UNL     1      -7.382  13.201  24.532  0.00  0.00    +0.000 F 
ATOM     28  F   UNL     1      -6.556  12.205  22.771  0.00  0.00    +0.000 F 
ENDBRANCH  23  25
ENDBRANCH   6  19
BRANCH   1  30
ATOM     29  O   UNL     1       0.973   9.754  23.516  0.00  0.00    +0.000 OA
ATOM     30  C   UNL     1      -0.198   9.756  23.130  0.00  0.00    +0.000 C 
BRANCH  30  31
ATOM     31  O   UNL     1      -0.881   8.608  23.111  0.00  0.00    +0.000 OA
ATOM     32  H   UNL     1      -1.550   8.484  23.800  0.00  0.00    +0.000 HD
ENDBRANCH  30  31
ENDBRANCH   1  30
TORSDOF 4
ENDMDL
