MODEL 1
REMARK VINA RESULT:      -7.8      0.000      0.000
REMARK  Name = 
REMARK  13 active torsions:
REMARK  status: ('A' for Active; 'I' for Inactive)
REMARK    1  A    between atoms: C_1  and  C_2
REMARK    2  A    between atoms: C_2  and  C_3
REMARK    3  A    between atoms: C_2  and  N_4
REMARK    4  A    between atoms: C_5  and  O_7
REMARK    5  A    between atoms: O_7  and  C_8
REMARK    6  A    between atoms: C_8  and  C_9
REMARK    7  A    between atoms: C_10  and  C_11
REMARK    8  A    between atoms: C_11  and  O_12
REMARK    9  A    between atoms: O_12  and  C_13
REMARK   10  A    between atoms: N_15  and  C_16
REMARK   11  A    between atoms: C_16  and  C_17
REMARK   12  A    between atoms: C_16  and  C_18
REMARK   13  A    between atoms: N_19  and  C_20
REMARK                            x       y       z     vdW  Elec       q    Type
REMARK                         _______ _______ _______ _____ _____    ______ ____
ROOT
ATOM      1  C   UNL     1       0.273  10.100  20.781  0.00  0.00    +0.000 A 
ATOM      2  C   UNL     1       0.739  10.998  19.832  0.00  0.00    +0.000 A 
ATOM      3  N   UNL     1       1.603  10.301  18.994  0.00  0.00    +0.000 N 
ATOM      4  C   UNL     1       2.273  10.868  17.843  0.00  0.00    +0.000 C 
ATOM      5  C   UNL     1       1.724   8.966  19.402  0.00  0.00    +0.000 A 
ATOM      6  C   UNL     1       0.910   8.850  20.537  0.00  0.00    +0.000 A 
ATOM      7  C   UNL     1       0.828   7.625  21.222  0.00  0.00    +0.000 A 
ATOM      8  C   UNL     1       1.527   6.517  20.777  0.00  0.00    +0.000 A 
ATOM      9  C   UNL     1       2.315   6.595  19.641  0.00  0.00    +0.000 A 
ATOM     10  C   UNL     1       2.970   5.429  19.228  0.00  0.00    +0.000 A 
ATOM     11  C   UNL     1       3.770   5.426  18.089  0.00  0.00    +0.000 A 
ATOM     12 CL   UNL     1       4.520   3.933  17.648  0.00  0.00    +0.000 Cl
ATOM     13  C   UNL     1       3.927   6.603  17.358  0.00  0.00    +0.000 A 
ATOM     14 CL   UNL     1       4.904   6.663  15.930  0.00  0.00    +0.000 Cl
ATOM     15  C   UNL     1       3.284   7.786  17.763  0.00  0.00    +0.000 A 
ATOM     16  C   UNL     1       2.454   7.813  18.910  0.00  0.00    +0.000 A 
ENDROOT
BRANCH   1  17
ATOM     17  C   UNL     1      -0.713  10.347  21.884  0.00  0.00    +0.000 C 
BRANCH  17  18
ATOM     18  O   UNL     1      -0.263  11.338  22.817  0.00  0.00    +0.000 OA
BRANCH  18  20
ATOM     19  N   UNL     1      -2.370  11.908  23.181  0.00  0.00    +0.000 N 
ATOM     20  C   UNL     1      -1.111  12.382  22.966  0.00  0.00    +0.000 C 
ATOM     21  O   UNL     1      -0.808  13.565  22.931  0.00  0.00    +0.000 OA
ATOM     22  H   UNL     1      -2.450  10.911  23.320  0.00  0.00    +0.000 HD
BRANCH  19  24
ATOM     23  C   UNL     1      -4.377  12.858  22.170  0.00  0.00    +0.000 C 
ATOM     24  C   UNL     1      -3.494  12.793  23.409  0.00  0.00    +0.000 C 
ATOM     25  C   UNL     1      -4.301  12.353  24.628  0.00  0.00    +0.000 C 
ENDBRANCH  19  24
ENDBRANCH  18  20
ENDBRANCH  17  18
ENDBRANCH   1  17
BRANCH   2  26
ATOM     26  C   UNL     1       0.389  12.453  19.702  0.00  0.00    +0.000 C 
BRANCH  26  27
ATOM     27  O   UNL     1      -0.287  12.646  18.446  0.00  0.00    +0.000 OA
BRANCH  27  28
ATOM     28  C   UNL     1      -1.542  12.148  18.391  0.00  0.00    +0.000 C 
ATOM     29  O   UNL     1      -2.395  12.277  19.262  0.00  0.00    +0.000 OA
ATOM     30  N   UNL     1      -1.716  11.471  17.218  0.00  0.00    +0.000 N 
ATOM     31  H   UNL     1      -0.946  11.507  16.565  0.00  0.00    +0.000 HD
BRANCH  30  32
ATOM     32  C   UNL     1      -3.010  10.945  16.811  0.00  0.00    +0.000 C 
ATOM     33  C   UNL     1      -3.084  10.780  15.294  0.00  0.00    +0.000 C 
ATOM     34  C   UNL     1      -3.304   9.618  17.500  0.00  0.00    +0.000 C 
ENDBRANCH  30  32
ENDBRANCH  27  28
ENDBRANCH  26  27
ENDBRANCH   2  26
TORSDOF 8
ENDMDL
MODEL 2
REMARK VINA RESULT:      -7.8      4.611      8.445
REMARK  Name = 
REMARK  13 active torsions:
REMARK  status: ('A' for Active; 'I' for Inactive)
REMARK    1  A    between atoms: C_1  and  C_2
REMARK    2  A    between atoms: C_2  and  C_3
REMARK    3  A    between atoms: C_2  and  N_4
REMARK    4  A    between atoms: C_5  and  O_7
REMARK    5  A    between atoms: O_7  and  C_8
REMARK    6  A    between atoms: C_8  and  C_9
REMARK    7  A    between atoms: C_10  and  C_11
REMARK    8  A    between atoms: C_11  and  O_12
REMARK    9  A    between atoms: O_12  and  C_13
REMARK   10  A    between atoms: N_15  and  C_16
REMARK   11  A    between atoms: C_16  and  C_17
REMARK   12  A    between atoms: C_16  and  C_18
REMARK   13  A    between atoms: N_19  and  C_20
REMARK                            x       y       z     vdW  Elec       q    Type
REMARK                         _______ _______ _______ _____ _____    ______ ____
ROOT
ATOM      1  C   UNL     1       1.792   7.369  20.159  0.00  0.00    +0.000 A 
ATOM      2  C   UNL     1       2.047   7.896  18.901  0.00  0.00    +0.000 A 
ATOM      3  N   UNL     1       1.554   9.196  18.891  0.00  0.00    +0.000 N 
ATOM      4  C   UNL     1       1.657  10.110  17.773  0.00  0.00    +0.000 C 
ATOM      5  C   UNL     1       0.960   9.514  20.121  0.00  0.00    +0.000 A 
ATOM      6  C   UNL     1       1.089   8.358  20.904  0.00  0.00    +0.000 A 
ATOM      7  C   UNL     1       0.561   8.329  22.206  0.00  0.00    +0.000 A 
ATOM      8  C   UNL     1      -0.068   9.439  22.741  0.00  0.00    +0.000 A 
ATOM      9  C   UNL     1      -0.182  10.605  22.000  0.00  0.00    +0.000 A 
ATOM     10  C   UNL     1      -0.802  11.700  22.612  0.00  0.00    +0.000 A 
ATOM     11  C   UNL     1      -0.942  12.908  21.936  0.00  0.00    +0.000 A 
ATOM     12 CL   UNL     1      -1.703  14.209  22.782  0.00  0.00    +0.000 Cl
ATOM     13  C   UNL     1      -0.468  13.024  20.630  0.00  0.00    +0.000 A 
ATOM     14 CL   UNL     1      -0.607  14.500  19.738  0.00  0.00    +0.000 Cl
ATOM     15  C   UNL     1       0.150  11.930  19.997  0.00  0.00    +0.000 A 
ATOM     16  C   UNL     1       0.318  10.694  20.666  0.00  0.00    +0.000 A 
ENDROOT
BRANCH   1  17
ATOM     17  C   UNL     1       2.162   6.015  20.689  0.00  0.00    +0.000 C 
BRANCH  17  18
ATOM     18  O   UNL     1       1.061   5.099  20.684  0.00  0.00    +0.000 OA
BRANCH  18  20
ATOM     19  N   UNL     1       2.470   3.716  19.685  0.00  0.00    +0.000 N 
ATOM     20  C   UNL     1       1.421   3.801  20.550  0.00  0.00    +0.000 C 
ATOM     21  O   UNL     1       0.908   2.850  21.118  0.00  0.00    +0.000 OA
ATOM     22  H   UNL     1       2.878   4.594  19.395  0.00  0.00    +0.000 HD
BRANCH  19  24
ATOM     23  C   UNL     1       3.323   2.338  17.861  0.00  0.00    +0.000 C 
ATOM     24  C   UNL     1       3.099   2.451  19.363  0.00  0.00    +0.000 C 
ATOM     25  C   UNL     1       4.412   2.281  20.122  0.00  0.00    +0.000 C 
ENDBRANCH  19  24
ENDBRANCH  18  20
ENDBRANCH  17  18
ENDBRANCH   1  17
BRANCH   2  26
ATOM     26  C   UNL     1       2.729   7.217  17.748  0.00  0.00    +0.000 C 
BRANCH  26  27
ATOM     27  O   UNL     1       4.152   7.306  17.947  0.00  0.00    +0.000 OA
BRANCH  27  28
ATOM     28  C   UNL     1       4.805   6.123  17.934  0.00  0.00    +0.000 C 
ATOM     29  O   UNL     1       5.004   5.411  18.913  0.00  0.00    +0.000 OA
ATOM     30  N   UNL     1       5.220   5.842  16.664  0.00  0.00    +0.000 N 
ATOM     31  H   UNL     1       4.924   6.488  15.946  0.00  0.00    +0.000 HD
BRANCH  30  32
ATOM     32  C   UNL     1       5.827   4.568  16.310  0.00  0.00    +0.000 C 
ATOM     33  C   UNL     1       5.657   4.272  14.822  0.00  0.00    +0.000 C 
ATOM     34  C   UNL     1       7.303   4.541  16.688  0.00  0.00    +0.000 C 
ENDBRANCH  30  32
ENDBRANCH  27  28
ENDBRANCH  26  27
ENDBRANCH   2  26
TORSDOF 8
ENDMDL
MODEL 3
REMARK VINA RESULT:      -7.7      1.437      4.713
REMARK  Name = 
REMARK  13 active torsions:
REMARK  status: ('A' for Active; 'I' for Inactive)
REMARK    1  A    between atoms: C_1  and  C_2
REMARK    2  A    between atoms: C_2  and  C_3
REMARK    3  A    between atoms: C_2  and  N_4
REMARK    4  A    between atoms: C_5  and  O_7
REMARK    5  A    between atoms: O_7  and  C_8
REMARK    6  A    between atoms: C_8  and  C_9
REMARK    7  A    between atoms: C_10  and  C_11
REMARK    8  A    between atoms: C_11  and  O_12
REMARK    9  A    between atoms: O_12  and  C_13
REMARK   10  A    between atoms: N_15  and  C_16
REMARK   11  A    between atoms: C_16  and  C_17
REMARK   12  A    between atoms: C_16  and  C_18
REMARK   13  A    between atoms: N_19  and  C_20
REMARK                            x       y       z     vdW  Elec       q    Type
REMARK                         _______ _______ _______ _____ _____    ______ ____
ROOT
ATOM      1  C   UNL     1       0.453  11.590  20.062  0.00  0.00    +0.000 A 
ATOM      2  C   UNL     1      -0.014  11.189  21.305  0.00  0.00    +0.000 A 
ATOM      3  N   UNL     1       0.318   9.847  21.457  0.00  0.00    +0.000 N 
ATOM      4  C   UNL     1       0.044   9.057  22.639  0.00  0.00    +0.000 C 
ATOM      5  C   UNL     1       0.976   9.364  20.317  0.00  0.00    +0.000 A 
ATOM      6  C   UNL     1       1.036  10.452  19.436  0.00  0.00    +0.000 A 
ATOM      7  C   UNL     1       1.616  10.296  18.165  0.00  0.00    +0.000 A 
ATOM      8  C   UNL     1       2.154   9.082  17.776  0.00  0.00    +0.000 A 
ATOM      9  C   UNL     1       2.136   7.999  18.639  0.00  0.00    +0.000 A 
ATOM     10  C   UNL     1       2.725   6.810  18.195  0.00  0.00    +0.000 A 
ATOM     11  C   UNL     1       2.756   5.682  19.010  0.00  0.00    +0.000 A 
ATOM     12 CL   UNL     1       3.524   4.268  18.382  0.00  0.00    +0.000 Cl
ATOM     13  C   UNL     1       2.184   5.737  20.281  0.00  0.00    +0.000 A 
ATOM     14 CL   UNL     1       2.195   4.372  21.344  0.00  0.00    +0.000 Cl
ATOM     15  C   UNL     1       1.581   6.922  20.740  0.00  0.00    +0.000 A 
ATOM     16  C   UNL     1       1.547   8.087  19.937  0.00  0.00    +0.000 A 
ENDROOT
BRANCH   1  17
ATOM     17  C   UNL     1       0.381  12.954  19.442  0.00  0.00    +0.000 C 
BRANCH  17  18
ATOM     18  O   UNL     1      -0.255  12.945  18.158  0.00  0.00    +0.000 OA
BRANCH  18  20
ATOM     19  N   UNL     1      -1.717  11.707  17.050  0.00  0.00    +0.000 N 
ATOM     20  C   UNL     1      -1.518  12.457  18.170  0.00  0.00    +0.000 C 
ATOM     21  O   UNL     1      -2.351  12.639  19.045  0.00  0.00    +0.000 OA
ATOM     22  H   UNL     1      -0.900  11.533  16.483  0.00  0.00    +0.000 HD
BRANCH  19  24
ATOM     23  C   UNL     1      -3.170  10.823  15.301  0.00  0.00    +0.000 C 
ATOM     24  C   UNL     1      -2.971  11.025  16.797  0.00  0.00    +0.000 C 
ATOM     25  C   UNL     1      -3.031   9.693  17.538  0.00  0.00    +0.000 C 
ENDBRANCH  19  24
ENDBRANCH  18  20
ENDBRANCH  17  18
ENDBRANCH   1  17
BRANCH   2  26
ATOM     26  C   UNL     1      -0.741  12.024  22.320  0.00  0.00    +0.000 C 
BRANCH  26  27
ATOM     27  O   UNL     1      -2.155  11.824  22.143  0.00  0.00    +0.000 OA
BRANCH  27  28
ATOM     28  C   UNL     1      -2.933  12.843  22.570  0.00  0.00    +0.000 C 
ATOM     29  O   UNL     1      -2.560  13.999  22.737  0.00  0.00    +0.000 OA
ATOM     30  N   UNL     1      -4.201  12.389  22.796  0.00  0.00    +0.000 N 
ATOM     31  H   UNL     1      -4.379  11.426  22.548  0.00  0.00    +0.000 HD
BRANCH  30  32
ATOM     32  C   UNL     1      -5.299  13.285  23.126  0.00  0.00    +0.000 C 
ATOM     33  C   UNL     1      -6.087  13.674  21.877  0.00  0.00    +0.000 C 
ATOM     34  C   UNL     1      -6.226  12.658  24.161  0.00  0.00    +0.000 C 
ENDBRANCH  30  32
ENDBRANCH  27  28
ENDBRANCH  26  27
ENDBRANCH   2  26
TORSDOF 8
ENDMDL
MODEL 4
REMARK VINA RESULT:      -7.7      4.646      8.507
REMARK  Name = 
REMARK  13 active torsions:
REMARK  status: ('A' for Active; 'I' for Inactive)
REMARK    1  A    between atoms: C_1  and  C_2
REMARK    2  A    between atoms: C_2  and  C_3
REMARK    3  A    between atoms: C_2  and  N_4
REMARK    4  A    between atoms: C_5  and  O_7
REMARK    5  A    between atoms: O_7  and  C_8
REMARK    6  A    between atoms: C_8  and  C_9
REMARK    7  A    between atoms: C_10  and  C_11
REMARK    8  A    between atoms: C_11  and  O_12
REMARK    9  A    between atoms: O_12  and  C_13
REMARK   10  A    between atoms: N_15  and  C_16
REMARK   11  A    between atoms: C_16  and  C_17
REMARK   12  A    between atoms: C_16  and  C_18
REMARK   13  A    between atoms: N_19  and  C_20
REMARK                            x       y       z     vdW  Elec       q    Type
REMARK                         _______ _______ _______ _____ _____    ______ ____
ROOT
ATOM      1  C   UNL     1       1.846   7.016  20.194  0.00  0.00    +0.000 A 
ATOM      2  C   UNL     1       2.234   7.457  18.937  0.00  0.00    +0.000 A 
ATOM      3  N   UNL     1       1.824   8.780  18.818  0.00  0.00    +0.000 N 
ATOM      4  C   UNL     1       2.074   9.623  17.668  0.00  0.00    +0.000 C 
ATOM      5  C   UNL     1       1.152   9.199  19.975  0.00  0.00    +0.000 A 
ATOM      6  C   UNL     1       1.145   8.084  20.824  0.00  0.00    +0.000 A 
ATOM      7  C   UNL     1       0.512   8.157  22.077  0.00  0.00    +0.000 A 
ATOM      8  C   UNL     1      -0.091   9.329  22.498  0.00  0.00    +0.000 A 
ATOM      9  C   UNL     1      -0.072  10.456  21.692  0.00  0.00    +0.000 A 
ATOM     10  C   UNL     1      -0.672  11.617  22.192  0.00  0.00    +0.000 A 
ATOM     11  C   UNL     1      -0.683  12.792  21.445  0.00  0.00    +0.000 A 
ATOM     12 CL   UNL     1      -1.430  14.178  22.156  0.00  0.00    +0.000 Cl
ATOM     13  C   UNL     1      -0.097  12.807  20.180  0.00  0.00    +0.000 A 
ATOM     14 CL   UNL     1      -0.073  14.236  19.205  0.00  0.00    +0.000 Cl
ATOM     15  C   UNL     1       0.503  11.647  19.659  0.00  0.00    +0.000 A 
ATOM     16  C   UNL     1       0.540  10.442  20.402  0.00  0.00    +0.000 A 
ENDROOT
BRANCH   1  17
ATOM     17  C   UNL     1       2.089   5.675  20.821  0.00  0.00    +0.000 C 
BRANCH  17  18
ATOM     18  O   UNL     1       0.992   4.772  20.637  0.00  0.00    +0.000 OA
BRANCH  18  20
ATOM     19  N   UNL     1       2.675   3.526  19.922  0.00  0.00    +0.000 N 
ATOM     20  C   UNL     1       1.319   3.631  19.986  0.00  0.00    +0.000 C 
ATOM     21  O   UNL     1       0.535   2.809  19.537  0.00  0.00    +0.000 OA
ATOM     22  H   UNL     1       3.198   4.209  20.454  0.00  0.00    +0.000 HD
BRANCH  19  24
ATOM     23  C   UNL     1       3.685   2.699  17.861  0.00  0.00    +0.000 C 
ATOM     24  C   UNL     1       3.330   2.388  19.309  0.00  0.00    +0.000 C 
ATOM     25  C   UNL     1       4.570   1.977  20.096  0.00  0.00    +0.000 C 
ENDBRANCH  19  24
ENDBRANCH  18  20
ENDBRANCH  17  18
ENDBRANCH   1  17
BRANCH   2  26
ATOM     26  C   UNL     1       2.967   6.677  17.882  0.00  0.00    +0.000 C 
BRANCH  26  27
ATOM     27  O   UNL     1       4.183   7.377  17.564  0.00  0.00    +0.000 OA
BRANCH  27  28
ATOM     28  C   UNL     1       4.979   6.758  16.665  0.00  0.00    +0.000 C 
ATOM     29  O   UNL     1       5.025   7.009  15.465  0.00  0.00    +0.000 OA
ATOM     30  N   UNL     1       5.724   5.801  17.293  0.00  0.00    +0.000 N 
ATOM     31  H   UNL     1       5.630   5.753  18.297  0.00  0.00    +0.000 HD
BRANCH  30  32
ATOM     32  C   UNL     1       6.777   5.065  16.610  0.00  0.00    +0.000 C 
ATOM     33  C   UNL     1       7.759   4.456  17.609  0.00  0.00    +0.000 C 
ATOM     34  C   UNL     1       6.194   3.977  15.716  0.00  0.00    +0.000 C 
ENDBRANCH  30  32
ENDBRANCH  27  28
ENDBRANCH  26  27
ENDBRANCH   2  26
TORSDOF 8
ENDMDL
MODEL 5
REMARK VINA RESULT:      -7.6      4.625      8.461
REMARK  Name = 
REMARK  13 active torsions:
REMARK  status: ('A' for Active; 'I' for Inactive)
REMARK    1  A    between atoms: C_1  and  C_2
REMARK    2  A    between atoms: C_2  and  C_3
REMARK    3  A    between atoms: C_2  and  N_4
REMARK    4  A    between atoms: C_5  and  O_7
REMARK    5  A    between atoms: O_7  and  C_8
REMARK    6  A    between atoms: C_8  and  C_9
REMARK    7  A    between atoms: C_10  and  C_11
REMARK    8  A    between atoms: C_11  and  O_12
REMARK    9  A    between atoms: O_12  and  C_13
REMARK   10  A    between atoms: N_15  and  C_16
REMARK   11  A    between atoms: C_16  and  C_17
REMARK   12  A    between atoms: C_16  and  C_18
REMARK   13  A    between atoms: N_19  and  C_20
REMARK                            x       y       z     vdW  Elec       q    Type
REMARK                         _______ _______ _______ _____ _____    ______ ____
ROOT
ATOM      1  C   UNL     1       1.823   7.577  20.103  0.00  0.00    +0.000 A 
ATOM      2  C   UNL     1       2.163   8.250  18.939  0.00  0.00    +0.000 A 
ATOM      3  N   UNL     1       1.600   9.520  19.017  0.00  0.00    +0.000 N 
ATOM      4  C   UNL     1       1.754  10.555  18.017  0.00  0.00    +0.000 C 
ATOM      5  C   UNL     1       0.878   9.672  20.209  0.00  0.00    +0.000 A 
ATOM      6  C   UNL     1       0.999   8.444  20.875  0.00  0.00    +0.000 A 
ATOM      7  C   UNL     1       0.356   8.247  22.109  0.00  0.00    +0.000 A 
ATOM      8  C   UNL     1      -0.382   9.262  22.694  0.00  0.00    +0.000 A 
ATOM      9  C   UNL     1      -0.493  10.495  22.072  0.00  0.00    +0.000 A 
ATOM     10  C   UNL     1      -1.227  11.486  22.732  0.00  0.00    +0.000 A 
ATOM     11  C   UNL     1      -1.373  12.754  22.176  0.00  0.00    +0.000 A 
ATOM     12 CL   UNL     1      -2.281  13.917  23.076  0.00  0.00    +0.000 Cl
ATOM     13  C   UNL     1      -0.787  13.034  20.942  0.00  0.00    +0.000 A 
ATOM     14 CL   UNL     1      -0.927  14.592  20.201  0.00  0.00    +0.000 Cl
ATOM     15  C   UNL     1      -0.053  12.048  20.261  0.00  0.00    +0.000 A 
ATOM     16  C   UNL     1       0.122  10.754  20.810  0.00  0.00    +0.000 A 
ENDROOT
BRANCH   1  17
ATOM     17  C   UNL     1       2.219   6.192  20.521  0.00  0.00    +0.000 C 
BRANCH  17  18
ATOM     18  O   UNL     1       1.111   5.285  20.550  0.00  0.00    +0.000 OA
BRANCH  18  20
ATOM     19  N   UNL     1       2.276   3.718  19.511  0.00  0.00    +0.000 N 
ATOM     20  C   UNL     1       1.465   3.979  20.573  0.00  0.00    +0.000 C 
ATOM     21  O   UNL     1       1.131   3.157  21.413  0.00  0.00    +0.000 OA
ATOM     22  H   UNL     1       2.578   4.520  18.976  0.00  0.00    +0.000 HD
BRANCH  19  24
ATOM     23  C   UNL     1       2.665   1.994  17.828  0.00  0.00    +0.000 C 
ATOM     24  C   UNL     1       2.845   2.404  19.283  0.00  0.00    +0.000 C 
ATOM     25  C   UNL     1       4.318   2.368  19.680  0.00  0.00    +0.000 C 
ENDBRANCH  19  24
ENDBRANCH  18  20
ENDBRANCH  17  18
ENDBRANCH   1  17
BRANCH   2  26
ATOM     26  C   UNL     1       2.986   7.735  17.793  0.00  0.00    +0.000 C 
BRANCH  26  27
ATOM     27  O   UNL     1       3.073   6.303  17.905  0.00  0.00    +0.000 OA
BRANCH  27  28
ATOM     28  C   UNL     1       4.217   5.762  17.431  0.00  0.00    +0.000 C 
ATOM     29  O   UNL     1       4.286   4.784  16.693  0.00  0.00    +0.000 OA
ATOM     30  N   UNL     1       5.288   6.464  17.904  0.00  0.00    +0.000 N 
ATOM     31  H   UNL     1       5.075   7.288  18.447  0.00  0.00    +0.000 HD
BRANCH  30  32
ATOM     32  C   UNL     1       6.646   6.204  17.452  0.00  0.00    +0.000 C 
ATOM     33  C   UNL     1       7.485   7.481  17.468  0.00  0.00    +0.000 C 
ATOM     34  C   UNL     1       7.311   5.127  18.301  0.00  0.00    +0.000 C 
ENDBRANCH  30  32
ENDBRANCH  27  28
ENDBRANCH  26  27
ENDBRANCH   2  26
TORSDOF 8
ENDMDL
MODEL 6
REMARK VINA RESULT:      -7.6      1.637      4.680
REMARK  Name = 
REMARK  13 active torsions:
REMARK  status: ('A' for Active; 'I' for Inactive)
REMARK    1  A    between atoms: C_1  and  C_2
REMARK    2  A    between atoms: C_2  and  C_3
REMARK    3  A    between atoms: C_2  and  N_4
REMARK    4  A    between atoms: C_5  and  O_7
REMARK    5  A    between atoms: O_7  and  C_8
REMARK    6  A    between atoms: C_8  and  C_9
REMARK    7  A    between atoms: C_10  and  C_11
REMARK    8  A    between atoms: C_11  and  O_12
REMARK    9  A    between atoms: O_12  and  C_13
REMARK   10  A    between atoms: N_15  and  C_16
REMARK   11  A    between atoms: C_16  and  C_17
REMARK   12  A    between atoms: C_16  and  C_18
REMARK   13  A    between atoms: N_19  and  C_20
REMARK                            x       y       z     vdW  Elec       q    Type
REMARK                         _______ _______ _______ _____ _____    ______ ____
ROOT
ATOM      1  C   UNL     1       0.552  11.507  20.039  0.00  0.00    +0.000 A 
ATOM      2  C   UNL     1       0.068  11.095  21.272  0.00  0.00    +0.000 A 
ATOM      3  N   UNL     1       0.393   9.750  21.414  0.00  0.00    +0.000 N 
ATOM      4  C   UNL     1       0.102   8.949  22.584  0.00  0.00    +0.000 C 
ATOM      5  C   UNL     1       1.061   9.276  20.276  0.00  0.00    +0.000 A 
ATOM      6  C   UNL     1       1.136  10.373  19.407  0.00  0.00    +0.000 A 
ATOM      7  C   UNL     1       1.730  10.228  18.141  0.00  0.00    +0.000 A 
ATOM      8  C   UNL     1       2.266   9.015  17.745  0.00  0.00    +0.000 A 
ATOM      9  C   UNL     1       2.233   7.922  18.597  0.00  0.00    +0.000 A 
ATOM     10  C   UNL     1       2.821   6.735  18.146  0.00  0.00    +0.000 A 
ATOM     11  C   UNL     1       2.837   5.599  18.949  0.00  0.00    +0.000 A 
ATOM     12 CL   UNL     1       3.605   4.187  18.314  0.00  0.00    +0.000 Cl
ATOM     13  C   UNL     1       2.251   5.643  20.214  0.00  0.00    +0.000 A 
ATOM     14 CL   UNL     1       2.244   4.266  21.263  0.00  0.00    +0.000 Cl
ATOM     15  C   UNL     1       1.648   6.826  20.680  0.00  0.00    +0.000 A 
ATOM     16  C   UNL     1       1.629   7.999  19.888  0.00  0.00    +0.000 A 
ENDROOT
BRANCH   1  17
ATOM     17  C   UNL     1       0.493  12.878  19.432  0.00  0.00    +0.000 C 
BRANCH  17  18
ATOM     18  O   UNL     1      -0.182  12.896  18.169  0.00  0.00    +0.000 OA
BRANCH  18  20
ATOM     19  N   UNL     1      -1.702  11.713  17.080  0.00  0.00    +0.000 N 
ATOM     20  C   UNL     1      -1.450  12.425  18.214  0.00  0.00    +0.000 C 
ATOM     21  O   UNL     1      -2.248  12.590  19.124  0.00  0.00    +0.000 OA
ATOM     22  H   UNL     1      -0.909  11.545  16.477  0.00  0.00    +0.000 HD
BRANCH  19  24
ATOM     23  C   UNL     1      -3.238  10.916  15.360  0.00  0.00    +0.000 C 
ATOM     24  C   UNL     1      -2.974  11.056  16.852  0.00  0.00    +0.000 C 
ATOM     25  C   UNL     1      -3.020   9.696  17.542  0.00  0.00    +0.000 C 
ENDBRANCH  19  24
ENDBRANCH  18  20
ENDBRANCH  17  18
ENDBRANCH   1  17
BRANCH   2  26
ATOM     26  C   UNL     1      -0.666  11.923  22.288  0.00  0.00    +0.000 C 
BRANCH  26  27
ATOM     27  O   UNL     1      -2.045  11.512  22.297  0.00  0.00    +0.000 OA
BRANCH  27  28
ATOM     28  C   UNL     1      -2.921  12.463  22.689  0.00  0.00    +0.000 C 
ATOM     29  O   UNL     1      -3.774  12.326  23.560  0.00  0.00    +0.000 OA
ATOM     30  N   UNL     1      -2.720  13.601  21.961  0.00  0.00    +0.000 N 
ATOM     31  H   UNL     1      -1.935  13.589  21.326  0.00  0.00    +0.000 HD
BRANCH  30  32
ATOM     32  C   UNL     1      -3.418  14.843  22.255  0.00  0.00    +0.000 C 
ATOM     33  C   UNL     1      -2.470  15.878  22.857  0.00  0.00    +0.000 C 
ATOM     34  C   UNL     1      -4.087  15.405  21.006  0.00  0.00    +0.000 C 
ENDBRANCH  30  32
ENDBRANCH  27  28
ENDBRANCH  26  27
ENDBRANCH   2  26
TORSDOF 8
ENDMDL
MODEL 7
REMARK VINA RESULT:      -7.6      4.694      8.600
REMARK  Name = 
REMARK  13 active torsions:
REMARK  status: ('A' for Active; 'I' for Inactive)
REMARK    1  A    between atoms: C_1  and  C_2
REMARK    2  A    between atoms: C_2  and  C_3
REMARK    3  A    between atoms: C_2  and  N_4
REMARK    4  A    between atoms: C_5  and  O_7
REMARK    5  A    between atoms: O_7  and  C_8
REMARK    6  A    between atoms: C_8  and  C_9
REMARK    7  A    between atoms: C_10  and  C_11
REMARK    8  A    between atoms: C_11  and  O_12
REMARK    9  A    between atoms: O_12  and  C_13
REMARK   10  A    between atoms: N_15  and  C_16
REMARK   11  A    between atoms: C_16  and  C_17
REMARK   12  A    between atoms: C_16  and  C_18
REMARK   13  A    between atoms: N_19  and  C_20
REMARK                            x       y       z     vdW  Elec       q    Type
REMARK                         _______ _______ _______ _____ _____    ______ ____
ROOT
ATOM      1  C   UNL     1       1.701   7.112  20.262  0.00  0.00    +0.000 A 
ATOM      2  C   UNL     1       2.121   7.614  19.039  0.00  0.00    +0.000 A 
ATOM      3  N   UNL     1       1.741   8.951  18.989  0.00  0.00    +0.000 N 
ATOM      4  C   UNL     1       2.029   9.852  17.893  0.00  0.00    +0.000 C 
ATOM      5  C   UNL     1       1.057   9.318  20.156  0.00  0.00    +0.000 A 
ATOM      6  C   UNL     1       1.011   8.157  20.940  0.00  0.00    +0.000 A 
ATOM      7  C   UNL     1       0.356   8.173  22.183  0.00  0.00    +0.000 A 
ATOM      8  C   UNL     1      -0.230   9.332  22.661  0.00  0.00    +0.000 A 
ATOM      9  C   UNL     1      -0.173  10.502  21.921  0.00  0.00    +0.000 A 
ATOM     10  C   UNL     1      -0.758  11.646  22.475  0.00  0.00    +0.000 A 
ATOM     11  C   UNL     1      -0.730  12.861  21.798  0.00  0.00    +0.000 A 
ATOM     12 CL   UNL     1      -1.461  14.221  22.573  0.00  0.00    +0.000 Cl
ATOM     13  C   UNL     1      -0.121  12.935  20.545  0.00  0.00    +0.000 A 
ATOM     14 CL   UNL     1      -0.048  14.417  19.654  0.00  0.00    +0.000 Cl
ATOM     15  C   UNL     1       0.465  11.793  19.969  0.00  0.00    +0.000 A 
ATOM     16  C   UNL     1       0.462  10.548  20.643  0.00  0.00    +0.000 A 
ENDROOT
BRANCH   1  17
ATOM     17  C   UNL     1       1.903   5.732  20.815  0.00  0.00    +0.000 C 
BRANCH  17  18
ATOM     18  O   UNL     1       0.806   4.856  20.532  0.00  0.00    +0.000 OA
BRANCH  18  20
ATOM     19  N   UNL     1       2.527   3.616  19.902  0.00  0.00    +0.000 N 
ATOM     20  C   UNL     1       1.168   3.686  19.955  0.00  0.00    +0.000 C 
ATOM     21  O   UNL     1       0.409   2.817  19.555  0.00  0.00    +0.000 OA
ATOM     22  H   UNL     1       3.028   4.344  20.391  0.00  0.00    +0.000 HD
BRANCH  19  24
ATOM     23  C   UNL     1       3.402   2.610  17.859  0.00  0.00    +0.000 C 
ATOM     24  C   UNL     1       3.215   2.461  19.362  0.00  0.00    +0.000 C 
ATOM     25  C   UNL     1       4.557   2.246  20.057  0.00  0.00    +0.000 C 
ENDBRANCH  19  24
ENDBRANCH  18  20
ENDBRANCH  17  18
ENDBRANCH   1  17
BRANCH   2  26
ATOM     26  C   UNL     1       2.856   6.880  17.954  0.00  0.00    +0.000 C 
BRANCH  26  27
ATOM     27  O   UNL     1       3.781   5.967  18.572  0.00  0.00    +0.000 OA
BRANCH  27  28
ATOM     28  C   UNL     1       5.007   5.926  18.005  0.00  0.00    +0.000 C 
ATOM     29  O   UNL     1       5.258   6.197  16.836  0.00  0.00    +0.000 OA
ATOM     30  N   UNL     1       5.928   5.528  18.931  0.00  0.00    +0.000 N 
ATOM     31  H   UNL     1       5.587   5.405  19.874  0.00  0.00    +0.000 HD
BRANCH  30  32
ATOM     32  C   UNL     1       7.357   5.526  18.654  0.00  0.00    +0.000 C 
ATOM     33  C   UNL     1       7.705   4.513  17.566  0.00  0.00    +0.000 C 
ATOM     34  C   UNL     1       7.839   6.916  18.254  0.00  0.00    +0.000 C 
ENDBRANCH  30  32
ENDBRANCH  27  28
ENDBRANCH  26  27
ENDBRANCH   2  26
TORSDOF 8
ENDMDL
MODEL 8
REMARK VINA RESULT:      -7.5      1.525      4.992
REMARK  Name = 
REMARK  13 active torsions:
REMARK  status: ('A' for Active; 'I' for Inactive)
REMARK    1  A    between atoms: C_1  and  C_2
REMARK    2  A    between atoms: C_2  and  C_3
REMARK    3  A    between atoms: C_2  and  N_4
REMARK    4  A    between atoms: C_5  and  O_7
REMARK    5  A    between atoms: O_7  and  C_8
REMARK    6  A    between atoms: C_8  and  C_9
REMARK    7  A    between atoms: C_10  and  C_11
REMARK    8  A    between atoms: C_11  and  O_12
REMARK    9  A    between atoms: O_12  and  C_13
REMARK   10  A    between atoms: N_15  and  C_16
REMARK   11  A    between atoms: C_16  and  C_17
REMARK   12  A    between atoms: C_16  and  C_18
REMARK   13  A    between atoms: N_19  and  C_20
REMARK                            x       y       z     vdW  Elec       q    Type
REMARK                         _______ _______ _______ _____ _____    ______ ____
ROOT
ATOM      1  C   UNL     1       0.419  11.283  19.938  0.00  0.00    +0.000 A 
ATOM      2  C   UNL     1      -0.162  10.834  21.115  0.00  0.00    +0.000 A 
ATOM      3  N   UNL     1       0.199   9.499  21.270  0.00  0.00    +0.000 N 
ATOM      4  C   UNL     1      -0.170   8.670  22.397  0.00  0.00    +0.000 C 
ATOM      5  C   UNL     1       0.989   9.069  20.195  0.00  0.00    +0.000 A 
ATOM      6  C   UNL     1       1.103  10.182  19.350  0.00  0.00    +0.000 A 
ATOM      7  C   UNL     1       1.818  10.079  18.145  0.00  0.00    +0.000 A 
ATOM      8  C   UNL     1       2.436   8.893  17.786  0.00  0.00    +0.000 A 
ATOM      9  C   UNL     1       2.365   7.787  18.617  0.00  0.00    +0.000 A 
ATOM     10  C   UNL     1       3.037   6.630  18.210  0.00  0.00    +0.000 A 
ATOM     11  C   UNL     1       3.022   5.482  18.997  0.00  0.00    +0.000 A 
ATOM     12 CL   UNL     1       3.899   4.110  18.419  0.00  0.00    +0.000 Cl
ATOM     13  C   UNL     1       2.319   5.485  20.201  0.00  0.00    +0.000 A 
ATOM     14 CL   UNL     1       2.266   4.092  21.227  0.00  0.00    +0.000 Cl
ATOM     15  C   UNL     1       1.630   6.636  20.622  0.00  0.00    +0.000 A 
ATOM     16  C   UNL     1       1.640   7.821  19.847  0.00  0.00    +0.000 A 
ENDROOT
BRANCH   1  17
ATOM     17  C   UNL     1       0.365  12.661  19.346  0.00  0.00    +0.000 C 
BRANCH  17  18
ATOM     18  O   UNL     1      -0.252  12.683  18.054  0.00  0.00    +0.000 OA
BRANCH  18  20
ATOM     19  N   UNL     1      -1.789  11.554  16.932  0.00  0.00    +0.000 N 
ATOM     20  C   UNL     1      -1.547  12.290  18.052  0.00  0.00    +0.000 C 
ATOM     21  O   UNL     1      -2.374  12.536  18.917  0.00  0.00    +0.000 OA
ATOM     22  H   UNL     1      -0.980  11.317  16.374  0.00  0.00    +0.000 HD
BRANCH  19  24
ATOM     23  C   UNL     1      -3.252  10.702  15.175  0.00  0.00    +0.000 C 
ATOM     24  C   UNL     1      -3.086  10.966  16.665  0.00  0.00    +0.000 C 
ATOM     25  C   UNL     1      -3.284   9.684  17.469  0.00  0.00    +0.000 C 
ENDBRANCH  19  24
ENDBRANCH  18  20
ENDBRANCH  17  18
ENDBRANCH   1  17
BRANCH   2  26
ATOM     26  C   UNL     1      -1.019  11.617  22.068  0.00  0.00    +0.000 C 
BRANCH  26  27
ATOM     27  O   UNL     1      -0.182  12.563  22.758  0.00  0.00    +0.000 OA
BRANCH  27  28
ATOM     28  C   UNL     1      -0.672  13.821  22.818  0.00  0.00    +0.000 C 
ATOM     29  O   UNL     1      -0.249  14.779  22.180  0.00  0.00    +0.000 OA
ATOM     30  N   UNL     1      -1.709  13.868  23.706  0.00  0.00    +0.000 N 
ATOM     31  H   UNL     1      -1.991  12.985  24.106  0.00  0.00    +0.000 HD
BRANCH  30  32
ATOM     32  C   UNL     1      -2.528  15.058  23.879  0.00  0.00    +0.000 C 
ATOM     33  C   UNL     1      -3.852  14.927  23.129  0.00  0.00    +0.000 C 
ATOM     34  C   UNL     1      -2.785  15.337  25.355  0.00  0.00    +0.000 C 
ENDBRANCH  30  32
ENDBRANCH  27  28
ENDBRANCH  26  27
ENDBRANCH   2  26
TORSDOF 8
ENDMDL
MODEL 9
REMARK VINA RESULT:      -7.4      2.233      4.736
REMARK  Name = 
REMARK  13 active torsions:
REMARK  status: ('A' for Active; 'I' for Inactive)
REMARK    1  A    between atoms: C_1  and  C_2
REMARK    2  A    between atoms: C_2  and  C_3
REMARK    3  A    between atoms: C_2  and  N_4
REMARK    4  A    between atoms: C_5  and  O_7
REMARK    5  A    between atoms: O_7  and  C_8
REMARK    6  A    between atoms: C_8  and  C_9
REMARK    7  A    between atoms: C_10  and  C_11
REMARK    8  A    between atoms: C_11  and  O_12
REMARK    9  A    between atoms: O_12  and  C_13
REMARK   10  A    between atoms: N_15  and  C_16
REMARK   11  A    between atoms: C_16  and  C_17
REMARK   12  A    between atoms: C_16  and  C_18
REMARK   13  A    between atoms: N_19  and  C_20
REMARK                            x       y       z     vdW  Elec       q    Type
REMARK                         _______ _______ _______ _____ _____    ______ ____
ROOT
ATOM      1  C   UNL     1      -0.023  11.971  20.731  0.00  0.00    +0.000 A 
ATOM      2  C   UNL     1      -0.377  11.370  21.930  0.00  0.00    +0.000 A 
ATOM      3  N   UNL     1       0.066  10.053  21.878  0.00  0.00    +0.000 N 
ATOM      4  C   UNL     1      -0.069   9.093  22.953  0.00  0.00    +0.000 C 
ATOM      5  C   UNL     1       0.683   9.783  20.649  0.00  0.00    +0.000 A 
ATOM      6  C   UNL     1       0.602  10.979  19.923  0.00  0.00    +0.000 A 
ATOM      7  C   UNL     1       1.109  11.043  18.613  0.00  0.00    +0.000 A 
ATOM      8  C   UNL     1       1.712   9.941  18.033  0.00  0.00    +0.000 A 
ATOM      9  C   UNL     1       1.832   8.755  18.739  0.00  0.00    +0.000 A 
ATOM     10  C   UNL     1       2.479   7.689  18.104  0.00  0.00    +0.000 A 
ATOM     11  C   UNL     1       2.650   6.470  18.753  0.00  0.00    +0.000 A 
ATOM     12 CL   UNL     1       3.480   5.221  17.895  0.00  0.00    +0.000 Cl
ATOM     13  C   UNL     1       2.159   6.308  20.048  0.00  0.00    +0.000 A 
ATOM     14 CL   UNL     1       2.343   4.819  20.911  0.00  0.00    +0.000 Cl
ATOM     15  C   UNL     1       1.498   7.365  20.698  0.00  0.00    +0.000 A 
ATOM     16  C   UNL     1       1.324   8.620  20.066  0.00  0.00    +0.000 A 
ENDROOT
BRANCH   1  17
ATOM     17  C   UNL     1      -0.239  13.394  20.309  0.00  0.00    +0.000 C 
BRANCH  17  18
ATOM     18  O   UNL     1      -1.492  13.589  19.641  0.00  0.00    +0.000 OA
BRANCH  18  20
ATOM     19  N   UNL     1      -3.636  13.492  20.179  0.00  0.00    +0.000 N 
ATOM     20  C   UNL     1      -2.457  14.130  20.421  0.00  0.00    +0.000 C 
ATOM     21  O   UNL     1      -2.306  15.033  21.229  0.00  0.00    +0.000 OA
ATOM     22  H   UNL     1      -3.584  12.675  19.586  0.00  0.00    +0.000 HD
BRANCH  19  24
ATOM     23  C   UNL     1      -5.593  14.948  20.170  0.00  0.00    +0.000 C 
ATOM     24  C   UNL     1      -4.852  13.830  20.890  0.00  0.00    +0.000 C 
ATOM     25  C   UNL     1      -5.747  12.607  21.061  0.00  0.00    +0.000 C 
ENDBRANCH  19  24
ENDBRANCH  18  20
ENDBRANCH  17  18
ENDBRANCH   1  17
BRANCH   2  26
ATOM     26  C   UNL     1      -1.097  11.999  23.089  0.00  0.00    +0.000 C 
BRANCH  26  27
ATOM     27  O   UNL     1      -2.512  11.820  22.894  0.00  0.00    +0.000 OA
BRANCH  27  28
ATOM     28  C   UNL     1      -3.297  12.496  23.761  0.00  0.00    +0.000 C 
ATOM     29  O   UNL     1      -4.296  12.046  24.312  0.00  0.00    +0.000 OA
ATOM     30  N   UNL     1      -2.816  13.763  23.926  0.00  0.00    +0.000 N 
ATOM     31  H   UNL     1      -1.944  13.971  23.461  0.00  0.00    +0.000 HD
BRANCH  30  32
ATOM     32  C   UNL     1      -3.370  14.681  24.910  0.00  0.00    +0.000 C 
ATOM     33  C   UNL     1      -2.264  15.467  25.612  0.00  0.00    +0.000 C 
ATOM     34  C   UNL     1      -4.368  15.636  24.266  0.00  0.00    +0.000 C 
ENDBRANCH  30  32
ENDBRANCH  27  28
ENDBRANCH  26  27
ENDBRANCH   2  26
TORSDOF 8
ENDMDL
