MODEL 1
REMARK VINA RESULT:      -8.1      0.000      0.000
REMARK  Name = 
REMARK  7 active torsions:
REMARK  status: ('A' for Active; 'I' for Inactive)
REMARK    1  A    between atoms: C_1  and  C_2
REMARK    2  A    between atoms: C_2  and  C_3
REMARK    3  A    between atoms: C_2  and  C_4
REMARK    4  A    between atoms: C_4  and  C_5
REMARK    5  A    between atoms: C_7  and  C_8
REMARK    6  A    between atoms: C_8  and  N_9
REMARK    7  A    between atoms: C_10  and  C_12
REMARK                            x       y       z     vdW  Elec       q    Type
REMARK                         _______ _______ _______ _____ _____    ______ ____
ROOT
ATOM      1  N   UNL     1       5.327   5.565  17.869  0.00  0.00    +0.000 N 
ATOM      2  C   UNL     1       4.031   5.262  18.197  0.00  0.00    +0.000 C 
ATOM      3  O   UNL     1       3.590   4.114  18.195  0.00  0.00    +0.000 OA
ATOM      4  H   UNL     1       5.625   6.526  17.993  0.00  0.00    +0.000 HD
ENDROOT
BRANCH   2   5
ATOM      5  C   UNL     1       3.216   6.427  18.548  0.00  0.00    +0.000 A 
ATOM      6  C   UNL     1       2.989   7.523  17.738  0.00  0.00    +0.000 A 
ATOM      7  N   UNL     1       2.180   8.340  18.461  0.00  0.00    +0.000 N 
ATOM      8  C   UNL     1       1.966   7.770  19.693  0.00  0.00    +0.000 A 
ATOM      9  N   UNL     1       2.567   6.596  19.769  0.00  0.00    +0.000 NA
ATOM     10  C   UNL     1       1.127   8.465  20.721  0.00  0.00    +0.000 C 
ATOM     11  N   UNL     1       0.988   9.914  20.459  0.00  0.00    +0.000 NA
ATOM     12  C   UNL     1       0.609  10.141  19.056  0.00  0.00    +0.000 C 
ATOM     13  C   UNL     1       1.670   9.637  18.070  0.00  0.00    +0.000 C 
ATOM     14  H   UNL     1       1.892  10.352  20.644  0.00  0.00    +0.000 HD
ENDBRANCH   2   5
BRANCH   1  15
ATOM     15  C   UNL     1       6.284   4.542  17.513  0.00  0.00    +0.000 C 
BRANCH  15  18
ATOM     16  C   UNL     1       6.679   4.310  13.877  0.00  0.00    +0.000 A 
ATOM     17  C   UNL     1       6.092   3.812  15.014  0.00  0.00    +0.000 A 
ATOM     18  C   UNL     1       6.612   4.611  16.060  0.00  0.00    +0.000 A 
ATOM     19  N   UNL     1       7.465   5.532  15.587  0.00  0.00    +0.000 NA
ATOM     20  O   UNL     1       7.500   5.341  14.213  0.00  0.00    +0.000 OA
BRANCH  16  21
ATOM     21  C   UNL     1       6.574   3.961  12.437  0.00  0.00    +0.000 C 
BRANCH  21  23
ATOM     22  C   UNL     1       4.324   3.307  11.433  0.00  0.00    +0.000 C 
ATOM     23  C   UNL     1       5.587   2.815  12.143  0.00  0.00    +0.000 C 
ATOM     24  C   UNL     1       6.272   1.748  11.282  0.00  0.00    +0.000 C 
ENDBRANCH  21  23
ENDBRANCH  16  21
ENDBRANCH  15  18
ENDBRANCH   1  15
TORSDOF 5
ENDMDL
MODEL 2
REMARK VINA RESULT:      -7.7      0.792      1.338
REMARK  Name = 
REMARK  7 active torsions:
REMARK  status: ('A' for Active; 'I' for Inactive)
REMARK    1  A    between atoms: C_1  and  C_2
REMARK    2  A    between atoms: C_2  and  C_3
REMARK    3  A    between atoms: C_2  and  C_4
REMARK    4  A    between atoms: C_4  and  C_5
REMARK    5  A    between atoms: C_7  and  C_8
REMARK    6  A    between atoms: C_8  and  N_9
REMARK    7  A    between atoms: C_10  and  C_12
REMARK                            x       y       z     vdW  Elec       q    Type
REMARK                         _______ _______ _______ _____ _____    ______ ____
ROOT
ATOM      1  N   UNL     1       5.000   5.597  17.878  0.00  0.00    +0.000 N 
ATOM      2  C   UNL     1       3.643   5.447  17.998  0.00  0.00    +0.000 C 
ATOM      3  O   UNL     1       3.064   4.384  17.779  0.00  0.00    +0.000 OA
ATOM      4  H   UNL     1       5.397   6.482  18.174  0.00  0.00    +0.000 HD
ENDROOT
BRANCH   2   5
ATOM      5  C   UNL     1       2.940   6.665  18.409  0.00  0.00    +0.000 A 
ATOM      6  C   UNL     1       2.327   6.866  19.630  0.00  0.00    +0.000 A 
ATOM      7  N   UNL     1       1.819   8.124  19.572  0.00  0.00    +0.000 N 
ATOM      8  C   UNL     1       2.080   8.647  18.329  0.00  0.00    +0.000 A 
ATOM      9  N   UNL     1       2.778   7.790  17.605  0.00  0.00    +0.000 NA
ATOM     10  C   UNL     1       1.610  10.022  17.964  0.00  0.00    +0.000 C 
ATOM     11  N   UNL     1       0.514  10.500  18.834  0.00  0.00    +0.000 NA
ATOM     12  C   UNL     1       0.862  10.290  20.249  0.00  0.00    +0.000 C 
ATOM     13  C   UNL     1       1.057   8.809  20.594  0.00  0.00    +0.000 C 
ATOM     14  H   UNL     1      -0.323   9.961  18.605  0.00  0.00    +0.000 HD
ENDBRANCH   2   5
BRANCH   1  15
ATOM     15  C   UNL     1       5.859   4.498  17.500  0.00  0.00    +0.000 C 
BRANCH  15  18
ATOM     16  C   UNL     1       6.452   4.216  13.895  0.00  0.00    +0.000 A 
ATOM     17  C   UNL     1       5.963   3.635  15.039  0.00  0.00    +0.000 A 
ATOM     18  C   UNL     1       6.220   4.585  16.057  0.00  0.00    +0.000 A 
ATOM     19  N   UNL     1       6.833   5.670  15.560  0.00  0.00    +0.000 NA
ATOM     20  O   UNL     1       6.972   5.435  14.200  0.00  0.00    +0.000 OA
BRANCH  16  21
ATOM     21  C   UNL     1       6.500   3.789  12.473  0.00  0.00    +0.000 C 
BRANCH  21  23
ATOM     22  C   UNL     1       4.250   3.362  11.352  0.00  0.00    +0.000 C 
ATOM     23  C   UNL     1       5.433   2.743  12.100  0.00  0.00    +0.000 C 
ATOM     24  C   UNL     1       6.062   1.645  11.235  0.00  0.00    +0.000 C 
ENDBRANCH  21  23
ENDBRANCH  16  21
ENDBRANCH  15  18
ENDBRANCH   1  15
TORSDOF 5
ENDMDL
MODEL 3
REMARK VINA RESULT:      -7.5      3.365      3.642
REMARK  Name = 
REMARK  7 active torsions:
REMARK  status: ('A' for Active; 'I' for Inactive)
REMARK    1  A    between atoms: C_1  and  C_2
REMARK    2  A    between atoms: C_2  and  C_3
REMARK    3  A    between atoms: C_2  and  C_4
REMARK    4  A    between atoms: C_4  and  C_5
REMARK    5  A    between atoms: C_7  and  C_8
REMARK    6  A    between atoms: C_8  and  N_9
REMARK    7  A    between atoms: C_10  and  C_12
REMARK                            x       y       z     vdW  Elec       q    Type
REMARK                         _______ _______ _______ _____ _____    ______ ____
ROOT
ATOM      1  N   UNL     1       6.115   4.482  17.243  0.00  0.00    +0.000 N 
ATOM      2  C   UNL     1       5.871   4.562  18.590  0.00  0.00    +0.000 C 
ATOM      3  O   UNL     1       6.687   5.012  19.393  0.00  0.00    +0.000 OA
ATOM      4  H   UNL     1       5.348   4.188  16.650  0.00  0.00    +0.000 HD
ENDROOT
BRANCH   2   5
ATOM      5  C   UNL     1       4.554   4.063  18.990  0.00  0.00    +0.000 A 
ATOM      6  C   UNL     1       3.419   4.069  18.203  0.00  0.00    +0.000 A 
ATOM      7  N   UNL     1       2.449   3.510  18.971  0.00  0.00    +0.000 N 
ATOM      8  C   UNL     1       2.977   3.220  20.205  0.00  0.00    +0.000 A 
ATOM      9  N   UNL     1       4.261   3.527  20.241  0.00  0.00    +0.000 NA
ATOM     10  C   UNL     1       2.123   2.616  21.279  0.00  0.00    +0.000 C 
ATOM     11  N   UNL     1       0.678   2.814  21.038  0.00  0.00    +0.000 NA
ATOM     12  C   UNL     1       0.338   2.440  19.656  0.00  0.00    +0.000 C 
ATOM     13  C   UNL     1       1.060   3.307  18.617  0.00  0.00    +0.000 C 
ATOM     14  H   UNL     1       0.471   3.803  21.184  0.00  0.00    +0.000 HD
ENDBRANCH   2   5
BRANCH   1  15
ATOM     15  C   UNL     1       7.355   4.944  16.663  0.00  0.00    +0.000 C 
BRANCH  15  18
ATOM     16  C   UNL     1       6.853   4.276  13.095  0.00  0.00    +0.000 A 
ATOM     17  C   UNL     1       6.593   3.908  14.391  0.00  0.00    +0.000 A 
ATOM     18  C   UNL     1       7.311   4.842  15.176  0.00  0.00    +0.000 A 
ATOM     19  N   UNL     1       7.969   5.717  14.402  0.00  0.00    +0.000 NA
ATOM     20  O   UNL     1       7.674   5.360  13.094  0.00  0.00    +0.000 OA
BRANCH  16  21
ATOM     21  C   UNL     1       6.416   3.749  11.776  0.00  0.00    +0.000 C 
BRANCH  21  23
ATOM     22  C   UNL     1       4.023   3.065  11.223  0.00  0.00    +0.000 C 
ATOM     23  C   UNL     1       5.345   2.646  11.870  0.00  0.00    +0.000 C 
ATOM     24  C   UNL     1       5.857   1.368  11.196  0.00  0.00    +0.000 C 
ENDBRANCH  21  23
ENDBRANCH  16  21
ENDBRANCH  15  18
ENDBRANCH   1  15
TORSDOF 5
ENDMDL
MODEL 4
REMARK VINA RESULT:      -7.1      2.880      3.750
REMARK  Name = 
REMARK  7 active torsions:
REMARK  status: ('A' for Active; 'I' for Inactive)
REMARK    1  A    between atoms: C_1  and  C_2
REMARK    2  A    between atoms: C_2  and  C_3
REMARK    3  A    between atoms: C_2  and  C_4
REMARK    4  A    between atoms: C_4  and  C_5
REMARK    5  A    between atoms: C_7  and  C_8
REMARK    6  A    between atoms: C_8  and  N_9
REMARK    7  A    between atoms: C_10  and  C_12
REMARK                            x       y       z     vdW  Elec       q    Type
REMARK                         _______ _______ _______ _____ _____    ______ ____
ROOT
ATOM      1  N   UNL     1       6.122   5.142  16.942  0.00  0.00    +0.000 N 
ATOM      2  C   UNL     1       6.251   5.239  18.304  0.00  0.00    +0.000 C 
ATOM      3  O   UNL     1       7.238   5.728  18.851  0.00  0.00    +0.000 OA
ATOM      4  H   UNL     1       5.234   4.814  16.582  0.00  0.00    +0.000 HD
ENDROOT
BRANCH   2   5
ATOM      5  C   UNL     1       5.110   4.705  19.051  0.00  0.00    +0.000 A 
ATOM      6  C   UNL     1       3.962   5.402  19.372  0.00  0.00    +0.000 A 
ATOM      7  N   UNL     1       3.187   4.520  20.053  0.00  0.00    +0.000 N 
ATOM      8  C   UNL     1       3.872   3.336  20.178  0.00  0.00    +0.000 A 
ATOM      9  N   UNL     1       5.039   3.411  19.562  0.00  0.00    +0.000 NA
ATOM     10  C   UNL     1       3.270   2.178  20.914  0.00  0.00    +0.000 C 
ATOM     11  N   UNL     1       2.177   2.585  21.821  0.00  0.00    +0.000 NA
ATOM     12  C   UNL     1       1.231   3.463  21.115  0.00  0.00    +0.000 C 
ATOM     13  C   UNL     1       1.883   4.765  20.633  0.00  0.00    +0.000 C 
ATOM     14  H   UNL     1       2.594   3.093  22.603  0.00  0.00    +0.000 HD
ENDBRANCH   2   5
BRANCH   1  15
ATOM     15  C   UNL     1       7.141   5.634  16.042  0.00  0.00    +0.000 C 
BRANCH  15  18
ATOM     16  C   UNL     1       6.366   3.789  12.973  0.00  0.00    +0.000 A 
ATOM     17  C   UNL     1       6.121   3.968  14.311  0.00  0.00    +0.000 A 
ATOM     18  C   UNL     1       7.007   5.001  14.699  0.00  0.00    +0.000 A 
ATOM     19  N   UNL     1       7.748   5.417  13.662  0.00  0.00    +0.000 NA
ATOM     20  O   UNL     1       7.338   4.654  12.577  0.00  0.00    +0.000 OA
BRANCH  16  21
ATOM     21  C   UNL     1       5.790   2.890  11.940  0.00  0.00    +0.000 C 
BRANCH  21  23
ATOM     22  C   UNL     1       5.867   0.495  11.069  0.00  0.00    +0.000 C 
ATOM     23  C   UNL     1       6.678   1.678  11.603  0.00  0.00    +0.000 C 
ATOM     24  C   UNL     1       7.733   2.079  10.565  0.00  0.00    +0.000 C 
ENDBRANCH  21  23
ENDBRANCH  16  21
ENDBRANCH  15  18
ENDBRANCH   1  15
TORSDOF 5
ENDMDL
MODEL 5
REMARK VINA RESULT:      -7.1      2.755      3.672
REMARK  Name = 
REMARK  7 active torsions:
REMARK  status: ('A' for Active; 'I' for Inactive)
REMARK    1  A    between atoms: C_1  and  C_2
REMARK    2  A    between atoms: C_2  and  C_3
REMARK    3  A    between atoms: C_2  and  C_4
REMARK    4  A    between atoms: C_4  and  C_5
REMARK    5  A    between atoms: C_7  and  C_8
REMARK    6  A    between atoms: C_8  and  N_9
REMARK    7  A    between atoms: C_10  and  C_12
REMARK                            x       y       z     vdW  Elec       q    Type
REMARK                         _______ _______ _______ _____ _____    ______ ____
ROOT
ATOM      1  N   UNL     1       6.065   4.873  16.622  0.00  0.00    +0.000 N 
ATOM      2  C   UNL     1       6.263   4.576  17.945  0.00  0.00    +0.000 C 
ATOM      3  O   UNL     1       7.379   4.510  18.458  0.00  0.00    +0.000 OA
ATOM      4  H   UNL     1       5.108   5.001  16.313  0.00  0.00    +0.000 HD
ENDROOT
BRANCH   2   5
ATOM      5  C   UNL     1       5.028   4.342  18.697  0.00  0.00    +0.000 A 
ATOM      6  C   UNL     1       4.523   3.105  19.048  0.00  0.00    +0.000 A 
ATOM      7  N   UNL     1       3.381   3.367  19.733  0.00  0.00    +0.000 N 
ATOM      8  C   UNL     1       3.180   4.725  19.752  0.00  0.00    +0.000 A 
ATOM      9  N   UNL     1       4.176   5.347  19.146  0.00  0.00    +0.000 NA
ATOM     10  C   UNL     1       1.973   5.311  20.421  0.00  0.00    +0.000 C 
ATOM     11  N   UNL     1       0.886   4.325  20.600  0.00  0.00    +0.000 NA
ATOM     12  C   UNL     1       1.416   3.088  21.194  0.00  0.00    +0.000 C 
ATOM     13  C   UNL     1       2.459   2.405  20.300  0.00  0.00    +0.000 C 
ATOM     14  H   UNL     1       0.496   4.121  19.679  0.00  0.00    +0.000 HD
ENDBRANCH   2   5
BRANCH   1  15
ATOM     15  C   UNL     1       7.166   5.153  15.729  0.00  0.00    +0.000 C 
BRANCH  15  18
ATOM     16  C   UNL     1       6.075   3.506  12.643  0.00  0.00    +0.000 A 
ATOM     17  C   UNL     1       5.971   3.596  14.009  0.00  0.00    +0.000 A 
ATOM     18  C   UNL     1       6.893   4.607  14.369  0.00  0.00    +0.000 A 
ATOM     19  N   UNL     1       7.521   5.095  13.289  0.00  0.00    +0.000 NA
ATOM     20  O   UNL     1       7.000   4.402  12.205  0.00  0.00    +0.000 OA
BRANCH  16  21
ATOM     21  C   UNL     1       5.394   2.671  11.619  0.00  0.00    +0.000 C 
BRANCH  21  23
ATOM     22  C   UNL     1       7.801   2.006  11.106  0.00  0.00    +0.000 C 
ATOM     23  C   UNL     1       6.321   1.657  10.924  0.00  0.00    +0.000 C 
ATOM     24  C   UNL     1       6.059   0.251  11.475  0.00  0.00    +0.000 C 
ENDBRANCH  21  23
ENDBRANCH  16  21
ENDBRANCH  15  18
ENDBRANCH   1  15
TORSDOF 5
ENDMDL
MODEL 6
REMARK VINA RESULT:      -6.9      2.985      3.814
REMARK  Name = 
REMARK  7 active torsions:
REMARK  status: ('A' for Active; 'I' for Inactive)
REMARK    1  A    between atoms: C_1  and  C_2
REMARK    2  A    between atoms: C_2  and  C_3
REMARK    3  A    between atoms: C_2  and  C_4
REMARK    4  A    between atoms: C_4  and  C_5
REMARK    5  A    between atoms: C_7  and  C_8
REMARK    6  A    between atoms: C_8  and  N_9
REMARK    7  A    between atoms: C_10  and  C_12
REMARK                            x       y       z     vdW  Elec       q    Type
REMARK                         _______ _______ _______ _____ _____    ______ ____
ROOT
ATOM      1  N   UNL     1       5.881   4.950  16.496  0.00  0.00    +0.000 N 
ATOM      2  C   UNL     1       6.193   4.512  17.756  0.00  0.00    +0.000 C 
ATOM      3  O   UNL     1       7.349   4.394  18.159  0.00  0.00    +0.000 OA
ATOM      4  H   UNL     1       4.902   5.107  16.288  0.00  0.00    +0.000 HD
ENDROOT
BRANCH   2   5
ATOM      5  C   UNL     1       5.027   4.193  18.584  0.00  0.00    +0.000 A 
ATOM      6  C   UNL     1       3.812   4.847  18.546  0.00  0.00    +0.000 A 
ATOM      7  N   UNL     1       3.038   4.216  19.467  0.00  0.00    +0.000 N 
ATOM      8  C   UNL     1       3.786   3.239  20.075  0.00  0.00    +0.000 A 
ATOM      9  N   UNL     1       4.995   3.187  19.546  0.00  0.00    +0.000 NA
ATOM     10  C   UNL     1       3.198   2.391  21.162  0.00  0.00    +0.000 C 
ATOM     11  N   UNL     1       2.003   3.004  21.779  0.00  0.00    +0.000 NA
ATOM     12  C   UNL     1       1.068   3.457  20.737  0.00  0.00    +0.000 C 
ATOM     13  C   UNL     1       1.674   4.537  19.832  0.00  0.00    +0.000 C 
ATOM     14  H   UNL     1       2.313   3.806  22.330  0.00  0.00    +0.000 HD
ENDBRANCH   2   5
BRANCH   1  15
ATOM     15  C   UNL     1       6.901   5.329  15.545  0.00  0.00    +0.000 C 
BRANCH  15  18
ATOM     16  C   UNL     1       5.792   3.580  12.522  0.00  0.00    +0.000 A 
ATOM     17  C   UNL     1       5.546   3.896  13.835  0.00  0.00    +0.000 A 
ATOM     18  C   UNL     1       6.660   4.677  14.226  0.00  0.00    +0.000 A 
ATOM     19  N   UNL     1       7.529   4.819  13.214  0.00  0.00    +0.000 NA
ATOM     20  O   UNL     1       6.976   4.131  12.144  0.00  0.00    +0.000 OA
BRANCH  16  21
ATOM     21  C   UNL     1       5.040   2.807  11.499  0.00  0.00    +0.000 C 
BRANCH  21  23
ATOM     22  C   UNL     1       3.656   4.240   9.909  0.00  0.00    +0.000 C 
ATOM     23  C   UNL     1       3.650   3.386  11.179  0.00  0.00    +0.000 C 
ATOM     24  C   UNL     1       2.637   2.247  11.019  0.00  0.00    +0.000 C 
ENDBRANCH  21  23
ENDBRANCH  16  21
ENDBRANCH  15  18
ENDBRANCH   1  15
TORSDOF 5
ENDMDL
MODEL 7
REMARK VINA RESULT:      -6.9      1.200      1.411
REMARK  Name = 
REMARK  7 active torsions:
REMARK  status: ('A' for Active; 'I' for Inactive)
REMARK    1  A    between atoms: C_1  and  C_2
REMARK    2  A    between atoms: C_2  and  C_3
REMARK    3  A    between atoms: C_2  and  C_4
REMARK    4  A    between atoms: C_4  and  C_5
REMARK    5  A    between atoms: C_7  and  C_8
REMARK    6  A    between atoms: C_8  and  N_9
REMARK    7  A    between atoms: C_10  and  C_12
REMARK                            x       y       z     vdW  Elec       q    Type
REMARK                         _______ _______ _______ _____ _____    ______ ____
ROOT
ATOM      1  N   UNL     1       4.781   5.642  19.110  0.00  0.00    +0.000 N 
ATOM      2  C   UNL     1       3.432   5.441  19.245  0.00  0.00    +0.000 C 
ATOM      3  O   UNL     1       2.913   4.326  19.208  0.00  0.00    +0.000 OA
ATOM      4  H   UNL     1       5.127   6.584  19.252  0.00  0.00    +0.000 HD
ENDROOT
BRANCH   2   5
ATOM      5  C   UNL     1       2.661   6.671  19.437  0.00  0.00    +0.000 A 
ATOM      6  C   UNL     1       2.530   7.689  18.513  0.00  0.00    +0.000 A 
ATOM      7  N   UNL     1       1.730   8.611  19.108  0.00  0.00    +0.000 N 
ATOM      8  C   UNL     1       1.427   8.178  20.376  0.00  0.00    +0.000 A 
ATOM      9  N   UNL     1       1.963   6.991  20.598  0.00  0.00    +0.000 NA
ATOM     10  C   UNL     1       0.575   9.011  21.285  0.00  0.00    +0.000 C 
ATOM     11  N   UNL     1       0.523  10.430  20.876  0.00  0.00    +0.000 NA
ATOM     12  C   UNL     1       0.226  10.533  19.438  0.00  0.00    +0.000 C 
ATOM     13  C   UNL     1       1.306   9.884  18.565  0.00  0.00    +0.000 C 
ATOM     14  H   UNL     1       1.438  10.843  21.065  0.00  0.00    +0.000 HD
ENDBRANCH   2   5
BRANCH   1  15
ATOM     15  C   UNL     1       5.703   4.542  18.931  0.00  0.00    +0.000 C 
BRANCH  15  18
ATOM     16  C   UNL     1       6.669   4.791  15.405  0.00  0.00    +0.000 A 
ATOM     17  C   UNL     1       5.660   4.808  16.335  0.00  0.00    +0.000 A 
ATOM     18  C   UNL     1       6.311   4.582  17.571  0.00  0.00    +0.000 A 
ATOM     19  N   UNL     1       7.633   4.430  17.399  0.00  0.00    +0.000 NA
ATOM     20  O   UNL     1       7.853   4.567  16.035  0.00  0.00    +0.000 OA
BRANCH  16  21
ATOM     21  C   UNL     1       6.704   4.975  13.931  0.00  0.00    +0.000 C 
BRANCH  21  23
ATOM     22  C   UNL     1       4.899   3.574  12.801  0.00  0.00    +0.000 C 
ATOM     23  C   UNL     1       6.388   3.695  13.135  0.00  0.00    +0.000 C 
ATOM     24  C   UNL     1       7.203   3.676  11.837  0.00  0.00    +0.000 C 
ENDBRANCH  21  23
ENDBRANCH  16  21
ENDBRANCH  15  18
ENDBRANCH   1  15
TORSDOF 5
ENDMDL
MODEL 8
REMARK VINA RESULT:      -6.9      2.805      3.567
REMARK  Name = 
REMARK  7 active torsions:
REMARK  status: ('A' for Active; 'I' for Inactive)
REMARK    1  A    between atoms: C_1  and  C_2
REMARK    2  A    between atoms: C_2  and  C_3
REMARK    3  A    between atoms: C_2  and  C_4
REMARK    4  A    between atoms: C_4  and  C_5
REMARK    5  A    between atoms: C_7  and  C_8
REMARK    6  A    between atoms: C_8  and  N_9
REMARK    7  A    between atoms: C_10  and  C_12
REMARK                            x       y       z     vdW  Elec       q    Type
REMARK                         _______ _______ _______ _____ _____    ______ ____
ROOT
ATOM      1  N   UNL     1       6.063   5.040  16.886  0.00  0.00    +0.000 N 
ATOM      2  C   UNL     1       4.891   5.701  17.148  0.00  0.00    +0.000 C 
ATOM      3  O   UNL     1       4.617   6.798  16.664  0.00  0.00    +0.000 OA
ATOM      4  H   UNL     1       6.158   4.100  17.252  0.00  0.00    +0.000 HD
ENDROOT
BRANCH   2   5
ATOM      5  C   UNL     1       3.993   4.987  18.058  0.00  0.00    +0.000 A 
ATOM      6  C   UNL     1       3.362   3.789  17.788  0.00  0.00    +0.000 A 
ATOM      7  N   UNL     1       2.645   3.503  18.906  0.00  0.00    +0.000 N 
ATOM      8  C   UNL     1       2.805   4.528  19.805  0.00  0.00    +0.000 A 
ATOM      9  N   UNL     1       3.635   5.437  19.326  0.00  0.00    +0.000 NA
ATOM     10  C   UNL     1       2.103   4.500  21.129  0.00  0.00    +0.000 C 
ATOM     11  N   UNL     1       0.948   3.578  21.143  0.00  0.00    +0.000 NA
ATOM     12  C   UNL     1       1.335   2.271  20.589  0.00  0.00    +0.000 C 
ATOM     13  C   UNL     1       1.783   2.361  19.126  0.00  0.00    +0.000 C 
ATOM     14  H   UNL     1       0.214   3.990  20.564  0.00  0.00    +0.000 HD
ENDBRANCH   2   5
BRANCH   1  15
ATOM     15  C   UNL     1       7.064   5.583  15.995  0.00  0.00    +0.000 C 
BRANCH  15  18
ATOM     16  C   UNL     1       6.372   3.747  12.900  0.00  0.00    +0.000 A 
ATOM     17  C   UNL     1       6.093   3.920  14.233  0.00  0.00    +0.000 A 
ATOM     18  C   UNL     1       6.965   4.955  14.647  0.00  0.00    +0.000 A 
ATOM     19  N   UNL     1       7.728   5.378  13.628  0.00  0.00    +0.000 NA
ATOM     20  O   UNL     1       7.348   4.618  12.531  0.00  0.00    +0.000 OA
BRANCH  16  21
ATOM     21  C   UNL     1       5.825   2.849  11.851  0.00  0.00    +0.000 C 
BRANCH  21  23
ATOM     22  C   UNL     1       5.894   0.420  11.080  0.00  0.00    +0.000 C 
ATOM     23  C   UNL     1       6.710   1.624  11.555  0.00  0.00    +0.000 C 
ATOM     24  C   UNL     1       7.753   1.983  10.490  0.00  0.00    +0.000 C 
ENDBRANCH  21  23
ENDBRANCH  16  21
ENDBRANCH  15  18
ENDBRANCH   1  15
TORSDOF 5
ENDMDL
MODEL 9
REMARK VINA RESULT:      -6.9      3.255      4.001
REMARK  Name = 
REMARK  7 active torsions:
REMARK  status: ('A' for Active; 'I' for Inactive)
REMARK    1  A    between atoms: C_1  and  C_2
REMARK    2  A    between atoms: C_2  and  C_3
REMARK    3  A    between atoms: C_2  and  C_4
REMARK    4  A    between atoms: C_4  and  C_5
REMARK    5  A    between atoms: C_7  and  C_8
REMARK    6  A    between atoms: C_8  and  N_9
REMARK    7  A    between atoms: C_10  and  C_12
REMARK                            x       y       z     vdW  Elec       q    Type
REMARK                         _______ _______ _______ _____ _____    ______ ____
ROOT
ATOM      1  N   UNL     1       5.879   4.514  16.415  0.00  0.00    +0.000 N 
ATOM      2  C   UNL     1       6.039   4.446  17.775  0.00  0.00    +0.000 C 
ATOM      3  O   UNL     1       7.112   4.660  18.336  0.00  0.00    +0.000 OA
ATOM      4  H   UNL     1       4.938   4.417  16.053  0.00  0.00    +0.000 HD
ENDROOT
BRANCH   2   5
ATOM      5  C   UNL     1       4.818   4.092  18.503  0.00  0.00    +0.000 A 
ATOM      6  C   UNL     1       4.762   3.335  19.657  0.00  0.00    +0.000 A 
ATOM      7  N   UNL     1       3.444   3.270  19.978  0.00  0.00    +0.000 N 
ATOM      8  C   UNL     1       2.724   3.931  19.014  0.00  0.00    +0.000 A 
ATOM      9  N   UNL     1       3.533   4.459  18.113  0.00  0.00    +0.000 NA
ATOM     10  C   UNL     1       1.228   4.002  19.090  0.00  0.00    +0.000 C 
ATOM     11  N   UNL     1       0.653   2.957  19.963  0.00  0.00    +0.000 NA
ATOM     12  C   UNL     1       1.364   2.922  21.251  0.00  0.00    +0.000 C 
ATOM     13  C   UNL     1       2.848   2.568  21.094  0.00  0.00    +0.000 C 
ATOM     14  H   UNL     1       0.763   2.059  19.489  0.00  0.00    +0.000 HD
ENDBRANCH   2   5
BRANCH   1  15
ATOM     15  C   UNL     1       6.971   4.867  15.535  0.00  0.00    +0.000 C 
BRANCH  15  18
ATOM     16  C   UNL     1       5.799   3.526  12.333  0.00  0.00    +0.000 A 
ATOM     17  C   UNL     1       5.613   3.616  13.690  0.00  0.00    +0.000 A 
ATOM     18  C   UNL     1       6.694   4.410  14.144  0.00  0.00    +0.000 A 
ATOM     19  N   UNL     1       7.487   4.772  13.125  0.00  0.00    +0.000 NA
ATOM     20  O   UNL     1       6.918   4.217  11.988  0.00  0.00    +0.000 OA
BRANCH  16  21
ATOM     21  C   UNL     1       5.040   2.865  11.239  0.00  0.00    +0.000 C 
BRANCH  21  23
ATOM     22  C   UNL     1       3.478   4.283   9.808  0.00  0.00    +0.000 C 
ATOM     23  C   UNL     1       3.610   3.409  11.057  0.00  0.00    +0.000 C 
ATOM     24  C   UNL     1       2.619   2.243  10.967  0.00  0.00    +0.000 C 
ENDBRANCH  21  23
ENDBRANCH  16  21
ENDBRANCH  15  18
ENDBRANCH   1  15
TORSDOF 5
ENDMDL
