MODEL 1
REMARK VINA RESULT:      -6.6      0.000      0.000
REMARK  Name = 
REMARK  5 active torsions:
REMARK  status: ('A' for Active; 'I' for Inactive)
REMARK    1  A    between atoms: C_1  and  C_2
REMARK    2  A    between atoms: C_2  and  O_3
REMARK    3  A    between atoms: O_3  and  C_4
REMARK    4  A    between atoms: C_19  and  C_20
REMARK    5  A    between atoms: C_19  and  C_21
REMARK                            x       y       z     vdW  Elec       q    Type
REMARK                         _______ _______ _______ _____ _____    ______ ____
ROOT
ATOM      1  C   UNL     1       3.149   4.007  19.212  0.00  0.00    +0.000 C 
ATOM      2  C   UNL     1       3.769   5.316  19.834  0.00  0.00    +0.000 C 
ATOM      3  C   UNL     1       2.913   6.536  19.486  0.00  0.00    +0.000 A 
ATOM      4  C   UNL     1       2.370   7.441  20.391  0.00  0.00    +0.000 A 
ATOM      5  C   UNL     1       1.644   8.536  19.908  0.00  0.00    +0.000 A 
ATOM      6  C   UNL     1       1.473   8.729  18.532  0.00  0.00    +0.000 A 
ATOM      7  C   UNL     1       2.030   7.834  17.617  0.00  0.00    +0.000 A 
ATOM      8  C   UNL     1       2.753   6.744  18.099  0.00  0.00    +0.000 A 
ATOM      9  C   UNL     1       3.427   5.667  17.268  0.00  0.00    +0.000 C 
ATOM     10  N   UNL     1       4.866   5.659  17.719  0.00  0.00    +0.000 N 
ATOM     11  C   UNL     1       5.903   5.819  16.878  0.00  0.00    +0.000 A 
ATOM     12  C   UNL     1       7.204   5.784  17.377  0.00  0.00    +0.000 A 
ATOM     13  C   UNL     1       7.418   5.595  18.741  0.00  0.00    +0.000 A 
ATOM     14  C   UNL     1       6.332   5.451  19.594  0.00  0.00    +0.000 A 
ATOM     15  C   UNL     1       5.054   5.487  19.056  0.00  0.00    +0.000 A 
ATOM     16  C   UNL     1       2.834   4.268  17.665  0.00  0.00    +0.000 C 
ATOM     17  C   UNL     1       1.302   4.270  17.421  0.00  0.00    +0.000 C 
ATOM     18  C   UNL     1       3.431   3.176  16.758  0.00  0.00    +0.000 C 
ENDROOT
BRANCH   1  19
ATOM     19  O   UNL     1       4.027   2.839  19.311  0.00  0.00    +0.000 OA
BRANCH  19  21
ATOM     20  C   UNL     1       2.764   2.430  21.423  0.00  0.00    +0.000 C 
ATOM     21  C   UNL     1       4.023   2.206  20.599  0.00  0.00    +0.000 C 
ENDBRANCH  19  21
ENDBRANCH   1  19
TORSDOF 2
ENDMDL
MODEL 2
REMARK VINA RESULT:      -6.4      1.448      3.817
REMARK  Name = 
REMARK  5 active torsions:
REMARK  status: ('A' for Active; 'I' for Inactive)
REMARK    1  A    between atoms: C_1  and  C_2
REMARK    2  A    between atoms: C_2  and  O_3
REMARK    3  A    between atoms: O_3  and  C_4
REMARK    4  A    between atoms: C_19  and  C_20
REMARK    5  A    between atoms: C_19  and  C_21
REMARK                            x       y       z     vdW  Elec       q    Type
REMARK                         _______ _______ _______ _____ _____    ______ ____
ROOT
ATOM      1  C   UNL     1       3.229   5.676  19.764  0.00  0.00    +0.000 C 
ATOM      2  C   UNL     1       4.540   4.802  19.778  0.00  0.00    +0.000 C 
ATOM      3  C   UNL     1       5.656   5.493  18.992  0.00  0.00    +0.000 A 
ATOM      4  C   UNL     1       6.928   5.794  19.466  0.00  0.00    +0.000 A 
ATOM      5  C   UNL     1       7.854   6.391  18.603  0.00  0.00    +0.000 A 
ATOM      6  C   UNL     1       7.515   6.673  17.275  0.00  0.00    +0.000 A 
ATOM      7  C   UNL     1       6.245   6.357  16.786  0.00  0.00    +0.000 A 
ATOM      8  C   UNL     1       5.324   5.763  17.646  0.00  0.00    +0.000 A 
ATOM      9  C   UNL     1       3.903   5.351  17.305  0.00  0.00    +0.000 C 
ATOM     10  N   UNL     1       3.813   3.891  17.671  0.00  0.00    +0.000 N 
ATOM     11  C   UNL     1       3.436   2.936  16.804  0.00  0.00    +0.000 A 
ATOM     12  C   UNL     1       3.366   1.610  17.230  0.00  0.00    +0.000 A 
ATOM     13  C   UNL     1       3.696   1.287  18.545  0.00  0.00    +0.000 A 
ATOM     14  C   UNL     1       4.102   2.287  19.418  0.00  0.00    +0.000 A 
ATOM     15  C   UNL     1       4.153   3.594  18.955  0.00  0.00    +0.000 A 
ATOM     16  C   UNL     1       2.909   6.107  18.257  0.00  0.00    +0.000 C 
ATOM     17  C   UNL     1       3.092   7.637  18.084  0.00  0.00    +0.000 C 
ATOM     18  C   UNL     1       1.458   5.781  17.855  0.00  0.00    +0.000 C 
ENDROOT
BRANCH   1  19
ATOM     19  O   UNL     1       2.057   4.981  20.302  0.00  0.00    +0.000 OA
BRANCH  19  21
ATOM     20  C   UNL     1       1.601   2.971  21.707  0.00  0.00    +0.000 C 
ATOM     21  C   UNL     1       2.287   4.320  21.555  0.00  0.00    +0.000 C 
ENDBRANCH  19  21
ENDBRANCH   1  19
TORSDOF 2
ENDMDL
MODEL 3
REMARK VINA RESULT:      -6.2      1.554      4.672
REMARK  Name = 
REMARK  5 active torsions:
REMARK  status: ('A' for Active; 'I' for Inactive)
REMARK    1  A    between atoms: C_1  and  C_2
REMARK    2  A    between atoms: C_2  and  O_3
REMARK    3  A    between atoms: O_3  and  C_4
REMARK    4  A    between atoms: C_19  and  C_20
REMARK    5  A    between atoms: C_19  and  C_21
REMARK                            x       y       z     vdW  Elec       q    Type
REMARK                         _______ _______ _______ _____ _____    ______ ____
ROOT
ATOM      1  C   UNL     1       3.136   6.589  19.517  0.00  0.00    +0.000 C 
ATOM      2  C   UNL     1       4.033   5.356  19.919  0.00  0.00    +0.000 C 
ATOM      3  C   UNL     1       5.238   5.239  18.983  0.00  0.00    +0.000 A 
ATOM      4  C   UNL     1       6.573   5.190  19.369  0.00  0.00    +0.000 A 
ATOM      5  C   UNL     1       7.560   5.035  18.388  0.00  0.00    +0.000 A 
ATOM      6  C   UNL     1       7.214   4.918  17.037  0.00  0.00    +0.000 A 
ATOM      7  C   UNL     1       5.874   4.948  16.645  0.00  0.00    +0.000 A 
ATOM      8  C   UNL     1       4.892   5.103  17.622  0.00  0.00    +0.000 A 
ATOM      9  C   UNL     1       3.392   5.162  17.395  0.00  0.00    +0.000 C 
ATOM     10  N   UNL     1       2.812   4.086  18.278  0.00  0.00    +0.000 N 
ATOM     11  C   UNL     1       2.027   3.098  17.817  0.00  0.00    +0.000 A 
ATOM     12  C   UNL     1       1.521   2.151  18.707  0.00  0.00    +0.000 A 
ATOM     13  C   UNL     1       1.843   2.231  20.060  0.00  0.00    +0.000 A 
ATOM     14  C   UNL     1       2.672   3.249  20.511  0.00  0.00    +0.000 A 
ATOM     15  C   UNL     1       3.149   4.174  19.594  0.00  0.00    +0.000 A 
ATOM     16  C   UNL     1       2.844   6.527  17.945  0.00  0.00    +0.000 C 
ATOM     17  C   UNL     1       3.555   7.698  17.219  0.00  0.00    +0.000 C 
ATOM     18  C   UNL     1       1.342   6.648  17.628  0.00  0.00    +0.000 C 
ENDROOT
BRANCH   1  19
ATOM     19  O   UNL     1       1.853   6.635  20.221  0.00  0.00    +0.000 OA
BRANCH  19  21
ATOM     20  C   UNL     1       1.007   8.972  20.416  0.00  0.00    +0.000 C 
ATOM     21  C   UNL     1       1.686   7.780  21.070  0.00  0.00    +0.000 C 
ENDBRANCH  19  21
ENDBRANCH   1  19
TORSDOF 2
ENDMDL
MODEL 4
REMARK VINA RESULT:      -6.1      1.825      4.835
REMARK  Name = 
REMARK  5 active torsions:
REMARK  status: ('A' for Active; 'I' for Inactive)
REMARK    1  A    between atoms: C_1  and  C_2
REMARK    2  A    between atoms: C_2  and  O_3
REMARK    3  A    between atoms: O_3  and  C_4
REMARK    4  A    between atoms: C_19  and  C_20
REMARK    5  A    between atoms: C_19  and  C_21
REMARK                            x       y       z     vdW  Elec       q    Type
REMARK                         _______ _______ _______ _____ _____    ______ ____
ROOT
ATOM      1  C   UNL     1       5.669   3.707  18.265  0.00  0.00    +0.000 C 
ATOM      2  C   UNL     1       4.643   3.847  17.076  0.00  0.00    +0.000 C 
ATOM      3  C   UNL     1       5.377   4.096  15.757  0.00  0.00    +0.000 A 
ATOM      4  C   UNL     1       5.248   3.346  14.593  0.00  0.00    +0.000 A 
ATOM      5  C   UNL     1       5.958   3.733  13.451  0.00  0.00    +0.000 A 
ATOM      6  C   UNL     1       6.782   4.865  13.470  0.00  0.00    +0.000 A 
ATOM      7  C   UNL     1       6.903   5.633  14.631  0.00  0.00    +0.000 A 
ATOM      8  C   UNL     1       6.194   5.247  15.767  0.00  0.00    +0.000 A 
ATOM      9  C   UNL     1       6.198   5.945  17.116  0.00  0.00    +0.000 C 
ATOM     10  N   UNL     1       4.749   6.227  17.422  0.00  0.00    +0.000 N 
ATOM     11  C   UNL     1       4.279   7.456  17.695  0.00  0.00    +0.000 A 
ATOM     12  C   UNL     1       2.926   7.627  17.982  0.00  0.00    +0.000 A 
ATOM     13  C   UNL     1       2.072   6.526  17.972  0.00  0.00    +0.000 A 
ATOM     14  C   UNL     1       2.575   5.267  17.668  0.00  0.00    +0.000 A 
ATOM     15  C   UNL     1       3.929   5.141  17.394  0.00  0.00    +0.000 A 
ATOM     16  C   UNL     1       6.692   4.936  18.213  0.00  0.00    +0.000 C 
ATOM     17  C   UNL     1       8.115   4.436  17.851  0.00  0.00    +0.000 C 
ATOM     18  C   UNL     1       6.802   5.658  19.569  0.00  0.00    +0.000 C 
ENDROOT
BRANCH   1  19
ATOM     19  O   UNL     1       5.036   3.692  19.585  0.00  0.00    +0.000 OA
BRANCH  19  21
ATOM     20  C   UNL     1       2.922   2.785  20.550  0.00  0.00    +0.000 C 
ATOM     21  C   UNL     1       4.245   2.523  19.847  0.00  0.00    +0.000 C 
ENDBRANCH  19  21
ENDBRANCH   1  19
TORSDOF 2
ENDMDL
MODEL 5
REMARK VINA RESULT:      -6.0      6.673      9.267
REMARK  Name = 
REMARK  5 active torsions:
REMARK  status: ('A' for Active; 'I' for Inactive)
REMARK    1  A    between atoms: C_1  and  C_2
REMARK    2  A    between atoms: C_2  and  O_3
REMARK    3  A    between atoms: O_3  and  C_4
REMARK    4  A    between atoms: C_19  and  C_20
REMARK    5  A    between atoms: C_19  and  C_21
REMARK                            x       y       z     vdW  Elec       q    Type
REMARK                         _______ _______ _______ _____ _____    ______ ____
ROOT
ATOM      1  C   UNL     1       0.108  12.631  19.307  0.00  0.00    +0.000 C 
ATOM      2  C   UNL     1      -0.801  11.348  19.198  0.00  0.00    +0.000 C 
ATOM      3  C   UNL     1      -2.281  11.738  19.161  0.00  0.00    +0.000 A 
ATOM      4  C   UNL     1      -3.201  11.374  18.184  0.00  0.00    +0.000 A 
ATOM      5  C   UNL     1      -4.534  11.776  18.320  0.00  0.00    +0.000 A 
ATOM      6  C   UNL     1      -4.946  12.526  19.428  0.00  0.00    +0.000 A 
ATOM      7  C   UNL     1      -4.031  12.881  20.422  0.00  0.00    +0.000 A 
ATOM      8  C   UNL     1      -2.703  12.480  20.286  0.00  0.00    +0.000 A 
ATOM      9  C   UNL     1      -1.567  12.768  21.251  0.00  0.00    +0.000 C 
ATOM     10  N   UNL     1      -0.986  11.420  21.597  0.00  0.00    +0.000 N 
ATOM     11  C   UNL     1      -0.866  10.970  22.857  0.00  0.00    +0.000 A 
ATOM     12  C   UNL     1      -0.303   9.716  23.089  0.00  0.00    +0.000 A 
ATOM     13  C   UNL     1       0.118   8.937  22.013  0.00  0.00    +0.000 A 
ATOM     14  C   UNL     1      -0.034   9.413  20.717  0.00  0.00    +0.000 A 
ATOM     15  C   UNL     1      -0.593  10.669  20.532  0.00  0.00    +0.000 A 
ATOM     16  C   UNL     1      -0.439  13.554  20.494  0.00  0.00    +0.000 C 
ATOM     17  C   UNL     1      -1.021  14.873  19.925  0.00  0.00    +0.000 C 
ATOM     18  C   UNL     1       0.674  13.946  21.484  0.00  0.00    +0.000 C 
ENDROOT
BRANCH   1  19
ATOM     19  O   UNL     1       1.516  12.329  19.571  0.00  0.00    +0.000 OA
BRANCH  19  21
ATOM     20  C   UNL     1       2.653  14.044  18.162  0.00  0.00    +0.000 C 
ATOM     21  C   UNL     1       2.392  12.577  18.461  0.00  0.00    +0.000 C 
ENDBRANCH  19  21
ENDBRANCH   1  19
TORSDOF 2
ENDMDL
MODEL 6
REMARK VINA RESULT:      -6.0      4.878      8.207
REMARK  Name = 
REMARK  5 active torsions:
REMARK  status: ('A' for Active; 'I' for Inactive)
REMARK    1  A    between atoms: C_1  and  C_2
REMARK    2  A    between atoms: C_2  and  O_3
REMARK    3  A    between atoms: O_3  and  C_4
REMARK    4  A    between atoms: C_19  and  C_20
REMARK    5  A    between atoms: C_19  and  C_21
REMARK                            x       y       z     vdW  Elec       q    Type
REMARK                         _______ _______ _______ _____ _____    ______ ____
ROOT
ATOM      1  C   UNL     1       0.318  11.172  18.521  0.00  0.00    +0.000 C 
ATOM      2  C   UNL     1      -0.792  10.110  18.875  0.00  0.00    +0.000 C 
ATOM      3  C   UNL     1      -2.188  10.710  18.693  0.00  0.00    +0.000 A 
ATOM      4  C   UNL     1      -3.209  10.185  17.908  0.00  0.00    +0.000 A 
ATOM      5  C   UNL     1      -4.450  10.832  17.883  0.00  0.00    +0.000 A 
ATOM      6  C   UNL     1      -4.671  11.986  18.645  0.00  0.00    +0.000 A 
ATOM      7  C   UNL     1      -3.655  12.508  19.449  0.00  0.00    +0.000 A 
ATOM      8  C   UNL     1      -2.420  11.863  19.473  0.00  0.00    +0.000 A 
ATOM      9  C   UNL     1      -1.200  12.276  20.276  0.00  0.00    +0.000 C 
ATOM     10  N   UNL     1      -0.826  11.061  21.087  0.00  0.00    +0.000 N 
ATOM     11  C   UNL     1      -0.708  11.075  22.426  0.00  0.00    +0.000 A 
ATOM     12  C   UNL     1      -0.344   9.908  23.096  0.00  0.00    +0.000 A 
ATOM     13  C   UNL     1      -0.117   8.738  22.375  0.00  0.00    +0.000 A 
ATOM     14  C   UNL     1      -0.263   8.741  20.994  0.00  0.00    +0.000 A 
ATOM     15  C   UNL     1      -0.621   9.925  20.366  0.00  0.00    +0.000 A 
ATOM     16  C   UNL     1      -0.004  12.535  19.293  0.00  0.00    +0.000 C 
ATOM     17  C   UNL     1      -0.396  13.645  18.284  0.00  0.00    +0.000 C 
ATOM     18  C   UNL     1       1.212  13.057  20.082  0.00  0.00    +0.000 C 
ENDROOT
BRANCH   1  19
ATOM     19  O   UNL     1       1.672  10.746  18.884  0.00  0.00    +0.000 OA
BRANCH  19  21
ATOM     20  C   UNL     1       2.276   8.416  18.232  0.00  0.00    +0.000 C 
ATOM     21  C   UNL     1       2.305   9.902  17.911  0.00  0.00    +0.000 C 
ENDBRANCH  19  21
ENDBRANCH   1  19
TORSDOF 2
ENDMDL
MODEL 7
REMARK VINA RESULT:      -5.8      9.577     11.804
REMARK  Name = 
REMARK  5 active torsions:
REMARK  status: ('A' for Active; 'I' for Inactive)
REMARK    1  A    between atoms: C_1  and  C_2
REMARK    2  A    between atoms: C_2  and  O_3
REMARK    3  A    between atoms: O_3  and  C_4
REMARK    4  A    between atoms: C_19  and  C_20
REMARK    5  A    between atoms: C_19  and  C_21
REMARK                            x       y       z     vdW  Elec       q    Type
REMARK                         _______ _______ _______ _____ _____    ______ ____
ROOT
ATOM      1  C   UNL     1      11.340  14.888  19.299  0.00  0.00    +0.000 C 
ATOM      2  C   UNL     1      10.190  14.329  20.222  0.00  0.00    +0.000 C 
ATOM      3  C   UNL     1       9.880  12.872  19.873  0.00  0.00    +0.000 A 
ATOM      4  C   UNL     1       9.884  11.799  20.758  0.00  0.00    +0.000 A 
ATOM      5  C   UNL     1       9.531  10.529  20.289  0.00  0.00    +0.000 A 
ATOM      6  C   UNL     1       9.168  10.335  18.951  0.00  0.00    +0.000 A 
ATOM      7  C   UNL     1       9.145  11.412  18.061  0.00  0.00    +0.000 A 
ATOM      8  C   UNL     1       9.496  12.676  18.529  0.00  0.00    +0.000 A 
ATOM      9  C   UNL     1       9.535  13.961  17.721  0.00  0.00    +0.000 C 
ATOM     10  N   UNL     1       8.654  14.929  18.469  0.00  0.00    +0.000 N 
ATOM     11  C   UNL     1       7.609  15.561  17.907  0.00  0.00    +0.000 A 
ATOM     12  C   UNL     1       6.854  16.452  18.668  0.00  0.00    +0.000 A 
ATOM     13  C   UNL     1       7.182  16.672  20.004  0.00  0.00    +0.000 A 
ATOM     14  C   UNL     1       8.254  15.994  20.570  0.00  0.00    +0.000 A 
ATOM     15  C   UNL     1       8.982  15.120  19.776  0.00  0.00    +0.000 A 
ATOM     16  C   UNL     1      10.987  14.555  17.774  0.00  0.00    +0.000 C 
ATOM     17  C   UNL     1      11.990  13.519  17.204  0.00  0.00    +0.000 C 
ATOM     18  C   UNL     1      11.070  15.802  16.873  0.00  0.00    +0.000 C 
ENDROOT
BRANCH   1  19
ATOM     19  O   UNL     1      11.537  16.334  19.420  0.00  0.00    +0.000 OA
BRANCH  19  21
ATOM     20  C   UNL     1      11.561  17.405  21.672  0.00  0.00    +0.000 C 
ATOM     21  C   UNL     1      12.331  16.729  20.549  0.00  0.00    +0.000 C 
ENDBRANCH  19  21
ENDBRANCH   1  19
TORSDOF 2
ENDMDL
MODEL 8
REMARK VINA RESULT:      -5.8      7.096     10.825
REMARK  Name = 
REMARK  5 active torsions:
REMARK  status: ('A' for Active; 'I' for Inactive)
REMARK    1  A    between atoms: C_1  and  C_2
REMARK    2  A    between atoms: C_2  and  O_3
REMARK    3  A    between atoms: O_3  and  C_4
REMARK    4  A    between atoms: C_19  and  C_20
REMARK    5  A    between atoms: C_19  and  C_21
REMARK                            x       y       z     vdW  Elec       q    Type
REMARK                         _______ _______ _______ _____ _____    ______ ____
ROOT
ATOM      1  C   UNL     1      -0.787  13.690  22.813  0.00  0.00    +0.000 C 
ATOM      2  C   UNL     1      -1.595  12.384  23.167  0.00  0.00    +0.000 C 
ATOM      3  C   UNL     1      -0.953  11.159  22.512  0.00  0.00    +0.000 A 
ATOM      4  C   UNL     1      -0.542  10.001  23.164  0.00  0.00    +0.000 A 
ATOM      5  C   UNL     1      -0.012   8.947  22.411  0.00  0.00    +0.000 A 
ATOM      6  C   UNL     1       0.095   9.046  21.019  0.00  0.00    +0.000 A 
ATOM      7  C   UNL     1      -0.331  10.199  20.356  0.00  0.00    +0.000 A 
ATOM      8  C   UNL     1      -0.859  11.247  21.106  0.00  0.00    +0.000 A 
ATOM      9  C   UNL     1      -1.370  12.574  20.572  0.00  0.00    +0.000 C 
ATOM     10  N   UNL     1      -2.779  12.698  21.095  0.00  0.00    +0.000 N 
ATOM     11  C   UNL     1      -3.846  12.890  20.300  0.00  0.00    +0.000 A 
ATOM     12  C   UNL     1      -5.113  13.007  20.869  0.00  0.00    +0.000 A 
ATOM     13  C   UNL     1      -5.264  12.914  22.251  0.00  0.00    +0.000 A 
ATOM     14  C   UNL     1      -4.151  12.695  23.051  0.00  0.00    +0.000 A 
ATOM     15  C   UNL     1      -2.907  12.590  22.446  0.00  0.00    +0.000 A 
ATOM     16  C   UNL     1      -0.551  13.740  21.231  0.00  0.00    +0.000 C 
ATOM     17  C   UNL     1       0.954  13.563  20.905  0.00  0.00    +0.000 C 
ATOM     18  C   UNL     1      -0.986  15.087  20.622  0.00  0.00    +0.000 C 
ENDROOT
BRANCH   1  19
ATOM     19  O   UNL     1      -1.463  14.925  23.216  0.00  0.00    +0.000 OA
BRANCH  19  21
ATOM     20  C   UNL     1      -2.621  15.156  25.413  0.00  0.00    +0.000 C 
ATOM     21  C   UNL     1      -1.333  15.241  24.611  0.00  0.00    +0.000 C 
ENDBRANCH  19  21
ENDBRANCH   1  19
TORSDOF 2
ENDMDL
MODEL 9
REMARK VINA RESULT:      -5.8      8.971     10.953
REMARK  Name = 
REMARK  5 active torsions:
REMARK  status: ('A' for Active; 'I' for Inactive)
REMARK    1  A    between atoms: C_1  and  C_2
REMARK    2  A    between atoms: C_2  and  O_3
REMARK    3  A    between atoms: O_3  and  C_4
REMARK    4  A    between atoms: C_19  and  C_20
REMARK    5  A    between atoms: C_19  and  C_21
REMARK                            x       y       z     vdW  Elec       q    Type
REMARK                         _______ _______ _______ _____ _____    ______ ____
ROOT
ATOM      1  C   UNL     1       9.718  15.135  18.428  0.00  0.00    +0.000 C 
ATOM      2  C   UNL     1       8.584  14.120  18.015  0.00  0.00    +0.000 C 
ATOM      3  C   UNL     1       7.226  14.587  18.542  0.00  0.00    +0.000 A 
ATOM      4  C   UNL     1       6.077  14.787  17.785  0.00  0.00    +0.000 A 
ATOM      5  C   UNL     1       4.895  15.173  18.428  0.00  0.00    +0.000 A 
ATOM      6  C   UNL     1       4.860  15.346  19.817  0.00  0.00    +0.000 A 
ATOM      7  C   UNL     1       6.006  15.129  20.586  0.00  0.00    +0.000 A 
ATOM      8  C   UNL     1       7.181  14.744  19.944  0.00  0.00    +0.000 A 
ATOM      9  C   UNL     1       8.521  14.466  20.603  0.00  0.00    +0.000 C 
ATOM     10  N   UNL     1       8.901  13.076  20.160  0.00  0.00    +0.000 N 
ATOM     11  C   UNL     1       9.188  12.081  21.018  0.00  0.00    +0.000 A 
ATOM     12  C   UNL     1       9.544  10.828  20.523  0.00  0.00    +0.000 A 
ATOM     13  C   UNL     1       9.590  10.614  19.147  0.00  0.00    +0.000 A 
ATOM     14  C   UNL     1       9.271  11.650  18.279  0.00  0.00    +0.000 A 
ATOM     15  C   UNL     1       8.927  12.883  18.813  0.00  0.00    +0.000 A 
ATOM     16  C   UNL     1       9.600  15.432  19.996  0.00  0.00    +0.000 C 
ATOM     17  C   UNL     1       9.168  16.902  20.233  0.00  0.00    +0.000 C 
ATOM     18  C   UNL     1      10.941  15.236  20.726  0.00  0.00    +0.000 C 
ENDROOT
BRANCH   1  19
ATOM     19  O   UNL     1      11.070  14.645  18.154  0.00  0.00    +0.000 OA
BRANCH  19  21
ATOM     20  C   UNL     1      11.319  16.892  17.101  0.00  0.00    +0.000 C 
ATOM     21  C   UNL     1      11.822  15.465  17.246  0.00  0.00    +0.000 C 
ENDBRANCH  19  21
ENDBRANCH   1  19
TORSDOF 2
ENDMDL
