MODEL 1
REMARK VINA RESULT:      -6.5      0.000      0.000
REMARK  Name = 
REMARK  11 active torsions:
REMARK  status: ('A' for Active; 'I' for Inactive)
REMARK    1  A    between atoms: C_1  and  O_2
REMARK    2  A    between atoms: O_2  and  C_3
REMARK    3  A    between atoms: C_7  and  O_8
REMARK    4  A    between atoms: O_8  and  C_9
REMARK    5  A    between atoms: C_11  and  C_12
REMARK    6  A    between atoms: C_14  and  O_15
REMARK    7  A    between atoms: O_15  and  C_16
REMARK    8  A    between atoms: C_17  and  O_18
REMARK    9  A    between atoms: O_18  and  C_19
REMARK   10  A    between atoms: C_20  and  O_21
REMARK   11  A    between atoms: O_21  and  C_22
REMARK                            x       y       z     vdW  Elec       q    Type
REMARK                         _______ _______ _______ _____ _____    ______ ____
ROOT
ATOM      1  C   UNL     1      -5.215  11.101  18.382  0.00  0.00    +0.000 A 
ATOM      2  C   UNL     1      -4.572  12.057  19.163  0.00  0.00    +0.000 A 
ATOM      3  C   UNL     1      -3.190  12.270  19.050  0.00  0.00    +0.000 A 
ATOM      4  C   UNL     1      -2.404  11.487  18.140  0.00  0.00    +0.000 A 
ATOM      5  C   UNL     1      -3.082  10.592  17.288  0.00  0.00    +0.000 A 
ATOM      6  C   UNL     1      -4.465  10.390  17.454  0.00  0.00    +0.000 A 
ATOM      7  C   UNL     1      -0.875  11.668  18.197  0.00  0.00    +0.000 C 
ATOM      8  C   UNL     1      -0.442  12.863  18.966  0.00  0.00    +0.000 C 
ATOM      9  C   UNL     1      -1.260  13.556  19.749  0.00  0.00    +0.000 C 
ATOM     10  C   UNL     1      -0.535  14.664  20.406  0.00  0.00    +0.000 C 
ATOM     11  O   UNL     1       0.805  14.536  19.914  0.00  0.00    +0.000 OA
ATOM     12  C   UNL     1       0.868  13.496  19.023  0.00  0.00    +0.000 C 
ATOM     13  O   UNL     1       1.847  13.181  18.383  0.00  0.00    +0.000 OA
ATOM     14  N   UNL     1      -2.584  13.231  19.903  0.00  0.00    +0.000 N 
ATOM     15  H   UNL     1      -3.192  13.905  20.349  0.00  0.00    +0.000 HD
ENDROOT
BRANCH   7  16
ATOM     16  C   UNL     1      -0.151  10.436  18.754  0.00  0.00    +0.000 A 
ATOM     17  C   UNL     1      -0.569   9.946  19.993  0.00  0.00    +0.000 A 
ATOM     18  C   UNL     1       0.174   8.994  20.689  0.00  0.00    +0.000 A 
ATOM     19  C   UNL     1       1.333   8.444  20.098  0.00  0.00    +0.000 A 
ATOM     20  C   UNL     1       1.677   8.819  18.781  0.00  0.00    +0.000 A 
ATOM     21  C   UNL     1       0.942   9.822  18.129  0.00  0.00    +0.000 A 
BRANCH  18  22
ATOM     22  O   UNL     1      -0.154   8.627  21.976  0.00  0.00    +0.000 OA
ATOM     23  C   UNL     1      -0.316   9.695  22.912  0.00  0.00    +0.000 C 
ENDBRANCH  18  22
BRANCH  19  24
ATOM     24  O   UNL     1       2.060   7.610  20.917  0.00  0.00    +0.000 OA
ATOM     25  C   UNL     1       1.827   6.212  20.824  0.00  0.00    +0.000 C 
ENDBRANCH  19  24
BRANCH  20  26
ATOM     26  O   UNL     1       2.802   8.286  18.196  0.00  0.00    +0.000 OA
ATOM     27  C   UNL     1       2.670   6.969  17.669  0.00  0.00    +0.000 C 
ENDBRANCH  20  26
ENDBRANCH   7  16
BRANCH   1  29
ATOM     28  C   UNL     1      -6.990   9.852  19.355  0.00  0.00    +0.000 C 
ATOM     29  O   UNL     1      -6.562  10.968  18.578  0.00  0.00    +0.000 OA
ENDBRANCH   1  29
BRANCH   5  30
ATOM     30  O   UNL     1      -2.669   9.885  16.197  0.00  0.00    +0.000 OA
ATOM     31  C   UNL     1      -3.043  10.204  14.877  0.00  0.00    +0.000 C 
ENDBRANCH   5  30
TORSDOF 6
ENDMDL
MODEL 2
REMARK VINA RESULT:      -6.4      2.441      6.375
REMARK  Name = 
REMARK  11 active torsions:
REMARK  status: ('A' for Active; 'I' for Inactive)
REMARK    1  A    between atoms: C_1  and  O_2
REMARK    2  A    between atoms: O_2  and  C_3
REMARK    3  A    between atoms: C_7  and  O_8
REMARK    4  A    between atoms: O_8  and  C_9
REMARK    5  A    between atoms: C_11  and  C_12
REMARK    6  A    between atoms: C_14  and  O_15
REMARK    7  A    between atoms: O_15  and  C_16
REMARK    8  A    between atoms: C_17  and  O_18
REMARK    9  A    between atoms: O_18  and  C_19
REMARK   10  A    between atoms: C_20  and  O_21
REMARK   11  A    between atoms: O_21  and  C_22
REMARK                            x       y       z     vdW  Elec       q    Type
REMARK                         _______ _______ _______ _____ _____    ______ ____
ROOT
ATOM      1  C   UNL     1       0.937   9.854  19.644  0.00  0.00    +0.000 A 
ATOM      2  C   UNL     1       0.940  11.049  18.932  0.00  0.00    +0.000 A 
ATOM      3  C   UNL     1       0.302  12.192  19.439  0.00  0.00    +0.000 A 
ATOM      4  C   UNL     1      -0.391  12.143  20.695  0.00  0.00    +0.000 A 
ATOM      5  C   UNL     1      -0.302  10.955  21.448  0.00  0.00    +0.000 A 
ATOM      6  C   UNL     1       0.325   9.825  20.890  0.00  0.00    +0.000 A 
ATOM      7  C   UNL     1      -1.202  13.389  21.099  0.00  0.00    +0.000 C 
ATOM      8  C   UNL     1      -0.899  14.591  20.281  0.00  0.00    +0.000 C 
ATOM      9  C   UNL     1      -0.205  14.542  19.150  0.00  0.00    +0.000 C 
ATOM     10  C   UNL     1      -0.098  15.889  18.549  0.00  0.00    +0.000 C 
ATOM     11  O   UNL     1      -0.813  16.730  19.462  0.00  0.00    +0.000 OA
ATOM     12  C   UNL     1      -1.259  15.982  20.520  0.00  0.00    +0.000 C 
ATOM     13  O   UNL     1      -1.835  16.418  21.492  0.00  0.00    +0.000 OA
ATOM     14  N   UNL     1       0.303  13.372  18.648  0.00  0.00    +0.000 N 
ATOM     15  H   UNL     1       0.983  13.428  17.900  0.00  0.00    +0.000 HD
ENDROOT
BRANCH   7  16
ATOM     16  C   UNL     1      -2.716  13.146  21.073  0.00  0.00    +0.000 A 
ATOM     17  C   UNL     1      -3.392  13.155  22.296  0.00  0.00    +0.000 A 
ATOM     18  C   UNL     1      -4.708  12.710  22.404  0.00  0.00    +0.000 A 
ATOM     19  C   UNL     1      -5.411  12.316  21.244  0.00  0.00    +0.000 A 
ATOM     20  C   UNL     1      -4.786  12.450  19.984  0.00  0.00    +0.000 A 
ATOM     21  C   UNL     1      -3.442  12.847  19.913  0.00  0.00    +0.000 A 
BRANCH  18  22
ATOM     22  O   UNL     1      -5.322  12.572  23.631  0.00  0.00    +0.000 OA
ATOM     23  C   UNL     1      -4.452  12.431  24.756  0.00  0.00    +0.000 C 
ENDBRANCH  18  22
BRANCH  19  24
ATOM     24  O   UNL     1      -6.655  11.776  21.475  0.00  0.00    +0.000 OA
ATOM     25  C   UNL     1      -7.790  12.613  21.309  0.00  0.00    +0.000 C 
ENDBRANCH  19  24
BRANCH  20  26
ATOM     26  O   UNL     1      -5.463  12.072  18.848  0.00  0.00    +0.000 OA
ATOM     27  C   UNL     1      -4.663  11.574  17.779  0.00  0.00    +0.000 C 
ENDBRANCH  20  26
ENDBRANCH   7  16
BRANCH   1  29
ATOM     28  C   UNL     1       1.911   8.939  17.676  0.00  0.00    +0.000 C 
ATOM     29  O   UNL     1       1.580   8.799  19.055  0.00  0.00    +0.000 OA
ENDBRANCH   1  29
BRANCH   5  30
ATOM     30  O   UNL     1      -0.649  10.666  22.736  0.00  0.00    +0.000 OA
ATOM     31  C   UNL     1      -0.193   9.526  23.426  0.00  0.00    +0.000 C 
ENDBRANCH   5  30
TORSDOF 6
ENDMDL
MODEL 3
REMARK VINA RESULT:      -6.4      2.248      5.910
REMARK  Name = 
REMARK  11 active torsions:
REMARK  status: ('A' for Active; 'I' for Inactive)
REMARK    1  A    between atoms: C_1  and  O_2
REMARK    2  A    between atoms: O_2  and  C_3
REMARK    3  A    between atoms: C_7  and  O_8
REMARK    4  A    between atoms: O_8  and  C_9
REMARK    5  A    between atoms: C_11  and  C_12
REMARK    6  A    between atoms: C_14  and  O_15
REMARK    7  A    between atoms: O_15  and  C_16
REMARK    8  A    between atoms: C_17  and  O_18
REMARK    9  A    between atoms: O_18  and  C_19
REMARK   10  A    between atoms: C_20  and  O_21
REMARK   11  A    between atoms: O_21  and  C_22
REMARK                            x       y       z     vdW  Elec       q    Type
REMARK                         _______ _______ _______ _____ _____    ______ ____
ROOT
ATOM      1  C   UNL     1      -3.596  10.772  16.238  0.00  0.00    +0.000 A 
ATOM      2  C   UNL     1      -2.377  10.275  16.688  0.00  0.00    +0.000 A 
ATOM      3  C   UNL     1      -1.897  10.591  17.968  0.00  0.00    +0.000 A 
ATOM      4  C   UNL     1      -2.646  11.456  18.833  0.00  0.00    +0.000 A 
ATOM      5  C   UNL     1      -3.922  11.872  18.402  0.00  0.00    +0.000 A 
ATOM      6  C   UNL     1      -4.352  11.555  17.100  0.00  0.00    +0.000 A 
ATOM      7  C   UNL     1      -1.974  11.885  20.151  0.00  0.00    +0.000 C 
ATOM      8  C   UNL     1      -0.768  11.089  20.494  0.00  0.00    +0.000 C 
ATOM      9  C   UNL     1      -0.170  10.272  19.635  0.00  0.00    +0.000 C 
ATOM     10  C   UNL     1       1.019   9.648  20.254  0.00  0.00    +0.000 C 
ATOM     11  O   UNL     1       1.045  10.197  21.578  0.00  0.00    +0.000 OA
ATOM     12  C   UNL     1      -0.035  11.023  21.751  0.00  0.00    +0.000 C 
ATOM     13  O   UNL     1      -0.331  11.580  22.786  0.00  0.00    +0.000 OA
ATOM     14  N   UNL     1      -0.627  10.087  18.356  0.00  0.00    +0.000 N 
ATOM     15  H   UNL     1      -0.252   9.313  17.822  0.00  0.00    +0.000 HD
ENDROOT
BRANCH   7  16
ATOM     16  C   UNL     1      -1.602  13.373  20.172  0.00  0.00    +0.000 A 
ATOM     17  C   UNL     1      -2.377  14.221  20.968  0.00  0.00    +0.000 A 
ATOM     18  C   UNL     1      -2.277  15.607  20.868  0.00  0.00    +0.000 A 
ATOM     19  C   UNL     1      -1.313  16.178  20.007  0.00  0.00    +0.000 A 
ATOM     20  C   UNL     1      -0.421  15.329  19.316  0.00  0.00    +0.000 A 
ATOM     21  C   UNL     1      -0.585  13.937  19.393  0.00  0.00    +0.000 A 
BRANCH  18  22
ATOM     22  O   UNL     1      -3.147  16.441  21.536  0.00  0.00    +0.000 OA
ATOM     23  C   UNL     1      -4.514  16.382  21.124  0.00  0.00    +0.000 C 
ENDBRANCH  18  22
BRANCH  19  24
ATOM     24  O   UNL     1      -1.381  17.547  19.888  0.00  0.00    +0.000 OA
ATOM     25  C   UNL     1      -2.069  18.089  18.770  0.00  0.00    +0.000 C 
ENDBRANCH  19  24
BRANCH  20  26
ATOM     26  O   UNL     1       0.523  15.875  18.478  0.00  0.00    +0.000 OA
ATOM     27  C   UNL     1       1.884  15.636  18.826  0.00  0.00    +0.000 C 
ENDBRANCH  20  26
ENDBRANCH   7  16
BRANCH   1  29
ATOM     28  C   UNL     1      -2.928   9.949  14.107  0.00  0.00    +0.000 C 
ATOM     29  O   UNL     1      -3.965  10.410  14.971  0.00  0.00    +0.000 OA
ENDBRANCH   1  29
BRANCH   5  30
ATOM     30  O   UNL     1      -4.944  12.496  19.056  0.00  0.00    +0.000 OA
ATOM     31  C   UNL     1      -6.016  11.809  19.658  0.00  0.00    +0.000 C 
ENDBRANCH   5  30
TORSDOF 6
ENDMDL
MODEL 4
REMARK VINA RESULT:      -6.2      2.395      6.093
REMARK  Name = 
REMARK  11 active torsions:
REMARK  status: ('A' for Active; 'I' for Inactive)
REMARK    1  A    between atoms: C_1  and  O_2
REMARK    2  A    between atoms: O_2  and  C_3
REMARK    3  A    between atoms: C_7  and  O_8
REMARK    4  A    between atoms: O_8  and  C_9
REMARK    5  A    between atoms: C_11  and  C_12
REMARK    6  A    between atoms: C_14  and  O_15
REMARK    7  A    between atoms: O_15  and  C_16
REMARK    8  A    between atoms: C_17  and  O_18
REMARK    9  A    between atoms: O_18  and  C_19
REMARK   10  A    between atoms: C_20  and  O_21
REMARK   11  A    between atoms: O_21  and  C_22
REMARK                            x       y       z     vdW  Elec       q    Type
REMARK                         _______ _______ _______ _____ _____    ______ ____
ROOT
ATOM      1  C   UNL     1      -2.655  10.261  16.264  0.00  0.00    +0.000 A 
ATOM      2  C   UNL     1      -1.579   9.891  17.064  0.00  0.00    +0.000 A 
ATOM      3  C   UNL     1      -1.438  10.399  18.364  0.00  0.00    +0.000 A 
ATOM      4  C   UNL     1      -2.392  11.334  18.888  0.00  0.00    +0.000 A 
ATOM      5  C   UNL     1      -3.527  11.624  18.103  0.00  0.00    +0.000 A 
ATOM      6  C   UNL     1      -3.614  11.113  16.794  0.00  0.00    +0.000 A 
ATOM      7  C   UNL     1      -2.076  11.969  20.255  0.00  0.00    +0.000 C 
ATOM      8  C   UNL     1      -0.981  11.288  20.992  0.00  0.00    +0.000 C 
ATOM      9  C   UNL     1      -0.175  10.395  20.431  0.00  0.00    +0.000 C 
ATOM     10  C   UNL     1       0.832   9.920  21.404  0.00  0.00    +0.000 C 
ATOM     11  O   UNL     1       0.518  10.642  22.601  0.00  0.00    +0.000 OA
ATOM     12  C   UNL     1      -0.584  11.428  22.386  0.00  0.00    +0.000 C 
ATOM     13  O   UNL     1      -1.136  12.103  23.227  0.00  0.00    +0.000 OA
ATOM     14  N   UNL     1      -0.297  10.017  19.118  0.00  0.00    +0.000 N 
ATOM     15  H   UNL     1       0.212   9.199  18.808  0.00  0.00    +0.000 HD
ENDROOT
BRANCH   7  16
ATOM     16  C   UNL     1      -1.745  13.463  20.154  0.00  0.00    +0.000 A 
ATOM     17  C   UNL     1      -0.678  13.835  19.333  0.00  0.00    +0.000 A 
ATOM     18  C   UNL     1      -0.150  15.123  19.362  0.00  0.00    +0.000 A 
ATOM     19  C   UNL     1      -0.753  16.108  20.176  0.00  0.00    +0.000 A 
ATOM     20  C   UNL     1      -1.926  15.783  20.892  0.00  0.00    +0.000 A 
ATOM     21  C   UNL     1      -2.400  14.462  20.887  0.00  0.00    +0.000 A 
BRANCH  18  22
ATOM     22  O   UNL     1       0.997  15.446  18.669  0.00  0.00    +0.000 OA
ATOM     23  C   UNL     1       2.204  14.840  19.136  0.00  0.00    +0.000 C 
ENDBRANCH  18  22
BRANCH  19  24
ATOM     24  O   UNL     1      -0.081  17.308  20.229  0.00  0.00    +0.000 OA
ATOM     25  C   UNL     1       0.753  17.560  21.351  0.00  0.00    +0.000 C 
ENDBRANCH  19  24
BRANCH  20  26
ATOM     26  O   UNL     1      -2.523  16.735  21.685  0.00  0.00    +0.000 OA
ATOM     27  C   UNL     1      -2.463  16.507  23.091  0.00  0.00    +0.000 C 
ENDBRANCH  20  26
ENDBRANCH   7  16
BRANCH   1  29
ATOM     28  C   UNL     1      -3.809  10.056  14.193  0.00  0.00    +0.000 C 
ATOM     29  O   UNL     1      -2.691   9.714  15.010  0.00  0.00    +0.000 OA
ENDBRANCH   1  29
BRANCH   5  30
ATOM     30  O   UNL     1      -4.689  12.277  18.392  0.00  0.00    +0.000 OA
ATOM     31  C   UNL     1      -5.953  11.852  17.938  0.00  0.00    +0.000 C 
ENDBRANCH   5  30
TORSDOF 6
ENDMDL
MODEL 5
REMARK VINA RESULT:      -6.2      1.029      1.058
REMARK  Name = 
REMARK  11 active torsions:
REMARK  status: ('A' for Active; 'I' for Inactive)
REMARK    1  A    between atoms: C_1  and  O_2
REMARK    2  A    between atoms: O_2  and  C_3
REMARK    3  A    between atoms: C_7  and  O_8
REMARK    4  A    between atoms: O_8  and  C_9
REMARK    5  A    between atoms: C_11  and  C_12
REMARK    6  A    between atoms: C_14  and  O_15
REMARK    7  A    between atoms: O_15  and  C_16
REMARK    8  A    between atoms: C_17  and  O_18
REMARK    9  A    between atoms: O_18  and  C_19
REMARK   10  A    between atoms: C_20  and  O_21
REMARK   11  A    between atoms: O_21  and  C_22
REMARK                            x       y       z     vdW  Elec       q    Type
REMARK                         _______ _______ _______ _____ _____    ______ ____
ROOT
ATOM      1  C   UNL     1      -4.501  11.679  18.759  0.00  0.00    +0.000 A 
ATOM      2  C   UNL     1      -3.714  12.446  19.613  0.00  0.00    +0.000 A 
ATOM      3  C   UNL     1      -2.318  12.482  19.470  0.00  0.00    +0.000 A 
ATOM      4  C   UNL     1      -1.670  11.704  18.453  0.00  0.00    +0.000 A 
ATOM      5  C   UNL     1      -2.486  11.010  17.537  0.00  0.00    +0.000 A 
ATOM      6  C   UNL     1      -3.879  10.980  17.733  0.00  0.00    +0.000 A 
ATOM      7  C   UNL     1      -0.130  11.670  18.470  0.00  0.00    +0.000 C 
ATOM      8  C   UNL     1       0.482  12.702  19.345  0.00  0.00    +0.000 C 
ATOM      9  C   UNL     1      -0.213  13.408  20.228  0.00  0.00    +0.000 C 
ATOM     10  C   UNL     1       0.674  14.328  20.971  0.00  0.00    +0.000 C 
ATOM     11  O   UNL     1       1.971  14.075  20.417  0.00  0.00    +0.000 OA
ATOM     12  C   UNL     1       1.868  13.141  19.420  0.00  0.00    +0.000 C 
ATOM     13  O   UNL     1       2.779  12.769  18.713  0.00  0.00    +0.000 OA
ATOM     14  N   UNL     1      -1.565  13.251  20.397  0.00  0.00    +0.000 N 
ATOM     15  H   UNL     1      -2.063  13.948  20.935  0.00  0.00    +0.000 HD
ENDROOT
BRANCH   7  16
ATOM     16  C   UNL     1       0.429  10.297  18.864  0.00  0.00    +0.000 A 
ATOM     17  C   UNL     1       0.375   9.941  20.214  0.00  0.00    +0.000 A 
ATOM     18  C   UNL     1       1.066   8.835  20.704  0.00  0.00    +0.000 A 
ATOM     19  C   UNL     1       1.773   8.000  19.810  0.00  0.00    +0.000 A 
ATOM     20  C   UNL     1       1.705   8.264  18.425  0.00  0.00    +0.000 A 
ATOM     21  C   UNL     1       1.048   9.417  17.968  0.00  0.00    +0.000 A 
BRANCH  18  22
ATOM     22  O   UNL     1       1.140   8.574  22.055  0.00  0.00    +0.000 OA
ATOM     23  C   UNL     1       0.309   9.377  22.896  0.00  0.00    +0.000 C 
ENDBRANCH  18  22
BRANCH  19  24
ATOM     24  O   UNL     1       2.522   7.013  20.409  0.00  0.00    +0.000 OA
ATOM     25  C   UNL     1       2.058   5.673  20.320  0.00  0.00    +0.000 C 
ENDBRANCH  19  24
BRANCH  20  26
ATOM     26  O   UNL     1       2.387   7.455  17.546  0.00  0.00    +0.000 OA
ATOM     27  C   UNL     1       3.806   7.589  17.542  0.00  0.00    +0.000 C 
ENDBRANCH  20  26
ENDBRANCH   7  16
BRANCH   1  29
ATOM     28  C   UNL     1      -6.694  11.844  17.851  0.00  0.00    +0.000 C 
ATOM     29  O   UNL     1      -5.849  11.709  18.992  0.00  0.00    +0.000 OA
ENDBRANCH   1  29
BRANCH   5  30
ATOM     30  O   UNL     1      -2.200  10.379  16.362  0.00  0.00    +0.000 OA
ATOM     31  C   UNL     1      -3.066  10.376  15.251  0.00  0.00    +0.000 C 
ENDBRANCH   5  30
TORSDOF 6
ENDMDL
MODEL 6
REMARK VINA RESULT:      -6.2      2.192      5.890
REMARK  Name = 
REMARK  11 active torsions:
REMARK  status: ('A' for Active; 'I' for Inactive)
REMARK    1  A    between atoms: C_1  and  O_2
REMARK    2  A    between atoms: O_2  and  C_3
REMARK    3  A    between atoms: C_7  and  O_8
REMARK    4  A    between atoms: O_8  and  C_9
REMARK    5  A    between atoms: C_11  and  C_12
REMARK    6  A    between atoms: C_14  and  O_15
REMARK    7  A    between atoms: O_15  and  C_16
REMARK    8  A    between atoms: C_17  and  O_18
REMARK    9  A    between atoms: O_18  and  C_19
REMARK   10  A    between atoms: C_20  and  O_21
REMARK   11  A    between atoms: O_21  and  C_22
REMARK                            x       y       z     vdW  Elec       q    Type
REMARK                         _______ _______ _______ _____ _____    ______ ____
ROOT
ATOM      1  C   UNL     1      -2.686  11.155  16.791  0.00  0.00    +0.000 A 
ATOM      2  C   UNL     1      -1.587  10.382  17.154  0.00  0.00    +0.000 A 
ATOM      3  C   UNL     1      -1.137  10.346  18.482  0.00  0.00    +0.000 A 
ATOM      4  C   UNL     1      -1.788  11.129  19.493  0.00  0.00    +0.000 A 
ATOM      5  C   UNL     1      -2.956  11.829  19.131  0.00  0.00    +0.000 A 
ATOM      6  C   UNL     1      -3.357  11.859  17.782  0.00  0.00    +0.000 A 
ATOM      7  C   UNL     1      -1.132  11.163  20.887  0.00  0.00    +0.000 C 
ATOM      8  C   UNL     1      -0.087  10.125  21.082  0.00  0.00    +0.000 C 
ATOM      9  C   UNL     1       0.423   9.414  20.083  0.00  0.00    +0.000 C 
ATOM     10  C   UNL     1       1.462   8.489  20.583  0.00  0.00    +0.000 C 
ATOM     11  O   UNL     1       1.499   8.744  21.993  0.00  0.00    +0.000 OA
ATOM     12  C   UNL     1       0.554   9.684  22.313  0.00  0.00    +0.000 C 
ATOM     13  O   UNL     1       0.292  10.059  23.434  0.00  0.00    +0.000 OA
ATOM     14  N   UNL     1       0.015   9.572  18.784  0.00  0.00    +0.000 N 
ATOM     15  H   UNL     1       0.294   8.872  18.108  0.00  0.00    +0.000 HD
ENDROOT
BRANCH   7  16
ATOM     16  C   UNL     1      -0.534  12.533  21.229  0.00  0.00    +0.000 A 
ATOM     17  C   UNL     1       0.479  13.020  20.400  0.00  0.00    +0.000 A 
ATOM     18  C   UNL     1       1.246  14.127  20.759  0.00  0.00    +0.000 A 
ATOM     19  C   UNL     1       0.945  14.830  21.948  0.00  0.00    +0.000 A 
ATOM     20  C   UNL     1      -0.175  14.437  22.713  0.00  0.00    +0.000 A 
ATOM     21  C   UNL     1      -0.892  13.285  22.355  0.00  0.00    +0.000 A 
BRANCH  18  22
ATOM     22  O   UNL     1       2.343  14.513  20.020  0.00  0.00    +0.000 OA
ATOM     23  C   UNL     1       2.129  14.671  18.616  0.00  0.00    +0.000 C 
ENDBRANCH  18  22
BRANCH  19  24
ATOM     24  O   UNL     1       1.838  15.825  22.273  0.00  0.00    +0.000 OA
ATOM     25  C   UNL     1       1.491  17.166  21.956  0.00  0.00    +0.000 C 
ENDBRANCH  19  24
BRANCH  20  26
ATOM     26  O   UNL     1      -0.478  15.116  23.869  0.00  0.00    +0.000 OA
ATOM     27  C   UNL     1      -1.747  14.828  24.451  0.00  0.00    +0.000 C 
ENDBRANCH  20  26
ENDBRANCH   7  16
BRANCH   1  29
ATOM     28  C   UNL     1      -2.887   9.878  14.794  0.00  0.00    +0.000 C 
ATOM     29  O   UNL     1      -3.035  11.125  15.469  0.00  0.00    +0.000 OA
ENDBRANCH   1  29
BRANCH   5  30
ATOM     30  O   UNL     1      -3.903  12.467  19.878  0.00  0.00    +0.000 OA
ATOM     31  C   UNL     1      -5.287  12.354  19.641  0.00  0.00    +0.000 C 
ENDBRANCH   5  30
TORSDOF 6
ENDMDL
MODEL 7
REMARK VINA RESULT:      -6.2      2.572      6.180
REMARK  Name = 
REMARK  11 active torsions:
REMARK  status: ('A' for Active; 'I' for Inactive)
REMARK    1  A    between atoms: C_1  and  O_2
REMARK    2  A    between atoms: O_2  and  C_3
REMARK    3  A    between atoms: C_7  and  O_8
REMARK    4  A    between atoms: O_8  and  C_9
REMARK    5  A    between atoms: C_11  and  C_12
REMARK    6  A    between atoms: C_14  and  O_15
REMARK    7  A    between atoms: O_15  and  C_16
REMARK    8  A    between atoms: C_17  and  O_18
REMARK    9  A    between atoms: O_18  and  C_19
REMARK   10  A    between atoms: C_20  and  O_21
REMARK   11  A    between atoms: O_21  and  C_22
REMARK                            x       y       z     vdW  Elec       q    Type
REMARK                         _______ _______ _______ _____ _____    ______ ____
ROOT
ATOM      1  C   UNL     1       1.519   9.277  18.864  0.00  0.00    +0.000 A 
ATOM      2  C   UNL     1       1.656  10.528  18.269  0.00  0.00    +0.000 A 
ATOM      3  C   UNL     1       1.365  11.701  18.981  0.00  0.00    +0.000 A 
ATOM      4  C   UNL     1       0.895  11.634  20.335  0.00  0.00    +0.000 A 
ATOM      5  C   UNL     1       0.854  10.369  20.954  0.00  0.00    +0.000 A 
ATOM      6  C   UNL     1       1.129   9.215  20.195  0.00  0.00    +0.000 A 
ATOM      7  C   UNL     1       0.441  12.954  20.987  0.00  0.00    +0.000 C 
ATOM      8  C   UNL     1       0.851  14.166  20.232  0.00  0.00    +0.000 C 
ATOM      9  C   UNL     1       1.324  14.122  18.992  0.00  0.00    +0.000 C 
ATOM     10  C   UNL     1       1.610  15.486  18.498  0.00  0.00    +0.000 C 
ATOM     11  O   UNL     1       1.249  16.332  19.597  0.00  0.00    +0.000 OA
ATOM     12  C   UNL     1       0.836  15.560  20.652  0.00  0.00    +0.000 C 
ATOM     13  O   UNL     1       0.533  15.978  21.748  0.00  0.00    +0.000 OA
ATOM     14  N   UNL     1       1.484  12.946  18.307  0.00  0.00    +0.000 N 
ATOM     15  H   UNL     1       2.028  12.961  17.453  0.00  0.00    +0.000 HD
ENDROOT
BRANCH   7  16
ATOM     16  C   UNL     1      -1.073  13.011  21.223  0.00  0.00    +0.000 A 
ATOM     17  C   UNL     1      -1.515  13.241  22.528  0.00  0.00    +0.000 A 
ATOM     18  C   UNL     1      -2.851  13.071  22.886  0.00  0.00    +0.000 A 
ATOM     19  C   UNL     1      -3.803  12.739  21.896  0.00  0.00    +0.000 A 
ATOM     20  C   UNL     1      -3.391  12.655  20.548  0.00  0.00    +0.000 A 
ATOM     21  C   UNL     1      -2.030  12.776  20.228  0.00  0.00    +0.000 A 
BRANCH  18  22
ATOM     22  O   UNL     1      -3.258  13.147  24.200  0.00  0.00    +0.000 OA
ATOM     23  C   UNL     1      -3.171  14.436  24.811  0.00  0.00    +0.000 C 
ENDBRANCH  18  22
BRANCH  19  24
ATOM     24  O   UNL     1      -5.065  12.471  22.374  0.00  0.00    +0.000 OA
ATOM     25  C   UNL     1      -6.046  13.495  22.286  0.00  0.00    +0.000 C 
ENDBRANCH  19  24
BRANCH  20  26
ATOM     26  O   UNL     1      -4.311  12.336  19.577  0.00  0.00    +0.000 OA
ATOM     27  C   UNL     1      -3.810  11.621  18.450  0.00  0.00    +0.000 C 
ENDBRANCH  20  26
ENDBRANCH   7  16
BRANCH   1  29
ATOM     28  C   UNL     1       2.546   7.137  18.696  0.00  0.00    +0.000 C 
ATOM     29  O   UNL     1       1.820   8.198  18.078  0.00  0.00    +0.000 OA
ENDBRANCH   1  29
BRANCH   5  30
ATOM     30  O   UNL     1       0.672   9.998  22.254  0.00  0.00    +0.000 OA
ATOM     31  C   UNL     1      -0.585   9.673  22.801  0.00  0.00    +0.000 C 
ENDBRANCH   5  30
TORSDOF 6
ENDMDL
MODEL 8
REMARK VINA RESULT:      -6.2      1.678      6.544
REMARK  Name = 
REMARK  11 active torsions:
REMARK  status: ('A' for Active; 'I' for Inactive)
REMARK    1  A    between atoms: C_1  and  O_2
REMARK    2  A    between atoms: O_2  and  C_3
REMARK    3  A    between atoms: C_7  and  O_8
REMARK    4  A    between atoms: O_8  and  C_9
REMARK    5  A    between atoms: C_11  and  C_12
REMARK    6  A    between atoms: C_14  and  O_15
REMARK    7  A    between atoms: O_15  and  C_16
REMARK    8  A    between atoms: C_17  and  O_18
REMARK    9  A    between atoms: O_18  and  C_19
REMARK   10  A    between atoms: C_20  and  O_21
REMARK   11  A    between atoms: O_21  and  C_22
REMARK                            x       y       z     vdW  Elec       q    Type
REMARK                         _______ _______ _______ _____ _____    ______ ____
ROOT
ATOM      1  C   UNL     1       1.758   9.287  18.626  0.00  0.00    +0.000 A 
ATOM      2  C   UNL     1       1.838  10.608  18.197  0.00  0.00    +0.000 A 
ATOM      3  C   UNL     1       0.989  11.591  18.728  0.00  0.00    +0.000 A 
ATOM      4  C   UNL     1       0.001  11.248  19.710  0.00  0.00    +0.000 A 
ATOM      5  C   UNL     1      -0.003   9.928  20.205  0.00  0.00    +0.000 A 
ATOM      6  C   UNL     1       0.848   8.967  19.625  0.00  0.00    +0.000 A 
ATOM      7  C   UNL     1      -0.997  12.349  20.118  0.00  0.00    +0.000 C 
ATOM      8  C   UNL     1      -0.602  13.709  19.672  0.00  0.00    +0.000 C 
ATOM      9  C   UNL     1       0.365  13.930  18.789  0.00  0.00    +0.000 C 
ATOM     10  C   UNL     1       0.502  15.378  18.522  0.00  0.00    +0.000 C 
ATOM     11  O   UNL     1      -0.499  15.977  19.354  0.00  0.00    +0.000 OA
ATOM     12  C   UNL     1      -1.136  15.002  20.077  0.00  0.00    +0.000 C 
ATOM     13  O   UNL     1      -1.982  15.197  20.922  0.00  0.00    +0.000 OA
ATOM     14  N   UNL     1       1.090  12.914  18.221  0.00  0.00    +0.000 N 
ATOM     15  H   UNL     1       1.933  13.155  17.715  0.00  0.00    +0.000 HD
ENDROOT
BRANCH   7  16
ATOM     16  C   UNL     1      -2.423  12.067  19.631  0.00  0.00    +0.000 A 
ATOM     17  C   UNL     1      -2.576  11.548  18.343  0.00  0.00    +0.000 A 
ATOM     18  C   UNL     1      -3.823  11.486  17.724  0.00  0.00    +0.000 A 
ATOM     19  C   UNL     1      -4.977  11.878  18.438  0.00  0.00    +0.000 A 
ATOM     20  C   UNL     1      -4.851  12.257  19.793  0.00  0.00    +0.000 A 
ATOM     21  C   UNL     1      -3.576  12.363  20.370  0.00  0.00    +0.000 A 
BRANCH  18  22
ATOM     22  O   UNL     1      -3.952  11.121  16.402  0.00  0.00    +0.000 OA
ATOM     23  C   UNL     1      -2.746  10.752  15.732  0.00  0.00    +0.000 C 
ENDBRANCH  18  22
BRANCH  19  24
ATOM     24  O   UNL     1      -6.137  11.898  17.698  0.00  0.00    +0.000 OA
ATOM     25  C   UNL     1      -6.517  13.120  17.082  0.00  0.00    +0.000 C 
ENDBRANCH  19  24
BRANCH  20  26
ATOM     26  O   UNL     1      -5.969  12.636  20.498  0.00  0.00    +0.000 OA
ATOM     27  C   UNL     1      -5.782  12.874  21.891  0.00  0.00    +0.000 C 
ENDBRANCH  20  26
ENDBRANCH   7  16
BRANCH   1  29
ATOM     28  C   UNL     1       2.566   7.053  18.481  0.00  0.00    +0.000 C 
ATOM     29  O   UNL     1       2.625   8.407  18.037  0.00  0.00    +0.000 OA
ENDBRANCH   1  29
BRANCH   5  30
ATOM     30  O   UNL     1      -0.645   9.355  21.263  0.00  0.00    +0.000 OA
ATOM     31  C   UNL     1      -0.390   9.697  22.605  0.00  0.00    +0.000 C 
ENDBRANCH   5  30
TORSDOF 6
ENDMDL
MODEL 9
REMARK VINA RESULT:      -6.2      2.246      6.838
REMARK  Name = 
REMARK  11 active torsions:
REMARK  status: ('A' for Active; 'I' for Inactive)
REMARK    1  A    between atoms: C_1  and  O_2
REMARK    2  A    between atoms: O_2  and  C_3
REMARK    3  A    between atoms: C_7  and  O_8
REMARK    4  A    between atoms: O_8  and  C_9
REMARK    5  A    between atoms: C_11  and  C_12
REMARK    6  A    between atoms: C_14  and  O_15
REMARK    7  A    between atoms: O_15  and  C_16
REMARK    8  A    between atoms: C_17  and  O_18
REMARK    9  A    between atoms: O_18  and  C_19
REMARK   10  A    between atoms: C_20  and  O_21
REMARK   11  A    between atoms: O_21  and  C_22
REMARK                            x       y       z     vdW  Elec       q    Type
REMARK                         _______ _______ _______ _____ _____    ______ ____
ROOT
ATOM      1  C   UNL     1       1.005   9.615  19.602  0.00  0.00    +0.000 A 
ATOM      2  C   UNL     1       0.988  10.831  18.927  0.00  0.00    +0.000 A 
ATOM      3  C   UNL     1       0.259  11.922  19.424  0.00  0.00    +0.000 A 
ATOM      4  C   UNL     1      -0.509  11.797  20.630  0.00  0.00    +0.000 A 
ATOM      5  C   UNL     1      -0.404  10.592  21.352  0.00  0.00    +0.000 A 
ATOM      6  C   UNL     1       0.317   9.514  20.805  0.00  0.00    +0.000 A 
ATOM      7  C   UNL     1      -1.410  12.985  21.015  0.00  0.00    +0.000 C 
ATOM      8  C   UNL     1      -1.122  14.227  20.254  0.00  0.00    +0.000 C 
ATOM      9  C   UNL     1      -0.355  14.251  19.170  0.00  0.00    +0.000 C 
ATOM     10  C   UNL     1      -0.284  15.620  18.616  0.00  0.00    +0.000 C 
ATOM     11  O   UNL     1      -1.099  16.393  19.504  0.00  0.00    +0.000 OA
ATOM     12  C   UNL     1      -1.571  15.589  20.509  0.00  0.00    +0.000 C 
ATOM     13  O   UNL     1      -2.230  15.963  21.454  0.00  0.00    +0.000 OA
ATOM     14  N   UNL     1       0.246  13.125  18.669  0.00  0.00    +0.000 N 
ATOM     15  H   UNL     1       0.968  13.241  17.969  0.00  0.00    +0.000 HD
ENDROOT
BRANCH   7  16
ATOM     16  C   UNL     1      -2.904  12.664  20.885  0.00  0.00    +0.000 A 
ATOM     17  C   UNL     1      -3.400  12.407  19.604  0.00  0.00    +0.000 A 
ATOM     18  C   UNL     1      -4.769  12.345  19.351  0.00  0.00    +0.000 A 
ATOM     19  C   UNL     1      -5.684  12.462  20.421  0.00  0.00    +0.000 A 
ATOM     20  C   UNL     1      -5.188  12.567  21.740  0.00  0.00    +0.000 A 
ATOM     21  C   UNL     1      -3.806  12.683  21.956  0.00  0.00    +0.000 A 
BRANCH  18  22
ATOM     22  O   UNL     1      -5.259  12.247  18.067  0.00  0.00    +0.000 OA
ATOM     23  C   UNL     1      -4.588  11.322  17.208  0.00  0.00    +0.000 C 
ENDBRANCH  18  22
BRANCH  19  24
ATOM     24  O   UNL     1      -7.007  12.514  20.049  0.00  0.00    +0.000 OA
ATOM     25  C   UNL     1      -7.639  13.785  19.998  0.00  0.00    +0.000 C 
ENDBRANCH  19  24
BRANCH  20  26
ATOM     26  O   UNL     1      -6.070  12.677  22.789  0.00  0.00    +0.000 OA
ATOM     27  C   UNL     1      -5.490  12.822  24.083  0.00  0.00    +0.000 C 
ENDBRANCH  20  26
ENDBRANCH   7  16
BRANCH   1  29
ATOM     28  C   UNL     1       2.196   8.839  17.695  0.00  0.00    +0.000 C 
ATOM     29  O   UNL     1       1.740   8.615  19.027  0.00  0.00    +0.000 OA
ENDBRANCH   1  29
BRANCH   5  30
ATOM     30  O   UNL     1      -0.816  10.244  22.606  0.00  0.00    +0.000 OA
ATOM     31  C   UNL     1      -0.039   9.475  23.494  0.00  0.00    +0.000 C 
ENDBRANCH   5  30
TORSDOF 6
ENDMDL
