MODEL 1
REMARK VINA RESULT:      -7.8      0.000      0.000
REMARK  Name = 
REMARK  3 active torsions:
REMARK  status: ('A' for Active; 'I' for Inactive)
REMARK    1  A    between atoms: C_1  and  C_2
REMARK    2  A    between atoms: C_4  and  S_5
REMARK    3  A    between atoms: S_5  and  C_6
REMARK                            x       y       z     vdW  Elec       q    Type
REMARK                         _______ _______ _______ _____ _____    ______ ____
ROOT
ATOM      1  C   UNL     1       1.709   7.089  20.596  0.00  0.00    +0.000 C 
ATOM      2  C   UNL     1       2.336   6.213  19.545  0.00  0.00    +0.000 A 
ATOM      3  C   UNL     1       3.171   6.792  18.580  0.00  0.00    +0.000 A 
ATOM      4  C   UNL     1       3.728   5.989  17.597  0.00  0.00    +0.000 A 
ATOM      5  N   UNL     1       3.517   4.661  17.542  0.00  0.00    +0.000 NA
ATOM      6  C   UNL     1       2.731   4.092  18.463  0.00  0.00    +0.000 A 
ATOM      7  C   UNL     1       2.534   2.720  18.385  0.00  0.00    +0.000 A 
ATOM      8  C   UNL     1       1.746   2.036  19.308  0.00  0.00    +0.000 A 
ATOM      9  C   UNL     1       1.122   2.737  20.332  0.00  0.00    +0.000 A 
ATOM     10  C   UNL     1       1.299   4.117  20.427  0.00  0.00    +0.000 A 
ATOM     11  C   UNL     1       2.105   4.816  19.501  0.00  0.00    +0.000 A 
ENDROOT
BRANCH   4  12
ATOM     12  S   UNL     1       4.808   6.718  16.375  0.00  0.00    +0.000 S 
BRANCH  12  13
ATOM     13  C   UNL     1       6.473   6.291  16.991  0.00  0.00    +0.000 C 
ATOM     14  C   UNL     1       6.510   5.618  18.345  0.00  0.00    +0.000 C 
ATOM     15  C   UNL     1       7.660   4.646  18.228  0.00  0.00    +0.000 C 
ATOM     16  O   UNL     1       7.922   4.442  16.842  0.00  0.00    +0.000 OA
ATOM     17  C   UNL     1       7.250   5.366  16.090  0.00  0.00    +0.000 C 
ATOM     18  O   UNL     1       7.378   5.466  14.879  0.00  0.00    +0.000 OA
ENDBRANCH  12  13
ENDBRANCH   4  12
TORSDOF 2
ENDMDL
MODEL 2
REMARK VINA RESULT:      -7.5      0.974      1.605
REMARK  Name = 
REMARK  3 active torsions:
REMARK  status: ('A' for Active; 'I' for Inactive)
REMARK    1  A    between atoms: C_1  and  C_2
REMARK    2  A    between atoms: C_4  and  S_5
REMARK    3  A    between atoms: S_5  and  C_6
REMARK                            x       y       z     vdW  Elec       q    Type
REMARK                         _______ _______ _______ _____ _____    ______ ____
ROOT
ATOM      1  C   UNL     1       1.555   7.309  20.783  0.00  0.00    +0.000 C 
ATOM      2  C   UNL     1       2.214   6.387  19.793  0.00  0.00    +0.000 A 
ATOM      3  C   UNL     1       3.060   6.925  18.815  0.00  0.00    +0.000 A 
ATOM      4  C   UNL     1       3.647   6.078  17.887  0.00  0.00    +0.000 A 
ATOM      5  N   UNL     1       3.454   4.747  17.900  0.00  0.00    +0.000 NA
ATOM      6  C   UNL     1       2.658   4.217  18.835  0.00  0.00    +0.000 A 
ATOM      7  C   UNL     1       2.481   2.840  18.828  0.00  0.00    +0.000 A 
ATOM      8  C   UNL     1       1.683   2.195  19.772  0.00  0.00    +0.000 A 
ATOM      9  C   UNL     1       1.030   2.941  20.744  0.00  0.00    +0.000 A 
ATOM     10  C   UNL     1       1.187   4.327  20.767  0.00  0.00    +0.000 A 
ATOM     11  C   UNL     1       2.003   4.987  19.821  0.00  0.00    +0.000 A 
ENDROOT
BRANCH   4  12
ATOM     12  S   UNL     1       4.741   6.756  16.649  0.00  0.00    +0.000 S 
BRANCH  12  13
ATOM     13  C   UNL     1       5.635   5.285  16.040  0.00  0.00    +0.000 C 
ATOM     14  C   UNL     1       5.484   5.001  14.562  0.00  0.00    +0.000 C 
ATOM     15  C   UNL     1       6.833   4.448  14.167  0.00  0.00    +0.000 C 
ATOM     16  O   UNL     1       7.773   4.830  15.168  0.00  0.00    +0.000 OA
ATOM     17  C   UNL     1       7.124   5.325  16.266  0.00  0.00    +0.000 C 
ATOM     18  O   UNL     1       7.696   5.636  17.300  0.00  0.00    +0.000 OA
ENDBRANCH  12  13
ENDBRANCH   4  12
TORSDOF 2
ENDMDL
MODEL 3
REMARK VINA RESULT:      -7.4      3.112      5.866
REMARK  Name = 
REMARK  3 active torsions:
REMARK  status: ('A' for Active; 'I' for Inactive)
REMARK    1  A    between atoms: C_1  and  C_2
REMARK    2  A    between atoms: C_4  and  S_5
REMARK    3  A    between atoms: S_5  and  C_6
REMARK                            x       y       z     vdW  Elec       q    Type
REMARK                         _______ _______ _______ _____ _____    ______ ____
ROOT
ATOM      1  C   UNL     1       5.397   4.933  14.728  0.00  0.00    +0.000 C 
ATOM      2  C   UNL     1       5.376   4.535  16.179  0.00  0.00    +0.000 A 
ATOM      3  C   UNL     1       4.540   3.491  16.590  0.00  0.00    +0.000 A 
ATOM      4  C   UNL     1       4.501   3.142  17.932  0.00  0.00    +0.000 A 
ATOM      5  N   UNL     1       5.256   3.756  18.861  0.00  0.00    +0.000 NA
ATOM      6  C   UNL     1       6.069   4.748  18.481  0.00  0.00    +0.000 A 
ATOM      7  C   UNL     1       6.841   5.361  19.459  0.00  0.00    +0.000 A 
ATOM      8  C   UNL     1       7.728   6.393  19.158  0.00  0.00    +0.000 A 
ATOM      9  C   UNL     1       7.842   6.840  17.848  0.00  0.00    +0.000 A 
ATOM     10  C   UNL     1       7.073   6.245  16.849  0.00  0.00    +0.000 A 
ATOM     11  C   UNL     1       6.179   5.191  17.145  0.00  0.00    +0.000 A 
ENDROOT
BRANCH   4  12
ATOM     12  S   UNL     1       3.450   1.797  18.460  0.00  0.00    +0.000 S 
BRANCH  12  13
ATOM     13  C   UNL     1       2.174   2.640  19.457  0.00  0.00    +0.000 C 
ATOM     14  C   UNL     1       2.628   3.121  20.818  0.00  0.00    +0.000 C 
ATOM     15  C   UNL     1       1.861   4.408  21.014  0.00  0.00    +0.000 C 
ATOM     16  O   UNL     1       1.414   4.851  19.735  0.00  0.00    +0.000 OA
ATOM     17  C   UNL     1       1.583   3.863  18.804  0.00  0.00    +0.000 C 
ATOM     18  O   UNL     1       1.193   3.956  17.650  0.00  0.00    +0.000 OA
ENDBRANCH  12  13
ENDBRANCH   4  12
TORSDOF 2
ENDMDL
MODEL 4
REMARK VINA RESULT:      -7.4      1.777      2.256
REMARK  Name = 
REMARK  3 active torsions:
REMARK  status: ('A' for Active; 'I' for Inactive)
REMARK    1  A    between atoms: C_1  and  C_2
REMARK    2  A    between atoms: C_4  and  S_5
REMARK    3  A    between atoms: S_5  and  C_6
REMARK                            x       y       z     vdW  Elec       q    Type
REMARK                         _______ _______ _______ _____ _____    ______ ____
ROOT
ATOM      1  C   UNL     1       2.535   7.126  18.718  0.00  0.00    +0.000 C 
ATOM      2  C   UNL     1       3.331   5.888  19.028  0.00  0.00    +0.000 A 
ATOM      3  C   UNL     1       4.689   5.844  18.687  0.00  0.00    +0.000 A 
ATOM      4  C   UNL     1       5.417   4.693  18.949  0.00  0.00    +0.000 A 
ATOM      5  N   UNL     1       4.874   3.615  19.543  0.00  0.00    +0.000 NA
ATOM      6  C   UNL     1       3.582   3.645  19.885  0.00  0.00    +0.000 A 
ATOM      7  C   UNL     1       3.049   2.521  20.501  0.00  0.00    +0.000 A 
ATOM      8  C   UNL     1       1.718   2.465  20.908  0.00  0.00    +0.000 A 
ATOM      9  C   UNL     1       0.885   3.554  20.685  0.00  0.00    +0.000 A 
ATOM     10  C   UNL     1       1.395   4.692  20.062  0.00  0.00    +0.000 A 
ATOM     11  C   UNL     1       2.746   4.761  19.656  0.00  0.00    +0.000 A 
ENDROOT
BRANCH   4  12
ATOM     12  S   UNL     1       7.153   4.638  18.532  0.00  0.00    +0.000 S 
BRANCH  12  13
ATOM     13  C   UNL     1       7.144   4.792  16.713  0.00  0.00    +0.000 C 
ATOM     14  C   UNL     1       6.099   3.964  15.998  0.00  0.00    +0.000 C 
ATOM     15  C   UNL     1       5.693   4.835  14.832  0.00  0.00    +0.000 C 
ATOM     16  O   UNL     1       6.090   6.173  15.125  0.00  0.00    +0.000 OA
ATOM     17  C   UNL     1       6.923   6.194  16.210  0.00  0.00    +0.000 C 
ATOM     18  O   UNL     1       7.477   7.208  16.609  0.00  0.00    +0.000 OA
ENDBRANCH  12  13
ENDBRANCH   4  12
TORSDOF 2
ENDMDL
MODEL 5
REMARK VINA RESULT:      -7.2      1.944      3.379
REMARK  Name = 
REMARK  3 active torsions:
REMARK  status: ('A' for Active; 'I' for Inactive)
REMARK    1  A    between atoms: C_1  and  C_2
REMARK    2  A    between atoms: C_4  and  S_5
REMARK    3  A    between atoms: S_5  and  C_6
REMARK                            x       y       z     vdW  Elec       q    Type
REMARK                         _______ _______ _______ _____ _____    ______ ____
ROOT
ATOM      1  C   UNL     1       3.659   1.648  18.003  0.00  0.00    +0.000 C 
ATOM      2  C   UNL     1       3.687   3.151  17.943  0.00  0.00    +0.000 A 
ATOM      3  C   UNL     1       4.418   3.782  16.928  0.00  0.00    +0.000 A 
ATOM      4  C   UNL     1       4.466   5.167  16.888  0.00  0.00    +0.000 A 
ATOM      5  N   UNL     1       3.815   5.939  17.778  0.00  0.00    +0.000 NA
ATOM      6  C   UNL     1       3.103   5.351  18.746  0.00  0.00    +0.000 A 
ATOM      7  C   UNL     1       2.438   6.171  19.648  0.00  0.00    +0.000 A 
ATOM      8  C   UNL     1       1.659   5.651  20.680  0.00  0.00    +0.000 A 
ATOM      9  C   UNL     1       1.548   4.275  20.830  0.00  0.00    +0.000 A 
ATOM     10  C   UNL     1       2.213   3.430  19.942  0.00  0.00    +0.000 A 
ATOM     11  C   UNL     1       2.996   3.950  18.886  0.00  0.00    +0.000 A 
ENDROOT
BRANCH   4  12
ATOM     12  S   UNL     1       5.381   5.977  15.586  0.00  0.00    +0.000 S 
BRANCH  12  13
ATOM     13  C   UNL     1       6.094   4.579  14.653  0.00  0.00    +0.000 C 
ATOM     14  C   UNL     1       5.137   3.865  13.723  0.00  0.00    +0.000 C 
ATOM     15  C   UNL     1       6.006   3.475  12.551  0.00  0.00    +0.000 C 
ATOM     16  O   UNL     1       7.178   4.286  12.585  0.00  0.00    +0.000 OA
ATOM     17  C   UNL     1       7.264   4.948  13.779  0.00  0.00    +0.000 C 
ATOM     18  O   UNL     1       8.223   5.636  14.097  0.00  0.00    +0.000 OA
ENDBRANCH  12  13
ENDBRANCH   4  12
TORSDOF 2
ENDMDL
MODEL 6
REMARK VINA RESULT:      -7.2      0.984      2.392
REMARK  Name = 
REMARK  3 active torsions:
REMARK  status: ('A' for Active; 'I' for Inactive)
REMARK    1  A    between atoms: C_1  and  C_2
REMARK    2  A    between atoms: C_4  and  S_5
REMARK    3  A    between atoms: S_5  and  C_6
REMARK                            x       y       z     vdW  Elec       q    Type
REMARK                         _______ _______ _______ _____ _____    ______ ____
ROOT
ATOM      1  C   UNL     1       3.693   1.425  17.743  0.00  0.00    +0.000 C 
ATOM      2  C   UNL     1       3.522   2.906  17.948  0.00  0.00    +0.000 A 
ATOM      3  C   UNL     1       4.242   3.796  17.142  0.00  0.00    +0.000 A 
ATOM      4  C   UNL     1       4.104   5.160  17.348  0.00  0.00    +0.000 A 
ATOM      5  N   UNL     1       3.283   5.671  18.283  0.00  0.00    +0.000 NA
ATOM      6  C   UNL     1       2.580   4.833  19.054  0.00  0.00    +0.000 A 
ATOM      7  C   UNL     1       1.737   5.387  20.008  0.00  0.00    +0.000 A 
ATOM      8  C   UNL     1       0.954   4.596  20.846  0.00  0.00    +0.000 A 
ATOM      9  C   UNL     1       1.019   3.213  20.743  0.00  0.00    +0.000 A 
ATOM     10  C   UNL     1       1.863   2.632  19.797  0.00  0.00    +0.000 A 
ATOM     11  C   UNL     1       2.653   3.428  18.937  0.00  0.00    +0.000 A 
ENDROOT
BRANCH   4  12
ATOM     12  S   UNL     1       5.006   6.301  16.310  0.00  0.00    +0.000 S 
BRANCH  12  13
ATOM     13  C   UNL     1       6.733   6.075  16.855  0.00  0.00    +0.000 C 
ATOM     14  C   UNL     1       6.930   5.949  18.349  0.00  0.00    +0.000 C 
ATOM     15  C   UNL     1       8.068   4.964  18.476  0.00  0.00    +0.000 C 
ATOM     16  O   UNL     1       8.173   4.253  17.245  0.00  0.00    +0.000 OA
ATOM     17  C   UNL     1       7.411   4.857  16.282  0.00  0.00    +0.000 C 
ATOM     18  O   UNL     1       7.400   4.499  15.113  0.00  0.00    +0.000 OA
ENDBRANCH  12  13
ENDBRANCH   4  12
TORSDOF 2
ENDMDL
MODEL 7
REMARK VINA RESULT:      -7.2      1.691      2.126
REMARK  Name = 
REMARK  3 active torsions:
REMARK  status: ('A' for Active; 'I' for Inactive)
REMARK    1  A    between atoms: C_1  and  C_2
REMARK    2  A    between atoms: C_4  and  S_5
REMARK    3  A    between atoms: S_5  and  C_6
REMARK                            x       y       z     vdW  Elec       q    Type
REMARK                         _______ _______ _______ _____ _____    ______ ____
ROOT
ATOM      1  C   UNL     1       2.031   6.940  18.381  0.00  0.00    +0.000 C 
ATOM      2  C   UNL     1       2.891   5.704  18.390  0.00  0.00    +0.000 A 
ATOM      3  C   UNL     1       3.843   5.526  17.379  0.00  0.00    +0.000 A 
ATOM      4  C   UNL     1       4.617   4.375  17.373  0.00  0.00    +0.000 A 
ATOM      5  N   UNL     1       4.506   3.424  18.318  0.00  0.00    +0.000 NA
ATOM      6  C   UNL     1       3.608   3.585  19.296  0.00  0.00    +0.000 A 
ATOM      7  C   UNL     1       3.517   2.591  20.261  0.00  0.00    +0.000 A 
ATOM      8  C   UNL     1       2.624   2.678  21.326  0.00  0.00    +0.000 A 
ATOM      9  C   UNL     1       1.784   3.779  21.431  0.00  0.00    +0.000 A 
ATOM     10  C   UNL     1       1.851   4.788  20.470  0.00  0.00    +0.000 A 
ATOM     11  C   UNL     1       2.762   4.712  19.393  0.00  0.00    +0.000 A 
ENDROOT
BRANCH   4  12
ATOM     12  S   UNL     1       5.847   4.151  16.097  0.00  0.00    +0.000 S 
BRANCH  12  13
ATOM     13  C   UNL     1       7.102   5.410  16.511  0.00  0.00    +0.000 C 
ATOM     14  C   UNL     1       6.647   6.847  16.379  0.00  0.00    +0.000 C 
ATOM     15  C   UNL     1       7.368   7.552  17.504  0.00  0.00    +0.000 C 
ATOM     16  O   UNL     1       7.784   6.566  18.445  0.00  0.00    +0.000 OA
ATOM     17  C   UNL     1       7.641   5.313  17.914  0.00  0.00    +0.000 C 
ATOM     18  O   UNL     1       8.013   4.297  18.484  0.00  0.00    +0.000 OA
ENDBRANCH  12  13
ENDBRANCH   4  12
TORSDOF 2
ENDMDL
MODEL 8
REMARK VINA RESULT:      -7.1      1.695      2.145
REMARK  Name = 
REMARK  3 active torsions:
REMARK  status: ('A' for Active; 'I' for Inactive)
REMARK    1  A    between atoms: C_1  and  C_2
REMARK    2  A    between atoms: C_4  and  S_5
REMARK    3  A    between atoms: S_5  and  C_6
REMARK                            x       y       z     vdW  Elec       q    Type
REMARK                         _______ _______ _______ _____ _____    ______ ____
ROOT
ATOM      1  C   UNL     1       2.345   6.628  20.124  0.00  0.00    +0.000 C 
ATOM      2  C   UNL     1       3.143   5.462  19.608  0.00  0.00    +0.000 A 
ATOM      3  C   UNL     1       4.506   5.633  19.334  0.00  0.00    +0.000 A 
ATOM      4  C   UNL     1       5.236   4.565  18.834  0.00  0.00    +0.000 A 
ATOM      5  N   UNL     1       4.691   3.354  18.620  0.00  0.00    +0.000 NA
ATOM      6  C   UNL     1       3.392   3.172  18.887  0.00  0.00    +0.000 A 
ATOM      7  C   UNL     1       2.857   1.911  18.661  0.00  0.00    +0.000 A 
ATOM      8  C   UNL     1       1.520   1.622  18.924  0.00  0.00    +0.000 A 
ATOM      9  C   UNL     1       0.685   2.617  19.414  0.00  0.00    +0.000 A 
ATOM     10  C   UNL     1       1.197   3.893  19.643  0.00  0.00    +0.000 A 
ATOM     11  C   UNL     1       2.555   4.192  19.388  0.00  0.00    +0.000 A 
ENDROOT
BRANCH   4  12
ATOM     12  S   UNL     1       6.979   4.772  18.501  0.00  0.00    +0.000 S 
BRANCH  12  13
ATOM     13  C   UNL     1       7.014   5.149  16.715  0.00  0.00    +0.000 C 
ATOM     14  C   UNL     1       6.397   4.098  15.819  0.00  0.00    +0.000 C 
ATOM     15  C   UNL     1       5.759   4.904  14.712  0.00  0.00    +0.000 C 
ATOM     16  O   UNL     1       5.608   6.243  15.176  0.00  0.00    +0.000 OA
ATOM     17  C   UNL     1       6.311   6.426  16.336  0.00  0.00    +0.000 C 
ATOM     18  O   UNL     1       6.421   7.511  16.889  0.00  0.00    +0.000 OA
ENDBRANCH  12  13
ENDBRANCH   4  12
TORSDOF 2
ENDMDL
MODEL 9
REMARK VINA RESULT:      -7.0      3.378      5.984
REMARK  Name = 
REMARK  3 active torsions:
REMARK  status: ('A' for Active; 'I' for Inactive)
REMARK    1  A    between atoms: C_1  and  C_2
REMARK    2  A    between atoms: C_4  and  S_5
REMARK    3  A    between atoms: S_5  and  C_6
REMARK                            x       y       z     vdW  Elec       q    Type
REMARK                         _______ _______ _______ _____ _____    ______ ____
ROOT
ATOM      1  C   UNL     1       4.834   6.677  15.407  0.00  0.00    +0.000 C 
ATOM      2  C   UNL     1       5.124   5.792  16.590  0.00  0.00    +0.000 A 
ATOM      3  C   UNL     1       4.324   4.665  16.813  0.00  0.00    +0.000 A 
ATOM      4  C   UNL     1       4.574   3.865  17.918  0.00  0.00    +0.000 A 
ATOM      5  N   UNL     1       5.576   4.115  18.779  0.00  0.00    +0.000 NA
ATOM      6  C   UNL     1       6.357   5.182  18.573  0.00  0.00    +0.000 A 
ATOM      7  C   UNL     1       7.387   5.414  19.474  0.00  0.00    +0.000 A 
ATOM      8  C   UNL     1       8.260   6.490  19.333  0.00  0.00    +0.000 A 
ATOM      9  C   UNL     1       8.099   7.371  18.273  0.00  0.00    +0.000 A 
ATOM     10  C   UNL     1       7.068   7.163  17.357  0.00  0.00    +0.000 A 
ATOM     11  C   UNL     1       6.184   6.068  17.487  0.00  0.00    +0.000 A 
ENDROOT
BRANCH   4  12
ATOM     12  S   UNL     1       3.568   2.415  18.198  0.00  0.00    +0.000 S 
BRANCH  12  13
ATOM     13  C   UNL     1       2.569   2.883  19.653  0.00  0.00    +0.000 C 
ATOM     14  C   UNL     1       2.915   4.218  20.274  0.00  0.00    +0.000 C 
ATOM     15  C   UNL     1       1.580   4.751  20.738  0.00  0.00    +0.000 C 
ATOM     16  O   UNL     1       0.559   4.046  20.036  0.00  0.00    +0.000 OA
ATOM     17  C   UNL     1       1.088   2.963  19.389  0.00  0.00    +0.000 C 
ATOM     18  O   UNL     1       0.409   2.141  18.791  0.00  0.00    +0.000 OA
ENDBRANCH  12  13
ENDBRANCH   4  12
TORSDOF 2
ENDMDL
