MODEL 1
REMARK VINA RESULT:      -8.8      0.000      0.000
REMARK  Name = 
REMARK  4 active torsions:
REMARK  status: ('A' for Active; 'I' for Inactive)
REMARK    1  A    between atoms: C_1  and  O_2
REMARK    2  A    between atoms: O_2  and  C_3
REMARK    3  A    between atoms: C_8  and  C_9
REMARK    4  A    between atoms: C_11  and  C_12
REMARK                            x       y       z     vdW  Elec       q    Type
REMARK                         _______ _______ _______ _____ _____    ______ ____
ROOT
ATOM      1  C   UNL     1       4.751   5.504  17.365  0.00  0.00    +0.000 C 
ATOM      2  C   UNL     1       5.162   5.550  15.879  0.00  0.00    +0.000 C 
ATOM      3  C   UNL     1       6.301   4.546  15.620  0.00  0.00    +0.000 C 
ATOM      4  N   UNL     1       7.449   4.943  16.424  0.00  0.00    +0.000 N 
ATOM      5  C   UNL     1       7.209   5.087  17.746  0.00  0.00    +0.000 A 
ATOM      6  N   UNL     1       8.045   5.053  18.750  0.00  0.00    +0.000 NA
ATOM      7  C   UNL     1       7.242   5.324  19.825  0.00  0.00    +0.000 A 
ATOM      8  N   UNL     1       5.948   5.525  19.552  0.00  0.00    +0.000 NA
ATOM      9  N   UNL     1       5.934   5.313  18.217  0.00  0.00    +0.000 N 
ATOM     10  H   UNL     1       8.324   4.485  16.183  0.00  0.00    +0.000 HD
ENDROOT
BRANCH   1  16
ATOM     11  C   UNL     1       2.356   4.985  18.345  0.00  0.00    +0.000 A 
ATOM     12  C   UNL     1       1.427   4.009  18.743  0.00  0.00    +0.000 A 
ATOM     13  C   UNL     1       1.658   2.653  18.524  0.00  0.00    +0.000 A 
ATOM     14  C   UNL     1       2.828   2.255  17.895  0.00  0.00    +0.000 A 
ATOM     15  C   UNL     1       3.770   3.210  17.516  0.00  0.00    +0.000 A 
ATOM     16  C   UNL     1       3.574   4.593  17.745  0.00  0.00    +0.000 A 
BRANCH  11  18
ATOM     17  C   UNL     1       2.275   6.762  19.928  0.00  0.00    +0.000 C 
ATOM     18  O   UNL     1       2.123   6.315  18.579  0.00  0.00    +0.000 OA
ENDBRANCH  11  18
ENDBRANCH   1  16
BRANCH   3  19
ATOM     19  C   UNL     1       6.660   4.429  14.158  0.00  0.00    +0.000 A 
ATOM     20  C   UNL     1       7.600   5.266  13.543  0.00  0.00    +0.000 A 
ATOM     21  C   UNL     1       7.848   5.156  12.173  0.00  0.00    +0.000 A 
ATOM     22  C   UNL     1       7.163   4.215  11.405  0.00  0.00    +0.000 A 
ATOM     23  C   UNL     1       6.238   3.368  12.006  0.00  0.00    +0.000 A 
ATOM     24  C   UNL     1       6.000   3.469  13.374  0.00  0.00    +0.000 A 
ENDBRANCH   3  19
TORSDOF 3
ENDMDL
MODEL 2
REMARK VINA RESULT:      -8.7      0.548      1.144
REMARK  Name = 
REMARK  4 active torsions:
REMARK  status: ('A' for Active; 'I' for Inactive)
REMARK    1  A    between atoms: C_1  and  O_2
REMARK    2  A    between atoms: O_2  and  C_3
REMARK    3  A    between atoms: C_8  and  C_9
REMARK    4  A    between atoms: C_11  and  C_12
REMARK                            x       y       z     vdW  Elec       q    Type
REMARK                         _______ _______ _______ _____ _____    ______ ____
ROOT
ATOM      1  C   UNL     1       4.839   5.695  17.507  0.00  0.00    +0.000 C 
ATOM      2  C   UNL     1       5.161   5.676  15.998  0.00  0.00    +0.000 C 
ATOM      3  C   UNL     1       6.157   4.543  15.690  0.00  0.00    +0.000 C 
ATOM      4  N   UNL     1       7.391   4.810  16.417  0.00  0.00    +0.000 N 
ATOM      5  C   UNL     1       7.250   4.995  17.748  0.00  0.00    +0.000 A 
ATOM      6  N   UNL     1       8.136   4.874  18.702  0.00  0.00    +0.000 NA
ATOM      7  C   UNL     1       7.437   5.249  19.817  0.00  0.00    +0.000 A 
ATOM      8  N   UNL     1       6.161   5.598  19.618  0.00  0.00    +0.000 NA
ATOM      9  N   UNL     1       6.041   5.375  18.290  0.00  0.00    +0.000 N 
ATOM     10  H   UNL     1       8.190   4.250  16.133  0.00  0.00    +0.000 HD
ENDROOT
BRANCH   1  16
ATOM     11  C   UNL     1       2.696   5.313  18.999  0.00  0.00    +0.000 A 
ATOM     12  C   UNL     1       1.664   4.441  19.387  0.00  0.00    +0.000 A 
ATOM     13  C   UNL     1       1.472   3.215  18.753  0.00  0.00    +0.000 A 
ATOM     14  C   UNL     1       2.312   2.848  17.714  0.00  0.00    +0.000 A 
ATOM     15  C   UNL     1       3.354   3.692  17.333  0.00  0.00    +0.000 A 
ATOM     16  C   UNL     1       3.589   4.933  17.972  0.00  0.00    +0.000 A 
BRANCH  11  18
ATOM     17  C   UNL     1       2.213   7.642  19.082  0.00  0.00    +0.000 C 
ATOM     18  O   UNL     1       2.883   6.510  19.639  0.00  0.00    +0.000 OA
ENDBRANCH  11  18
ENDBRANCH   1  16
BRANCH   3  19
ATOM     19  C   UNL     1       6.410   4.368  14.212  0.00  0.00    +0.000 A 
ATOM     20  C   UNL     1       5.690   3.460  13.425  0.00  0.00    +0.000 A 
ATOM     21  C   UNL     1       6.009   3.293  12.076  0.00  0.00    +0.000 A 
ATOM     22  C   UNL     1       7.046   4.025  11.500  0.00  0.00    +0.000 A 
ATOM     23  C   UNL     1       7.759   4.941  12.265  0.00  0.00    +0.000 A 
ATOM     24  C   UNL     1       7.434   5.117  13.608  0.00  0.00    +0.000 A 
ENDBRANCH   3  19
TORSDOF 3
ENDMDL
MODEL 3
REMARK VINA RESULT:      -8.6      2.748      6.861
REMARK  Name = 
REMARK  4 active torsions:
REMARK  status: ('A' for Active; 'I' for Inactive)
REMARK    1  A    between atoms: C_1  and  O_2
REMARK    2  A    between atoms: O_2  and  C_3
REMARK    3  A    between atoms: C_8  and  C_9
REMARK    4  A    between atoms: C_11  and  C_12
REMARK                            x       y       z     vdW  Elec       q    Type
REMARK                         _______ _______ _______ _____ _____    ______ ____
ROOT
ATOM      1  C   UNL     1       3.501   4.781  18.488  0.00  0.00    +0.000 C 
ATOM      2  C   UNL     1       2.658   6.065  18.348  0.00  0.00    +0.000 C 
ATOM      3  C   UNL     1       2.501   6.740  19.723  0.00  0.00    +0.000 C 
ATOM      4  N   UNL     1       1.790   5.822  20.603  0.00  0.00    +0.000 N 
ATOM      5  C   UNL     1       2.336   4.591  20.716  0.00  0.00    +0.000 A 
ATOM      6  N   UNL     1       2.189   3.701  21.663  0.00  0.00    +0.000 NA
ATOM      7  C   UNL     1       2.921   2.641  21.203  0.00  0.00    +0.000 A 
ATOM      8  N   UNL     1       3.520   2.814  20.019  0.00  0.00    +0.000 NA
ATOM      9  N   UNL     1       3.180   4.094  19.747  0.00  0.00    +0.000 N 
ATOM     10  H   UNL     1       1.444   6.231  21.466  0.00  0.00    +0.000 HD
ENDROOT
BRANCH   1  16
ATOM     11  C   UNL     1       5.698   4.508  17.051  0.00  0.00    +0.000 A 
ATOM     12  C   UNL     1       7.102   4.564  17.014  0.00  0.00    +0.000 A 
ATOM     13  C   UNL     1       7.840   5.030  18.099  0.00  0.00    +0.000 A 
ATOM     14  C   UNL     1       7.177   5.455  19.240  0.00  0.00    +0.000 A 
ATOM     15  C   UNL     1       5.786   5.385  19.300  0.00  0.00    +0.000 A 
ATOM     16  C   UNL     1       5.010   4.894  18.224  0.00  0.00    +0.000 A 
BRANCH  11  18
ATOM     17  C   UNL     1       5.540   4.272  14.687  0.00  0.00    +0.000 C 
ATOM     18  O   UNL     1       4.984   4.033  15.982  0.00  0.00    +0.000 OA
ENDBRANCH  11  18
ENDBRANCH   1  16
BRANCH   3  19
ATOM     19  C   UNL     1       1.810   8.080  19.645  0.00  0.00    +0.000 A 
ATOM     20  C   UNL     1       1.122   8.639  20.730  0.00  0.00    +0.000 A 
ATOM     21  C   UNL     1       0.446   9.852  20.585  0.00  0.00    +0.000 A 
ATOM     22  C   UNL     1       0.447  10.518  19.359  0.00  0.00    +0.000 A 
ATOM     23  C   UNL     1       1.139   9.982  18.278  0.00  0.00    +0.000 A 
ATOM     24  C   UNL     1       1.823   8.778  18.427  0.00  0.00    +0.000 A 
ENDBRANCH   3  19
TORSDOF 3
ENDMDL
MODEL 4
REMARK VINA RESULT:      -8.5      2.750      6.872
REMARK  Name = 
REMARK  4 active torsions:
REMARK  status: ('A' for Active; 'I' for Inactive)
REMARK    1  A    between atoms: C_1  and  O_2
REMARK    2  A    between atoms: O_2  and  C_3
REMARK    3  A    between atoms: C_8  and  C_9
REMARK    4  A    between atoms: C_11  and  C_12
REMARK                            x       y       z     vdW  Elec       q    Type
REMARK                         _______ _______ _______ _____ _____    ______ ____
ROOT
ATOM      1  C   UNL     1       3.492   4.787  18.477  0.00  0.00    +0.000 C 
ATOM      2  C   UNL     1       2.648   6.070  18.326  0.00  0.00    +0.000 C 
ATOM      3  C   UNL     1       2.487   6.753  19.697  0.00  0.00    +0.000 C 
ATOM      4  N   UNL     1       1.776   5.840  20.581  0.00  0.00    +0.000 N 
ATOM      5  C   UNL     1       2.322   4.610  20.704  0.00  0.00    +0.000 A 
ATOM      6  N   UNL     1       2.174   3.727  21.656  0.00  0.00    +0.000 NA
ATOM      7  C   UNL     1       2.907   2.664  21.204  0.00  0.00    +0.000 A 
ATOM      8  N   UNL     1       3.509   2.830  20.021  0.00  0.00    +0.000 NA
ATOM      9  N   UNL     1       3.168   4.108  19.740  0.00  0.00    +0.000 N 
ATOM     10  H   UNL     1       1.428   6.255  21.441  0.00  0.00    +0.000 HD
ENDROOT
BRANCH   1  16
ATOM     11  C   UNL     1       5.691   4.512  17.044  0.00  0.00    +0.000 A 
ATOM     12  C   UNL     1       7.095   4.567  17.009  0.00  0.00    +0.000 A 
ATOM     13  C   UNL     1       7.831   5.035  18.096  0.00  0.00    +0.000 A 
ATOM     14  C   UNL     1       7.167   5.461  19.235  0.00  0.00    +0.000 A 
ATOM     15  C   UNL     1       5.776   5.391  19.293  0.00  0.00    +0.000 A 
ATOM     16  C   UNL     1       5.001   4.900  18.215  0.00  0.00    +0.000 A 
BRANCH  11  18
ATOM     17  C   UNL     1       5.523   4.300  14.679  0.00  0.00    +0.000 C 
ATOM     18  O   UNL     1       4.979   4.037  15.974  0.00  0.00    +0.000 OA
ENDBRANCH  11  18
ENDBRANCH   1  16
BRANCH   3  19
ATOM     19  C   UNL     1       1.795   8.093  19.609  0.00  0.00    +0.000 A 
ATOM     20  C   UNL     1       1.786   8.861  18.438  0.00  0.00    +0.000 A 
ATOM     21  C   UNL     1       1.186  10.122  18.429  0.00  0.00    +0.000 A 
ATOM     22  C   UNL     1       0.592  10.628  19.585  0.00  0.00    +0.000 A 
ATOM     23  C   UNL     1       0.581   9.870  20.750  0.00  0.00    +0.000 A 
ATOM     24  C   UNL     1       1.169   8.607  20.755  0.00  0.00    +0.000 A 
ENDBRANCH   3  19
TORSDOF 3
ENDMDL
MODEL 5
REMARK VINA RESULT:      -8.3      2.605      6.381
REMARK  Name = 
REMARK  4 active torsions:
REMARK  status: ('A' for Active; 'I' for Inactive)
REMARK    1  A    between atoms: C_1  and  O_2
REMARK    2  A    between atoms: O_2  and  C_3
REMARK    3  A    between atoms: C_8  and  C_9
REMARK    4  A    between atoms: C_11  and  C_12
REMARK                            x       y       z     vdW  Elec       q    Type
REMARK                         _______ _______ _______ _____ _____    ______ ____
ROOT
ATOM      1  C   UNL     1       3.436   4.262  17.836  0.00  0.00    +0.000 C 
ATOM      2  C   UNL     1       2.619   5.569  17.879  0.00  0.00    +0.000 C 
ATOM      3  C   UNL     1       2.857   6.291  19.218  0.00  0.00    +0.000 C 
ATOM      4  N   UNL     1       2.389   5.425  20.292  0.00  0.00    +0.000 N 
ATOM      5  C   UNL     1       2.914   4.181  20.302  0.00  0.00    +0.000 A 
ATOM      6  N   UNL     1       3.008   3.326  21.288  0.00  0.00    +0.000 NA
ATOM      7  C   UNL     1       3.561   2.228  20.688  0.00  0.00    +0.000 A 
ATOM      8  N   UNL     1       3.821   2.344  19.381  0.00  0.00    +0.000 NA
ATOM      9  N   UNL     1       3.451   3.625  19.161  0.00  0.00    +0.000 N 
ATOM     10  H   UNL     1       2.301   5.873  21.200  0.00  0.00    +0.000 HD
ENDROOT
BRANCH   1  16
ATOM     11  C   UNL     1       6.045   4.658  17.785  0.00  0.00    +0.000 A 
ATOM     12  C   UNL     1       7.209   4.777  17.005  0.00  0.00    +0.000 A 
ATOM     13  C   UNL     1       7.194   4.527  15.635  0.00  0.00    +0.000 A 
ATOM     14  C   UNL     1       6.010   4.145  15.026  0.00  0.00    +0.000 A 
ATOM     15  C   UNL     1       4.843   4.044  15.781  0.00  0.00    +0.000 A 
ATOM     16  C   UNL     1       4.820   4.314  17.170  0.00  0.00    +0.000 A 
BRANCH  11  18
ATOM     17  C   UNL     1       7.244   5.559  19.634  0.00  0.00    +0.000 C 
ATOM     18  O   UNL     1       6.069   4.921  19.129  0.00  0.00    +0.000 OA
ENDBRANCH  11  18
ENDBRANCH   1  16
BRANCH   3  19
ATOM     19  C   UNL     1       2.204   7.652  19.277  0.00  0.00    +0.000 A 
ATOM     20  C   UNL     1       1.562   8.131  20.426  0.00  0.00    +0.000 A 
ATOM     21  C   UNL     1       0.919   9.370  20.407  0.00  0.00    +0.000 A 
ATOM     22  C   UNL     1       0.908  10.141  19.244  0.00  0.00    +0.000 A 
ATOM     23  C   UNL     1       1.554   9.684  18.101  0.00  0.00    +0.000 A 
ATOM     24  C   UNL     1       2.206   8.453  18.124  0.00  0.00    +0.000 A 
ENDBRANCH   3  19
TORSDOF 3
ENDMDL
MODEL 6
REMARK VINA RESULT:      -8.2      2.596      6.388
REMARK  Name = 
REMARK  4 active torsions:
REMARK  status: ('A' for Active; 'I' for Inactive)
REMARK    1  A    between atoms: C_1  and  O_2
REMARK    2  A    between atoms: O_2  and  C_3
REMARK    3  A    between atoms: C_8  and  C_9
REMARK    4  A    between atoms: C_11  and  C_12
REMARK                            x       y       z     vdW  Elec       q    Type
REMARK                         _______ _______ _______ _____ _____    ______ ____
ROOT
ATOM      1  C   UNL     1       3.422   4.216  17.775  0.00  0.00    +0.000 C 
ATOM      2  C   UNL     1       2.587   5.512  17.817  0.00  0.00    +0.000 C 
ATOM      3  C   UNL     1       2.806   6.232  19.161  0.00  0.00    +0.000 C 
ATOM      4  N   UNL     1       2.342   5.355  20.228  0.00  0.00    +0.000 N 
ATOM      5  C   UNL     1       2.884   4.117  20.237  0.00  0.00    +0.000 A 
ATOM      6  N   UNL     1       2.983   3.261  21.220  0.00  0.00    +0.000 NA
ATOM      7  C   UNL     1       3.555   2.172  20.620  0.00  0.00    +0.000 A 
ATOM      8  N   UNL     1       3.822   2.297  19.316  0.00  0.00    +0.000 NA
ATOM      9  N   UNL     1       3.437   3.574  19.098  0.00  0.00    +0.000 N 
ATOM     10  H   UNL     1       2.241   5.798  21.138  0.00  0.00    +0.000 HD
ENDROOT
BRANCH   1  16
ATOM     11  C   UNL     1       6.032   4.612  17.752  0.00  0.00    +0.000 A 
ATOM     12  C   UNL     1       7.199   4.757  16.983  0.00  0.00    +0.000 A 
ATOM     13  C   UNL     1       7.193   4.552  15.605  0.00  0.00    +0.000 A 
ATOM     14  C   UNL     1       6.012   4.191  14.977  0.00  0.00    +0.000 A 
ATOM     15  C   UNL     1       4.840   4.066  15.722  0.00  0.00    +0.000 A 
ATOM     16  C   UNL     1       4.809   4.290  17.119  0.00  0.00    +0.000 A 
BRANCH  11  18
ATOM     17  C   UNL     1       7.174   5.542  19.622  0.00  0.00    +0.000 C 
ATOM     18  O   UNL     1       6.048   4.831  19.104  0.00  0.00    +0.000 OA
ENDBRANCH  11  18
ENDBRANCH   1  16
BRANCH   3  19
ATOM     19  C   UNL     1       2.134   7.582  19.221  0.00  0.00    +0.000 A 
ATOM     20  C   UNL     1       2.077   8.446  18.119  0.00  0.00    +0.000 A 
ATOM     21  C   UNL     1       1.499   9.711  18.247  0.00  0.00    +0.000 A 
ATOM     22  C   UNL     1       0.976  10.127  19.471  0.00  0.00    +0.000 A 
ATOM     23  C   UNL     1       1.013   9.274  20.568  0.00  0.00    +0.000 A 
ATOM     24  C   UNL     1       1.578   8.008  20.438  0.00  0.00    +0.000 A 
ENDBRANCH   3  19
TORSDOF 3
ENDMDL
MODEL 7
REMARK VINA RESULT:      -7.8      1.239      2.032
REMARK  Name = 
REMARK  4 active torsions:
REMARK  status: ('A' for Active; 'I' for Inactive)
REMARK    1  A    between atoms: C_1  and  O_2
REMARK    2  A    between atoms: O_2  and  C_3
REMARK    3  A    between atoms: C_8  and  C_9
REMARK    4  A    between atoms: C_11  and  C_12
REMARK                            x       y       z     vdW  Elec       q    Type
REMARK                         _______ _______ _______ _____ _____    ______ ____
ROOT
ATOM      1  C   UNL     1       4.821   5.506  17.625  0.00  0.00    +0.000 C 
ATOM      2  C   UNL     1       5.118   5.520  16.112  0.00  0.00    +0.000 C 
ATOM      3  C   UNL     1       6.201   4.477  15.781  0.00  0.00    +0.000 C 
ATOM      4  N   UNL     1       7.420   4.846  16.488  0.00  0.00    +0.000 N 
ATOM      5  C   UNL     1       7.287   5.014  17.822  0.00  0.00    +0.000 A 
ATOM      6  N   UNL     1       8.197   4.966  18.760  0.00  0.00    +0.000 NA
ATOM      7  C   UNL     1       7.488   5.276  19.889  0.00  0.00    +0.000 A 
ATOM      8  N   UNL     1       6.184   5.515  19.713  0.00  0.00    +0.000 NA
ATOM      9  N   UNL     1       6.060   5.287  18.386  0.00  0.00    +0.000 N 
ATOM     10  H   UNL     1       8.259   4.357  16.188  0.00  0.00    +0.000 HD
ENDROOT
BRANCH   1  16
ATOM     11  C   UNL     1       3.731   3.422  18.824  0.00  0.00    +0.000 A 
ATOM     12  C   UNL     1       2.563   2.685  19.086  0.00  0.00    +0.000 A 
ATOM     13  C   UNL     1       1.310   3.145  18.688  0.00  0.00    +0.000 A 
ATOM     14  C   UNL     1       1.208   4.357  18.025  0.00  0.00    +0.000 A 
ATOM     15  C   UNL     1       2.359   5.089  17.738  0.00  0.00    +0.000 A 
ATOM     16  C   UNL     1       3.649   4.638  18.108  0.00  0.00    +0.000 A 
BRANCH  11  18
ATOM     17  C   UNL     1       4.973   1.976  20.250  0.00  0.00    +0.000 C 
ATOM     18  O   UNL     1       4.960   2.954  19.208  0.00  0.00    +0.000 OA
ENDBRANCH  11  18
ENDBRANCH   1  16
BRANCH   3  19
ATOM     19  C   UNL     1       6.443   4.330  14.298  0.00  0.00    +0.000 A 
ATOM     20  C   UNL     1       5.741   3.411  13.507  0.00  0.00    +0.000 A 
ATOM     21  C   UNL     1       6.049   3.271  12.152  0.00  0.00    +0.000 A 
ATOM     22  C   UNL     1       7.057   4.042  11.574  0.00  0.00    +0.000 A 
ATOM     23  C   UNL     1       7.751   4.968  12.344  0.00  0.00    +0.000 A 
ATOM     24  C   UNL     1       7.436   5.116  13.693  0.00  0.00    +0.000 A 
ENDBRANCH   3  19
TORSDOF 3
ENDMDL
MODEL 8
REMARK VINA RESULT:      -7.8      1.238      1.761
REMARK  Name = 
REMARK  4 active torsions:
REMARK  status: ('A' for Active; 'I' for Inactive)
REMARK    1  A    between atoms: C_1  and  O_2
REMARK    2  A    between atoms: O_2  and  C_3
REMARK    3  A    between atoms: C_8  and  C_9
REMARK    4  A    between atoms: C_11  and  C_12
REMARK                            x       y       z     vdW  Elec       q    Type
REMARK                         _______ _______ _______ _____ _____    ______ ____
ROOT
ATOM      1  C   UNL     1       4.786   5.484  17.607  0.00  0.00    +0.000 C 
ATOM      2  C   UNL     1       5.124   5.492  16.102  0.00  0.00    +0.000 C 
ATOM      3  C   UNL     1       6.236   4.467  15.810  0.00  0.00    +0.000 C 
ATOM      4  N   UNL     1       7.427   4.866  16.547  0.00  0.00    +0.000 N 
ATOM      5  C   UNL     1       7.255   5.042  17.875  0.00  0.00    +0.000 A 
ATOM      6  N   UNL     1       8.139   5.019  18.838  0.00  0.00    +0.000 NA
ATOM      7  C   UNL     1       7.394   5.324  19.944  0.00  0.00    +0.000 A 
ATOM      8  N   UNL     1       6.091   5.537  19.731  0.00  0.00    +0.000 NA
ATOM      9  N   UNL     1       6.008   5.296  18.403  0.00  0.00    +0.000 N 
ATOM     10  H   UNL     1       8.283   4.390  16.273  0.00  0.00    +0.000 HD
ENDROOT
BRANCH   1  16
ATOM     11  C   UNL     1       3.706   3.368  18.757  0.00  0.00    +0.000 A 
ATOM     12  C   UNL     1       2.542   2.617  18.997  0.00  0.00    +0.000 A 
ATOM     13  C   UNL     1       1.287   3.075  18.601  0.00  0.00    +0.000 A 
ATOM     14  C   UNL     1       1.180   4.300  17.962  0.00  0.00    +0.000 A 
ATOM     15  C   UNL     1       2.327   5.046  17.697  0.00  0.00    +0.000 A 
ATOM     16  C   UNL     1       3.618   4.598  18.065  0.00  0.00    +0.000 A 
BRANCH  11  18
ATOM     17  C   UNL     1       4.964   2.025  20.266  0.00  0.00    +0.000 C 
ATOM     18  O   UNL     1       4.936   2.901  19.138  0.00  0.00    +0.000 OA
ENDBRANCH  11  18
ENDBRANCH   1  16
BRANCH   3  19
ATOM     19  C   UNL     1       6.520   4.312  14.335  0.00  0.00    +0.000 A 
ATOM     20  C   UNL     1       7.494   5.070  13.672  0.00  0.00    +0.000 A 
ATOM     21  C   UNL     1       7.673   4.932  12.293  0.00  0.00    +0.000 A 
ATOM     22  C   UNL     1       6.883   4.042  11.565  0.00  0.00    +0.000 A 
ATOM     23  C   UNL     1       5.924   3.274  12.214  0.00  0.00    +0.000 A 
ATOM     24  C   UNL     1       5.754   3.402  13.590  0.00  0.00    +0.000 A 
ENDBRANCH   3  19
TORSDOF 3
ENDMDL
MODEL 9
REMARK VINA RESULT:      -7.7      2.631      4.567
REMARK  Name = 
REMARK  4 active torsions:
REMARK  status: ('A' for Active; 'I' for Inactive)
REMARK    1  A    between atoms: C_1  and  O_2
REMARK    2  A    between atoms: O_2  and  C_3
REMARK    3  A    between atoms: C_8  and  C_9
REMARK    4  A    between atoms: C_11  and  C_12
REMARK                            x       y       z     vdW  Elec       q    Type
REMARK                         _______ _______ _______ _____ _____    ______ ____
ROOT
ATOM      1  C   UNL     1       3.006   6.295  19.608  0.00  0.00    +0.000 C 
ATOM      2  C   UNL     1       4.266   6.020  18.762  0.00  0.00    +0.000 C 
ATOM      3  C   UNL     1       3.903   5.132  17.557  0.00  0.00    +0.000 C 
ATOM      4  N   UNL     1       3.406   3.859  18.063  0.00  0.00    +0.000 N 
ATOM      5  C   UNL     1       2.381   3.945  18.939  0.00  0.00    +0.000 A 
ATOM      6  N   UNL     1       1.492   3.045  19.268  0.00  0.00    +0.000 NA
ATOM      7  C   UNL     1       0.762   3.677  20.238  0.00  0.00    +0.000 A 
ATOM      8  N   UNL     1       1.142   4.924  20.536  0.00  0.00    +0.000 NA
ATOM      9  N   UNL     1       2.149   5.102  19.651  0.00  0.00    +0.000 N 
ATOM     10  H   UNL     1       3.332   3.118  17.371  0.00  0.00    +0.000 HD
ENDROOT
BRANCH   1  16
ATOM     11  C   UNL     1       1.537   8.390  20.258  0.00  0.00    +0.000 A 
ATOM     12  C   UNL     1       0.773   9.483  19.814  0.00  0.00    +0.000 A 
ATOM     13  C   UNL     1       0.712   9.826  18.466  0.00  0.00    +0.000 A 
ATOM     14  C   UNL     1       1.423   9.080  17.540  0.00  0.00    +0.000 A 
ATOM     15  C   UNL     1       2.167   7.979  17.962  0.00  0.00    +0.000 A 
ATOM     16  C   UNL     1       2.231   7.590  19.321  0.00  0.00    +0.000 A 
BRANCH  11  18
ATOM     17  C   UNL     1       1.179   9.064  22.513  0.00  0.00    +0.000 C 
ATOM     18  O   UNL     1       1.579   8.053  21.586  0.00  0.00    +0.000 OA
ENDBRANCH  11  18
ENDBRANCH   1  16
BRANCH   3  19
ATOM     19  C   UNL     1       5.056   4.937  16.602  0.00  0.00    +0.000 A 
ATOM     20  C   UNL     1       6.355   5.373  16.889  0.00  0.00    +0.000 A 
ATOM     21  C   UNL     1       7.372   5.225  15.942  0.00  0.00    +0.000 A 
ATOM     22  C   UNL     1       7.103   4.644  14.704  0.00  0.00    +0.000 A 
ATOM     23  C   UNL     1       5.820   4.194  14.411  0.00  0.00    +0.000 A 
ATOM     24  C   UNL     1       4.810   4.330  15.359  0.00  0.00    +0.000 A 
ENDBRANCH   3  19
TORSDOF 3
ENDMDL
