MODEL 1
REMARK VINA RESULT:      -8.3      0.000      0.000
REMARK  Name = 
REMARK  2 active torsions:
REMARK  status: ('A' for Active; 'I' for Inactive)
REMARK    1  A    between atoms: C_1  and  N_2
REMARK    2  A    between atoms: C_7  and  C_8
REMARK                            x       y       z     vdW  Elec       q    Type
REMARK                         _______ _______ _______ _____ _____    ______ ____
ROOT
ATOM      1  C   UNL     1       2.109   2.807  20.467  0.00  0.00    +0.000 C 
ATOM      2  N   UNL     1       2.721   3.621  19.425  0.00  0.00    +0.000 N 
ATOM      3  C   UNL     1       2.614   5.024  19.392  0.00  0.00    +0.000 A 
ATOM      4  C   UNL     1       3.177   5.746  18.390  0.00  0.00    +0.000 A 
ATOM      5  C   UNL     1       3.907   5.038  17.400  0.00  0.00    +0.000 A 
ATOM      6  N   UNL     1       4.567   5.458  16.347  0.00  0.00    +0.000 NA
ATOM      7  C   UNL     1       5.053   4.308  15.772  0.00  0.00    +0.000 A 
ATOM      8  N   UNL     1       4.713   3.189  16.434  0.00  0.00    +0.000 NA
ATOM      9  N   UNL     1       3.989   3.676  17.477  0.00  0.00    +0.000 N 
ATOM     10  C   UNL     1       3.423   2.868  18.463  0.00  0.00    +0.000 A 
ATOM     11  O   UNL     1       3.555   1.649  18.439  0.00  0.00    +0.000 OA
ATOM     12  C   UNL     1       3.031   7.256  18.293  0.00  0.00    +0.000 C 
ATOM     13  C   UNL     1       1.922   7.827  19.167  0.00  0.00    +0.000 C 
ATOM     14  C   UNL     1       2.020   7.235  20.560  0.00  0.00    +0.000 C 
ATOM     15  C   UNL     1       1.846   5.718  20.508  0.00  0.00    +0.000 C 
ENDROOT
BRANCH   7  16
ATOM     16  C   UNL     1       5.852   4.316  14.554  0.00  0.00    +0.000 A 
ATOM     17  C   UNL     1       5.427   3.609  13.415  0.00  0.00    +0.000 A 
ATOM     18  C   UNL     1       6.186   3.619  12.241  0.00  0.00    +0.000 A 
ATOM     19  C   UNL     1       7.381   4.335  12.187  0.00  0.00    +0.000 A 
ATOM     20  C   UNL     1       7.816   5.038  13.308  0.00  0.00    +0.000 A 
ATOM     21  C   UNL     1       7.056   5.026  14.477  0.00  0.00    +0.000 A 
ATOM     22  F   UNL     1       7.529   5.719  15.524  0.00  0.00    +0.000 F 
ENDBRANCH   7  16
TORSDOF 1
ENDMDL
MODEL 2
REMARK VINA RESULT:      -8.2      3.235      7.428
REMARK  Name = 
REMARK  2 active torsions:
REMARK  status: ('A' for Active; 'I' for Inactive)
REMARK    1  A    between atoms: C_1  and  N_2
REMARK    2  A    between atoms: C_7  and  C_8
REMARK                            x       y       z     vdW  Elec       q    Type
REMARK                         _______ _______ _______ _____ _____    ______ ____
ROOT
ATOM      1  C   UNL     1       3.811   2.550  19.589  0.00  0.00    +0.000 C 
ATOM      2  N   UNL     1       3.459   3.953  19.427  0.00  0.00    +0.000 N 
ATOM      3  C   UNL     1       3.958   4.748  18.377  0.00  0.00    +0.000 A 
ATOM      4  C   UNL     1       3.627   6.060  18.275  0.00  0.00    +0.000 A 
ATOM      5  C   UNL     1       2.733   6.590  19.240  0.00  0.00    +0.000 A 
ATOM      6  N   UNL     1       2.223   7.791  19.380  0.00  0.00    +0.000 NA
ATOM      7  C   UNL     1       1.435   7.695  20.502  0.00  0.00    +0.000 A 
ATOM      8  N   UNL     1       1.442   6.474  21.063  0.00  0.00    +0.000 NA
ATOM      9  N   UNL     1       2.269   5.779  20.237  0.00  0.00    +0.000 N 
ATOM     10  C   UNL     1       2.579   4.431  20.417  0.00  0.00    +0.000 A 
ATOM     11  O   UNL     1       2.107   3.790  21.350  0.00  0.00    +0.000 OA
ATOM     12  C   UNL     1       4.195   6.960  17.188  0.00  0.00    +0.000 C 
ATOM     13  C   UNL     1       5.415   6.383  16.483  0.00  0.00    +0.000 C 
ATOM     14  C   UNL     1       5.147   4.939  16.106  0.00  0.00    +0.000 C 
ATOM     15  C   UNL     1       4.885   4.102  17.358  0.00  0.00    +0.000 C 
ENDROOT
BRANCH   7  16
ATOM     16  C   UNL     1       0.678   8.823  21.028  0.00  0.00    +0.000 A 
ATOM     17  C   UNL     1       0.511   8.989  22.414  0.00  0.00    +0.000 A 
ATOM     18  C   UNL     1      -0.209  10.074  22.925  0.00  0.00    +0.000 A 
ATOM     19  C   UNL     1      -0.774  11.008  22.058  0.00  0.00    +0.000 A 
ATOM     20  C   UNL     1      -0.619  10.855  20.683  0.00  0.00    +0.000 A 
ATOM     21  C   UNL     1       0.100   9.772  20.177  0.00  0.00    +0.000 A 
ATOM     22  F   UNL     1       0.211   9.677  18.843  0.00  0.00    +0.000 F 
ENDBRANCH   7  16
TORSDOF 1
ENDMDL
MODEL 3
REMARK VINA RESULT:      -8.2      1.666      2.891
REMARK  Name = 
REMARK  2 active torsions:
REMARK  status: ('A' for Active; 'I' for Inactive)
REMARK    1  A    between atoms: C_1  and  N_2
REMARK    2  A    between atoms: C_7  and  C_8
REMARK                            x       y       z     vdW  Elec       q    Type
REMARK                         _______ _______ _______ _____ _____    ______ ____
ROOT
ATOM      1  C   UNL     1       1.988   7.334  20.242  0.00  0.00    +0.000 C 
ATOM      2  N   UNL     1       2.676   6.328  19.445  0.00  0.00    +0.000 N 
ATOM      3  C   UNL     1       2.780   4.981  19.841  0.00  0.00    +0.000 A 
ATOM      4  C   UNL     1       3.452   4.078  19.084  0.00  0.00    +0.000 A 
ATOM      5  C   UNL     1       4.013   4.532  17.862  0.00  0.00    +0.000 A 
ATOM      6  N   UNL     1       4.683   3.897  16.929  0.00  0.00    +0.000 NA
ATOM      7  C   UNL     1       4.967   4.868  15.998  0.00  0.00    +0.000 A 
ATOM      8  N   UNL     1       4.496   6.083  16.326  0.00  0.00    +0.000 NA
ATOM      9  N   UNL     1       3.882   5.847  17.515  0.00  0.00    +0.000 N 
ATOM     10  C   UNL     1       3.224   6.834  18.249  0.00  0.00    +0.000 A 
ATOM     11  O   UNL     1       3.164   7.991  17.847  0.00  0.00    +0.000 OA
ATOM     12  C   UNL     1       3.632   2.630  19.512  0.00  0.00    +0.000 C 
ATOM     13  C   UNL     1       3.338   2.380  20.985  0.00  0.00    +0.000 C 
ATOM     14  C   UNL     1       2.029   3.048  21.360  0.00  0.00    +0.000 C 
ATOM     15  C   UNL     1       2.122   4.559  21.147  0.00  0.00    +0.000 C 
ENDROOT
BRANCH   7  16
ATOM     16  C   UNL     1       5.718   4.592  14.781  0.00  0.00    +0.000 A 
ATOM     17  C   UNL     1       5.165   3.792  13.766  0.00  0.00    +0.000 A 
ATOM     18  C   UNL     1       5.879   3.529  12.592  0.00  0.00    +0.000 A 
ATOM     19  C   UNL     1       7.155   4.060  12.416  0.00  0.00    +0.000 A 
ATOM     20  C   UNL     1       7.716   4.853  13.414  0.00  0.00    +0.000 A 
ATOM     21  C   UNL     1       7.002   5.114  14.583  0.00  0.00    +0.000 A 
ATOM     22  F   UNL     1       7.597   5.880  15.509  0.00  0.00    +0.000 F 
ENDBRANCH   7  16
TORSDOF 1
ENDMDL
MODEL 4
REMARK VINA RESULT:      -8.0      4.454      6.310
REMARK  Name = 
REMARK  2 active torsions:
REMARK  status: ('A' for Active; 'I' for Inactive)
REMARK    1  A    between atoms: C_1  and  N_2
REMARK    2  A    between atoms: C_7  and  C_8
REMARK                            x       y       z     vdW  Elec       q    Type
REMARK                         _______ _______ _______ _____ _____    ______ ____
ROOT
ATOM      1  C   UNL     1       0.922  12.186  18.871  0.00  0.00    +0.000 C 
ATOM      2  N   UNL     1       1.073  10.816  19.340  0.00  0.00    +0.000 N 
ATOM      3  C   UNL     1       0.569  10.374  20.578  0.00  0.00    +0.000 A 
ATOM      4  C   UNL     1       0.752   9.095  20.992  0.00  0.00    +0.000 A 
ATOM      5  C   UNL     1       1.436   8.212  20.117  0.00  0.00    +0.000 A 
ATOM      6  N   UNL     1       1.735   6.939  20.232  0.00  0.00    +0.000 NA
ATOM      7  C   UNL     1       2.408   6.645  19.071  0.00  0.00    +0.000 A 
ATOM      8  N   UNL     1       2.538   7.693  18.241  0.00  0.00    +0.000 NA
ATOM      9  N   UNL     1       1.902   8.684  18.922  0.00  0.00    +0.000 N 
ATOM     10  C   UNL     1       1.769   9.985  18.439  0.00  0.00    +0.000 A 
ATOM     11  O   UNL     1       2.227  10.308  17.348  0.00  0.00    +0.000 OA
ATOM     12  C   UNL     1       0.272   8.602  22.348  0.00  0.00    +0.000 C 
ATOM     13  C   UNL     1      -0.078   9.718  23.323  0.00  0.00    +0.000 C 
ATOM     14  C   UNL     1      -0.942  10.749  22.623  0.00  0.00    +0.000 C 
ATOM     15  C   UNL     1      -0.186  11.368  21.448  0.00  0.00    +0.000 C 
ENDROOT
BRANCH   7  16
ATOM     16  C   UNL     1       2.935   5.316  18.785  0.00  0.00    +0.000 A 
ATOM     17  C   UNL     1       4.139   4.884  19.366  0.00  0.00    +0.000 A 
ATOM     18  C   UNL     1       4.646   3.608  19.101  0.00  0.00    +0.000 A 
ATOM     19  C   UNL     1       3.958   2.745  18.249  0.00  0.00    +0.000 A 
ATOM     20  C   UNL     1       2.764   3.161  17.664  0.00  0.00    +0.000 A 
ATOM     21  C   UNL     1       2.261   4.434  17.931  0.00  0.00    +0.000 A 
ATOM     22  F   UNL     1       1.111   4.778  17.334  0.00  0.00    +0.000 F 
ENDBRANCH   7  16
TORSDOF 1
ENDMDL
MODEL 5
REMARK VINA RESULT:      -7.9      4.753      6.757
REMARK  Name = 
REMARK  2 active torsions:
REMARK  status: ('A' for Active; 'I' for Inactive)
REMARK    1  A    between atoms: C_1  and  N_2
REMARK    2  A    between atoms: C_7  and  C_8
REMARK                            x       y       z     vdW  Elec       q    Type
REMARK                         _______ _______ _______ _____ _____    ______ ____
ROOT
ATOM      1  C   UNL     1       0.680  11.927  18.633  0.00  0.00    +0.000 C 
ATOM      2  N   UNL     1       0.840  10.654  19.320  0.00  0.00    +0.000 N 
ATOM      3  C   UNL     1       0.295  10.400  20.593  0.00  0.00    +0.000 A 
ATOM      4  C   UNL     1       0.488   9.208  21.213  0.00  0.00    +0.000 A 
ATOM      5  C   UNL     1       1.227   8.217  20.516  0.00  0.00    +0.000 A 
ATOM      6  N   UNL     1       1.548   6.988  20.844  0.00  0.00    +0.000 NA
ATOM      7  C   UNL     1       2.275   6.531  19.770  0.00  0.00    +0.000 A 
ATOM      8  N   UNL     1       2.416   7.438  18.790  0.00  0.00    +0.000 NA
ATOM      9  N   UNL     1       1.732   8.506  19.280  0.00  0.00    +0.000 N 
ATOM     10  C   UNL     1       1.591   9.710  18.590  0.00  0.00    +0.000 A 
ATOM     11  O   UNL     1       2.086   9.869  17.480  0.00  0.00    +0.000 OA
ATOM     12  C   UNL     1      -0.037   8.923  22.611  0.00  0.00    +0.000 C 
ATOM     13  C   UNL     1      -0.452  10.170  23.381  0.00  0.00    +0.000 C 
ATOM     14  C   UNL     1      -1.308  11.052  22.494  0.00  0.00    +0.000 C 
ATOM     15  C   UNL     1      -0.517  11.498  21.264  0.00  0.00    +0.000 C 
ENDROOT
BRANCH   7  16
ATOM     16  C   UNL     1       2.841   5.190  19.720  0.00  0.00    +0.000 A 
ATOM     17  C   UNL     1       4.190   4.995  19.374  0.00  0.00    +0.000 A 
ATOM     18  C   UNL     1       4.741   3.711  19.331  0.00  0.00    +0.000 A 
ATOM     19  C   UNL     1       3.952   2.601  19.631  0.00  0.00    +0.000 A 
ATOM     20  C   UNL     1       2.613   2.778  19.973  0.00  0.00    +0.000 A 
ATOM     21  C   UNL     1       2.067   4.061  20.016  0.00  0.00    +0.000 A 
ATOM     22  F   UNL     1       0.772   4.167  20.347  0.00  0.00    +0.000 F 
ENDBRANCH   7  16
TORSDOF 1
ENDMDL
MODEL 6
REMARK VINA RESULT:      -7.8      3.407      7.323
REMARK  Name = 
REMARK  2 active torsions:
REMARK  status: ('A' for Active; 'I' for Inactive)
REMARK    1  A    between atoms: C_1  and  N_2
REMARK    2  A    between atoms: C_7  and  C_8
REMARK                            x       y       z     vdW  Elec       q    Type
REMARK                         _______ _______ _______ _____ _____    ______ ____
ROOT
ATOM      1  C   UNL     1       3.766   2.753  19.745  0.00  0.00    +0.000 C 
ATOM      2  N   UNL     1       3.450   4.137  19.422  0.00  0.00    +0.000 N 
ATOM      3  C   UNL     1       3.978   4.797  18.295  0.00  0.00    +0.000 A 
ATOM      4  C   UNL     1       3.681   6.096  18.042  0.00  0.00    +0.000 A 
ATOM      5  C   UNL     1       2.791   6.752  18.931  0.00  0.00    +0.000 A 
ATOM      6  N   UNL     1       2.310   7.973  18.928  0.00  0.00    +0.000 NA
ATOM      7  C   UNL     1       1.510   8.023  20.045  0.00  0.00    +0.000 A 
ATOM      8  N   UNL     1       1.481   6.873  20.740  0.00  0.00    +0.000 NA
ATOM      9  N   UNL     1       2.298   6.070  20.008  0.00  0.00    +0.000 N 
ATOM     10  C   UNL     1       2.573   4.744  20.342  0.00  0.00    +0.000 A 
ATOM     11  O   UNL     1       2.077   4.224  21.336  0.00  0.00    +0.000 OA
ATOM     12  C   UNL     1       4.280   6.854  16.868  0.00  0.00    +0.000 C 
ATOM     13  C   UNL     1       5.492   6.173  16.246  0.00  0.00    +0.000 C 
ATOM     14  C   UNL     1       5.191   4.702  16.032  0.00  0.00    +0.000 C 
ATOM     15  C   UNL     1       4.898   4.018  17.366  0.00  0.00    +0.000 C 
ENDROOT
BRANCH   7  16
ATOM     16  C   UNL     1       0.776   9.221  20.432  0.00  0.00    +0.000 A 
ATOM     17  C   UNL     1       0.056   9.958  19.476  0.00  0.00    +0.000 A 
ATOM     18  C   UNL     1      -0.656  11.105  19.843  0.00  0.00    +0.000 A 
ATOM     19  C   UNL     1      -0.658  11.533  21.170  0.00  0.00    +0.000 A 
ATOM     20  C   UNL     1       0.054  10.813  22.127  0.00  0.00    +0.000 A 
ATOM     21  C   UNL     1       0.762   9.670  21.758  0.00  0.00    +0.000 A 
ATOM     22  F   UNL     1       1.431   9.023  22.724  0.00  0.00    +0.000 F 
ENDBRANCH   7  16
TORSDOF 1
ENDMDL
MODEL 7
REMARK VINA RESULT:      -7.8      4.431      6.233
REMARK  Name = 
REMARK  2 active torsions:
REMARK  status: ('A' for Active; 'I' for Inactive)
REMARK    1  A    between atoms: C_1  and  N_2
REMARK    2  A    between atoms: C_7  and  C_8
REMARK                            x       y       z     vdW  Elec       q    Type
REMARK                         _______ _______ _______ _____ _____    ______ ____
ROOT
ATOM      1  C   UNL     1       1.001  11.996  18.777  0.00  0.00    +0.000 C 
ATOM      2  N   UNL     1       1.101  10.650  19.323  0.00  0.00    +0.000 N 
ATOM      3  C   UNL     1       0.567  10.293  20.576  0.00  0.00    +0.000 A 
ATOM      4  C   UNL     1       0.704   9.034  21.062  0.00  0.00    +0.000 A 
ATOM      5  C   UNL     1       1.370   8.083  20.247  0.00  0.00    +0.000 A 
ATOM      6  N   UNL     1       1.625   6.810  20.436  0.00  0.00    +0.000 NA
ATOM      7  C   UNL     1       2.303   6.430  19.302  0.00  0.00    +0.000 A 
ATOM      8  N   UNL     1       2.477   7.427  18.418  0.00  0.00    +0.000 NA
ATOM      9  N   UNL     1       1.866   8.473  19.035  0.00  0.00    +0.000 N 
ATOM     10  C   UNL     1       1.781   9.749  18.479  0.00  0.00    +0.000 A 
ATOM     11  O   UNL     1       2.263   9.997  17.379  0.00  0.00    +0.000 OA
ATOM     12  C   UNL     1       0.191   8.632  22.436  0.00  0.00    +0.000 C 
ATOM     13  C   UNL     1      -0.136   9.811  23.343  0.00  0.00    +0.000 C 
ATOM     14  C   UNL     1      -0.956  10.829  22.575  0.00  0.00    +0.000 C 
ATOM     15  C   UNL     1      -0.166  11.358  21.379  0.00  0.00    +0.000 C 
ENDROOT
BRANCH   7  16
ATOM     16  C   UNL     1       2.790   5.072  19.097  0.00  0.00    +0.000 A 
ATOM     17  C   UNL     1       1.920   4.058  18.662  0.00  0.00    +0.000 A 
ATOM     18  C   UNL     1       2.383   2.754  18.457  0.00  0.00    +0.000 A 
ATOM     19  C   UNL     1       3.723   2.444  18.685  0.00  0.00    +0.000 A 
ATOM     20  C   UNL     1       4.597   3.439  19.117  0.00  0.00    +0.000 A 
ATOM     21  C   UNL     1       4.131   4.738  19.320  0.00  0.00    +0.000 A 
ATOM     22  F   UNL     1       5.020   5.650  19.742  0.00  0.00    +0.000 F 
ENDBRANCH   7  16
TORSDOF 1
ENDMDL
MODEL 8
REMARK VINA RESULT:      -7.7      3.655      7.910
REMARK  Name = 
REMARK  2 active torsions:
REMARK  status: ('A' for Active; 'I' for Inactive)
REMARK    1  A    between atoms: C_1  and  N_2
REMARK    2  A    between atoms: C_7  and  C_8
REMARK                            x       y       z     vdW  Elec       q    Type
REMARK                         _______ _______ _______ _____ _____    ______ ____
ROOT
ATOM      1  C   UNL     1       4.696   5.140  16.985  0.00  0.00    +0.000 C 
ATOM      2  N   UNL     1       3.838   5.495  18.107  0.00  0.00    +0.000 N 
ATOM      3  C   UNL     1       3.506   4.587  19.130  0.00  0.00    +0.000 A 
ATOM      4  C   UNL     1       2.681   4.948  20.146  0.00  0.00    +0.000 A 
ATOM      5  C   UNL     1       2.197   6.281  20.157  0.00  0.00    +0.000 A 
ATOM      6  N   UNL     1       1.419   6.911  21.006  0.00  0.00    +0.000 NA
ATOM      7  C   UNL     1       1.298   8.175  20.478  0.00  0.00    +0.000 A 
ATOM      8  N   UNL     1       1.975   8.347  19.331  0.00  0.00    +0.000 NA
ATOM      9  N   UNL     1       2.550   7.129  19.146  0.00  0.00    +0.000 N 
ATOM     10  C   UNL     1       3.375   6.825  18.063  0.00  0.00    +0.000 A 
ATOM     11  O   UNL     1       3.631   7.663  17.204  0.00  0.00    +0.000 OA
ATOM     12  C   UNL     1       2.257   3.974  21.234  0.00  0.00    +0.000 C 
ATOM     13  C   UNL     1       2.517   2.513  20.892  0.00  0.00    +0.000 C 
ATOM     14  C   UNL     1       3.925   2.363  20.349  0.00  0.00    +0.000 C 
ATOM     15  C   UNL     1       4.093   3.185  19.071  0.00  0.00    +0.000 C 
ENDROOT
BRANCH   7  16
ATOM     16  C   UNL     1       0.500   9.216  21.112  0.00  0.00    +0.000 A 
ATOM     17  C   UNL     1       0.324   9.235  22.506  0.00  0.00    +0.000 A 
ATOM     18  C   UNL     1      -0.435  10.236  23.120  0.00  0.00    +0.000 A 
ATOM     19  C   UNL     1      -1.032  11.233  22.349  0.00  0.00    +0.000 A 
ATOM     20  C   UNL     1      -0.868  11.226  20.966  0.00  0.00    +0.000 A 
ATOM     21  C   UNL     1      -0.110  10.226  20.357  0.00  0.00    +0.000 A 
ATOM     22  F   UNL     1       0.007  10.271  19.022  0.00  0.00    +0.000 F 
ENDBRANCH   7  16
TORSDOF 1
ENDMDL
MODEL 9
REMARK VINA RESULT:      -7.7      4.007      6.106
REMARK  Name = 
REMARK  2 active torsions:
REMARK  status: ('A' for Active; 'I' for Inactive)
REMARK    1  A    between atoms: C_1  and  N_2
REMARK    2  A    between atoms: C_7  and  C_8
REMARK                            x       y       z     vdW  Elec       q    Type
REMARK                         _______ _______ _______ _____ _____    ______ ____
ROOT
ATOM      1  C   UNL     1       0.941  12.740  19.228  0.00  0.00    +0.000 C 
ATOM      2  N   UNL     1       1.099  11.313  19.472  0.00  0.00    +0.000 N 
ATOM      3  C   UNL     1       0.608  10.679  20.630  0.00  0.00    +0.000 A 
ATOM      4  C   UNL     1       0.798   9.350  20.834  0.00  0.00    +0.000 A 
ATOM      5  C   UNL     1       1.474   8.620  19.823  0.00  0.00    +0.000 A 
ATOM      6  N   UNL     1       1.776   7.346  19.732  0.00  0.00    +0.000 NA
ATOM      7  C   UNL     1       2.437   7.241  18.532  0.00  0.00    +0.000 A 
ATOM      8  N   UNL     1       2.556   8.409  17.878  0.00  0.00    +0.000 NA
ATOM      9  N   UNL     1       1.927   9.276  18.714  0.00  0.00    +0.000 N 
ATOM     10  C   UNL     1       1.786  10.638  18.444  0.00  0.00    +0.000 A 
ATOM     11  O   UNL     1       2.232  11.131  17.414  0.00  0.00    +0.000 OA
ATOM     12  C   UNL     1       0.333   8.648  22.100  0.00  0.00    +0.000 C 
ATOM     13  C   UNL     1      -0.009   9.594  23.242  0.00  0.00    +0.000 C 
ATOM     14  C   UNL     1      -0.882  10.720  22.724  0.00  0.00    +0.000 C 
ATOM     15  C   UNL     1      -0.139  11.520  21.654  0.00  0.00    +0.000 C 
ENDROOT
BRANCH   7  16
ATOM     16  C   UNL     1       2.963   5.977  18.033  0.00  0.00    +0.000 A 
ATOM     17  C   UNL     1       2.132   4.848  17.929  0.00  0.00    +0.000 A 
ATOM     18  C   UNL     1       2.629   3.634  17.446  0.00  0.00    +0.000 A 
ATOM     19  C   UNL     1       3.965   3.529  17.060  0.00  0.00    +0.000 A 
ATOM     20  C   UNL     1       4.801   4.639  17.160  0.00  0.00    +0.000 A 
ATOM     21  C   UNL     1       4.301   5.849  17.642  0.00  0.00    +0.000 A 
ATOM     22  F   UNL     1       5.156   6.879  17.720  0.00  0.00    +0.000 F 
ENDBRANCH   7  16
TORSDOF 1
ENDMDL
