MODEL 1
REMARK VINA RESULT:      -8.1      0.000      0.000
REMARK  Name = 
REMARK  3 active torsions:
REMARK  status: ('A' for Active; 'I' for Inactive)
REMARK    1  A    between atoms: C_1  and  C_2
REMARK    2  A    between atoms: C_8  and  C_9
REMARK    3  A    between atoms: C_9  and  N_10
REMARK                            x       y       z     vdW  Elec       q    Type
REMARK                         _______ _______ _______ _____ _____    ______ ____
ROOT
ATOM      1  C   UNL     1       4.573   3.978  17.455  0.00  0.00    +0.000 C 
ENDROOT
BRANCH   1   9
ATOM      2  C   UNL     1       5.114   2.762  12.016  0.00  0.00    +0.000 C 
ATOM      3  C   UNL     1       6.005   3.751  12.717  0.00  0.00    +0.000 A 
ATOM      4  C   UNL     1       7.062   4.278  12.052  0.00  0.00    +0.000 A 
ATOM      5  C   UNL     1       8.017   5.173  12.680  0.00  0.00    +0.000 A 
ATOM      6  C   UNL     1       7.865   5.489  13.975  0.00  0.00    +0.000 A 
ATOM      7  N   UNL     1       6.785   4.962  14.676  0.00  0.00    +0.000 N 
ATOM      8  C   UNL     1       6.455   5.100  16.002  0.00  0.00    +0.000 A 
ATOM      9  C   UNL     1       5.305   4.359  16.193  0.00  0.00    +0.000 A 
ATOM     10  N   UNL     1       4.906   3.801  14.984  0.00  0.00    +0.000 NA
ATOM     11  C   UNL     1       5.825   4.137  14.099  0.00  0.00    +0.000 A 
ENDBRANCH   1   9
BRANCH   1  12
ATOM     12  N   UNL     1       3.390   3.118  17.277  0.00  0.00    +0.000 NA
ATOM     13  C   UNL     1       3.421   1.935  18.133  0.00  0.00    +0.000 C 
ATOM     14  C   UNL     1       2.405   2.114  19.241  0.00  0.00    +0.000 C 
ATOM     15  C   UNL     1       2.704   2.742  20.620  0.00  0.00    +0.000 C 
ATOM     16  C   UNL     1       3.057   4.251  20.677  0.00  0.00    +0.000 C 
ATOM     17  C   UNL     1       1.745   4.971  20.338  0.00  0.00    +0.000 C 
ATOM     18  C   UNL     1       0.848   3.796  19.966  0.00  0.00    +0.000 C 
ATOM     19  C   UNL     1       1.247   2.826  21.103  0.00  0.00    +0.000 C 
ATOM     20  C   UNL     1       1.346   3.059  18.680  0.00  0.00    +0.000 C 
ATOM     21  C   UNL     1       2.099   3.807  17.556  0.00  0.00    +0.000 C 
ENDBRANCH   1  12
TORSDOF 2
ENDMDL
MODEL 2
REMARK VINA RESULT:      -7.9      4.105      7.597
REMARK  Name = 
REMARK  3 active torsions:
REMARK  status: ('A' for Active; 'I' for Inactive)
REMARK    1  A    between atoms: C_1  and  C_2
REMARK    2  A    between atoms: C_8  and  C_9
REMARK    3  A    between atoms: C_9  and  N_10
REMARK                            x       y       z     vdW  Elec       q    Type
REMARK                         _______ _______ _______ _____ _____    ______ ____
ROOT
ATOM      1  C   UNL     1       2.588   6.317  19.656  0.00  0.00    +0.000 C 
ENDROOT
BRANCH   1   9
ATOM      2  C   UNL     1      -0.327   9.661  23.073  0.00  0.00    +0.000 C 
ATOM      3  C   UNL     1       0.027  10.054  21.665  0.00  0.00    +0.000 A 
ATOM      4  C   UNL     1      -0.481  11.199  21.149  0.00  0.00    +0.000 A 
ATOM      5  C   UNL     1      -0.256  11.607  19.774  0.00  0.00    +0.000 A 
ATOM      6  C   UNL     1       0.471  10.820  18.967  0.00  0.00    +0.000 A 
ATOM      7  N   UNL     1       1.005   9.641  19.477  0.00  0.00    +0.000 N 
ATOM      8  C   UNL     1       1.729   8.664  18.839  0.00  0.00    +0.000 A 
ATOM      9  C   UNL     1       1.995   7.697  19.789  0.00  0.00    +0.000 A 
ATOM     10  N   UNL     1       1.473   8.095  21.015  0.00  0.00    +0.000 NA
ATOM     11  C   UNL     1       0.849   9.237  20.799  0.00  0.00    +0.000 A 
ENDBRANCH   1   9
BRANCH   1  12
ATOM     12  N   UNL     1       2.797   5.839  18.278  0.00  0.00    +0.000 NA
ATOM     13  C   UNL     1       4.116   5.244  18.083  0.00  0.00    +0.000 C 
ATOM     14  C   UNL     1       3.957   3.743  17.964  0.00  0.00    +0.000 C 
ATOM     15  C   UNL     1       4.024   2.751  19.146  0.00  0.00    +0.000 C 
ATOM     16  C   UNL     1       2.897   2.802  20.210  0.00  0.00    +0.000 C 
ATOM     17  C   UNL     1       1.654   2.268  19.487  0.00  0.00    +0.000 C 
ATOM     18  C   UNL     1       2.174   2.135  18.060  0.00  0.00    +0.000 C 
ATOM     19  C   UNL     1       3.554   1.510  18.370  0.00  0.00    +0.000 C 
ATOM     20  C   UNL     1       2.544   3.520  17.435  0.00  0.00    +0.000 C 
ATOM     21  C   UNL     1       1.805   4.816  17.841  0.00  0.00    +0.000 C 
ENDBRANCH   1  12
TORSDOF 2
ENDMDL
MODEL 3
REMARK VINA RESULT:      -7.7      0.929      1.785
REMARK  Name = 
REMARK  3 active torsions:
REMARK  status: ('A' for Active; 'I' for Inactive)
REMARK    1  A    between atoms: C_1  and  C_2
REMARK    2  A    between atoms: C_8  and  C_9
REMARK    3  A    between atoms: C_9  and  N_10
REMARK                            x       y       z     vdW  Elec       q    Type
REMARK                         _______ _______ _______ _____ _____    ______ ____
ROOT
ATOM      1  C   UNL     1       5.008   4.179  17.515  0.00  0.00    +0.000 C 
ENDROOT
BRANCH   1   9
ATOM      2  C   UNL     1       5.146   2.736  12.106  0.00  0.00    +0.000 C 
ATOM      3  C   UNL     1       6.074   3.763  12.693  0.00  0.00    +0.000 A 
ATOM      4  C   UNL     1       7.069   4.272  11.927  0.00  0.00    +0.000 A 
ATOM      5  C   UNL     1       8.057   5.203  12.441  0.00  0.00    +0.000 A 
ATOM      6  C   UNL     1       8.002   5.573  13.729  0.00  0.00    +0.000 A 
ATOM      7  N   UNL     1       6.986   5.066  14.533  0.00  0.00    +0.000 N 
ATOM      8  C   UNL     1       6.758   5.257  15.874  0.00  0.00    +0.000 A 
ATOM      9  C   UNL     1       5.636   4.513  16.185  0.00  0.00    +0.000 A 
ATOM     10  N   UNL     1       5.153   3.900  15.035  0.00  0.00    +0.000 NA
ATOM     11  C   UNL     1       5.996   4.206  14.067  0.00  0.00    +0.000 A 
ENDBRANCH   1   9
BRANCH   1  12
ATOM     12  N   UNL     1       4.247   5.266  18.156  0.00  0.00    +0.000 NA
ATOM     13  C   UNL     1       2.862   5.327  17.700  0.00  0.00    +0.000 C 
ATOM     14  C   UNL     1       1.964   4.824  18.810  0.00  0.00    +0.000 C 
ATOM     15  C   UNL     1       1.518   3.356  18.990  0.00  0.00    +0.000 C 
ATOM     16  C   UNL     1       2.594   2.303  19.360  0.00  0.00    +0.000 C 
ATOM     17  C   UNL     1       2.985   2.638  20.805  0.00  0.00    +0.000 C 
ATOM     18  C   UNL     1       2.216   3.934  21.029  0.00  0.00    +0.000 C 
ATOM     19  C   UNL     1       0.874   3.528  20.375  0.00  0.00    +0.000 C 
ATOM     20  C   UNL     1       2.725   5.090  20.106  0.00  0.00    +0.000 C 
ATOM     21  C   UNL     1       4.198   5.168  19.642  0.00  0.00    +0.000 C 
ENDBRANCH   1  12
TORSDOF 2
ENDMDL
MODEL 4
REMARK VINA RESULT:      -7.6      3.811      6.962
REMARK  Name = 
REMARK  3 active torsions:
REMARK  status: ('A' for Active; 'I' for Inactive)
REMARK    1  A    between atoms: C_1  and  C_2
REMARK    2  A    between atoms: C_8  and  C_9
REMARK    3  A    between atoms: C_9  and  N_10
REMARK                            x       y       z     vdW  Elec       q    Type
REMARK                         _______ _______ _______ _____ _____    ______ ____
ROOT
ATOM      1  C   UNL     1       3.399   6.400  18.883  0.00  0.00    +0.000 C 
ENDROOT
BRANCH   1   9
ATOM      2  C   UNL     1      -0.248   8.977  22.261  0.00  0.00    +0.000 C 
ATOM      3  C   UNL     1       0.069   9.480  20.880  0.00  0.00    +0.000 A 
ATOM      4  C   UNL     1      -0.639  10.518  20.373  0.00  0.00    +0.000 A 
ATOM      5  C   UNL     1      -0.453  11.008  19.019  0.00  0.00    +0.000 A 
ATOM      6  C   UNL     1       0.446  10.410  18.224  0.00  0.00    +0.000 A 
ATOM      7  N   UNL     1       1.187   9.344  18.724  0.00  0.00    +0.000 N 
ATOM      8  C   UNL     1       2.115   8.554  18.092  0.00  0.00    +0.000 A 
ATOM      9  C   UNL     1       2.536   7.628  19.027  0.00  0.00    +0.000 A 
ATOM     10  N   UNL     1       1.902   7.873  20.240  0.00  0.00    +0.000 NA
ATOM     11  C   UNL     1       1.068   8.873  20.028  0.00  0.00    +0.000 A 
ENDBRANCH   1   9
BRANCH   1  12
ATOM     12  N   UNL     1       3.036   5.486  17.786  0.00  0.00    +0.000 NA
ATOM     13  C   UNL     1       3.902   4.312  17.722  0.00  0.00    +0.000 C 
ATOM     14  C   UNL     1       3.122   3.109  18.208  0.00  0.00    +0.000 C 
ATOM     15  C   UNL     1       3.079   2.616  19.671  0.00  0.00    +0.000 C 
ATOM     16  C   UNL     1       2.384   3.514  20.727  0.00  0.00    +0.000 C 
ATOM     17  C   UNL     1       0.891   3.438  20.379  0.00  0.00    +0.000 C 
ATOM     18  C   UNL     1       0.929   2.649  19.076  0.00  0.00    +0.000 C 
ATOM     19  C   UNL     1       1.965   1.575  19.481  0.00  0.00    +0.000 C 
ATOM     20  C   UNL     1       1.656   3.430  17.933  0.00  0.00    +0.000 C 
ATOM     21  C   UNL     1       1.639   4.975  17.868  0.00  0.00    +0.000 C 
ENDBRANCH   1  12
TORSDOF 2
ENDMDL
MODEL 5
REMARK VINA RESULT:      -7.5      1.462      2.842
REMARK  Name = 
REMARK  3 active torsions:
REMARK  status: ('A' for Active; 'I' for Inactive)
REMARK    1  A    between atoms: C_1  and  C_2
REMARK    2  A    between atoms: C_8  and  C_9
REMARK    3  A    between atoms: C_9  and  N_10
REMARK                            x       y       z     vdW  Elec       q    Type
REMARK                         _______ _______ _______ _____ _____    ______ ____
ROOT
ATOM      1  C   UNL     1       6.384   4.746  17.753  0.00  0.00    +0.000 C 
ENDROOT
BRANCH   1   9
ATOM      2  C   UNL     1       8.868   6.080  12.915  0.00  0.00    +0.000 C 
ATOM      3  C   UNL     1       7.767   5.060  13.005  0.00  0.00    +0.000 A 
ATOM      4  C   UNL     1       7.259   4.530  11.865  0.00  0.00    +0.000 A 
ATOM      5  C   UNL     1       6.141   3.604  11.861  0.00  0.00    +0.000 A 
ATOM      6  C   UNL     1       5.570   3.260  13.024  0.00  0.00    +0.000 A 
ATOM      7  N   UNL     1       6.077   3.789  14.207  0.00  0.00    +0.000 N 
ATOM      8  C   UNL     1       5.633   3.626  15.496  0.00  0.00    +0.000 A 
ATOM      9  C   UNL     1       6.471   4.382  16.292  0.00  0.00    +0.000 A 
ATOM     10  N   UNL     1       7.450   4.975  15.503  0.00  0.00    +0.000 NA
ATOM     11  C   UNL     1       7.173   4.645  14.256  0.00  0.00    +0.000 A 
ENDBRANCH   1   9
BRANCH   1  12
ATOM     12  N   UNL     1       5.395   5.782  18.099  0.00  0.00    +0.000 NA
ATOM     13  C   UNL     1       4.317   5.879  17.119  0.00  0.00    +0.000 C 
ATOM     14  C   UNL     1       3.059   5.294  17.723  0.00  0.00    +0.000 C 
ATOM     15  C   UNL     1       2.623   3.817  17.600  0.00  0.00    +0.000 C 
ATOM     16  C   UNL     1       3.484   2.737  18.305  0.00  0.00    +0.000 C 
ATOM     17  C   UNL     1       3.237   2.961  19.803  0.00  0.00    +0.000 C 
ATOM     18  C   UNL     1       2.405   4.237  19.781  0.00  0.00    +0.000 C 
ATOM     19  C   UNL     1       1.463   3.884  18.607  0.00  0.00    +0.000 C 
ATOM     20  C   UNL     1       3.212   5.459  19.232  0.00  0.00    +0.000 C 
ATOM     21  C   UNL     1       4.743   5.571  19.422  0.00  0.00    +0.000 C 
ENDBRANCH   1  12
TORSDOF 2
ENDMDL
MODEL 6
REMARK VINA RESULT:      -7.4      4.467      8.034
REMARK  Name = 
REMARK  3 active torsions:
REMARK  status: ('A' for Active; 'I' for Inactive)
REMARK    1  A    between atoms: C_1  and  C_2
REMARK    2  A    between atoms: C_8  and  C_9
REMARK    3  A    between atoms: C_9  and  N_10
REMARK                            x       y       z     vdW  Elec       q    Type
REMARK                         _______ _______ _______ _____ _____    ______ ____
ROOT
ATOM      1  C   UNL     1       2.389   7.115  18.939  0.00  0.00    +0.000 C 
ENDROOT
BRANCH   1   9
ATOM      2  C   UNL     1      -0.137   9.555  23.300  0.00  0.00    +0.000 C 
ATOM      3  C   UNL     1      -0.038  10.213  21.951  0.00  0.00    +0.000 A 
ATOM      4  C   UNL     1      -0.690  11.381  21.734  0.00  0.00    +0.000 A 
ATOM      5  C   UNL     1      -0.714  12.035  20.438  0.00  0.00    +0.000 A 
ATOM      6  C   UNL     1      -0.080  11.465  19.404  0.00  0.00    +0.000 A 
ATOM      7  N   UNL     1       0.600  10.268  19.605  0.00  0.00    +0.000 N 
ATOM      8  C   UNL     1       1.269   9.482  18.700  0.00  0.00    +0.000 A 
ATOM      9  C   UNL     1       1.743   8.394  19.408  0.00  0.00    +0.000 A 
ATOM     10  N   UNL     1       1.401   8.530  20.749  0.00  0.00    +0.000 NA
ATOM     11  C   UNL     1       0.682   9.632  20.840  0.00  0.00    +0.000 A 
ENDBRANCH   1   9
BRANCH   1  12
ATOM     12  N   UNL     1       2.868   6.212  20.000  0.00  0.00    +0.000 NA
ATOM     13  C   UNL     1       1.791   5.432  20.603  0.00  0.00    +0.000 C 
ATOM     14  C   UNL     1       1.909   3.999  20.130  0.00  0.00    +0.000 C 
ATOM     15  C   UNL     1       1.211   3.421  18.879  0.00  0.00    +0.000 C 
ATOM     16  C   UNL     1       1.660   3.935  17.486  0.00  0.00    +0.000 C 
ATOM     17  C   UNL     1       3.068   3.357  17.294  0.00  0.00    +0.000 C 
ATOM     18  C   UNL     1       3.320   2.726  18.658  0.00  0.00    +0.000 C 
ATOM     19  C   UNL     1       1.938   2.067  18.872  0.00  0.00    +0.000 C 
ATOM     20  C   UNL     1       3.384   3.794  19.799  0.00  0.00    +0.000 C 
ATOM     21  C   UNL     1       3.890   5.232  19.537  0.00  0.00    +0.000 C 
ENDBRANCH   1  12
TORSDOF 2
ENDMDL
MODEL 7
REMARK VINA RESULT:      -7.3      4.012      8.005
REMARK  Name = 
REMARK  3 active torsions:
REMARK  status: ('A' for Active; 'I' for Inactive)
REMARK    1  A    between atoms: C_1  and  C_2
REMARK    2  A    between atoms: C_8  and  C_9
REMARK    3  A    between atoms: C_9  and  N_10
REMARK                            x       y       z     vdW  Elec       q    Type
REMARK                         _______ _______ _______ _____ _____    ______ ____
ROOT
ATOM      1  C   UNL     1       3.029   6.935  18.182  0.00  0.00    +0.000 C 
ENDROOT
BRANCH   1   9
ATOM      2  C   UNL     1       0.362  11.813  18.845  0.00  0.00    +0.000 C 
ATOM      3  C   UNL     1       0.418  10.769  19.926  0.00  0.00    +0.000 A 
ATOM      4  C   UNL     1      -0.080  11.057  21.153  0.00  0.00    +0.000 A 
ATOM      5  C   UNL     1       0.010  10.136  22.271  0.00  0.00    +0.000 A 
ATOM      6  C   UNL     1       0.620   8.954  22.100  0.00  0.00    +0.000 A 
ATOM      7  N   UNL     1       1.136   8.636  20.848  0.00  0.00    +0.000 N 
ATOM      8  C   UNL     1       1.836   7.524  20.450  0.00  0.00    +0.000 A 
ATOM      9  C   UNL     1       2.135   7.712  19.114  0.00  0.00    +0.000 A 
ATOM     10  N   UNL     1       1.587   8.915  18.682  0.00  0.00    +0.000 NA
ATOM     11  C   UNL     1       1.031   9.472  19.741  0.00  0.00    +0.000 A 
ENDBRANCH   1   9
BRANCH   1  12
ATOM     12  N   UNL     1       3.428   5.594  18.645  0.00  0.00    +0.000 NA
ATOM     13  C   UNL     1       3.125   4.549  17.671  0.00  0.00    +0.000 C 
ATOM     14  C   UNL     1       4.421   4.084  17.042  0.00  0.00    +0.000 C 
ATOM     15  C   UNL     1       5.041   4.675  15.757  0.00  0.00    +0.000 C 
ATOM     16  C   UNL     1       5.566   6.133  15.799  0.00  0.00    +0.000 C 
ATOM     17  C   UNL     1       6.814   6.071  16.690  0.00  0.00    +0.000 C 
ATOM     18  C   UNL     1       6.757   4.630  17.182  0.00  0.00    +0.000 C 
ATOM     19  C   UNL     1       6.388   3.940  15.848  0.00  0.00    +0.000 C 
ATOM     20  C   UNL     1       5.505   4.362  18.079  0.00  0.00    +0.000 C 
ATOM     21  C   UNL     1       4.880   5.473  18.954  0.00  0.00    +0.000 C 
ENDBRANCH   1  12
TORSDOF 2
ENDMDL
MODEL 8
REMARK VINA RESULT:      -7.3      2.580      3.737
REMARK  Name = 
REMARK  3 active torsions:
REMARK  status: ('A' for Active; 'I' for Inactive)
REMARK    1  A    between atoms: C_1  and  C_2
REMARK    2  A    between atoms: C_8  and  C_9
REMARK    3  A    between atoms: C_9  and  N_10
REMARK                            x       y       z     vdW  Elec       q    Type
REMARK                         _______ _______ _______ _____ _____    ______ ____
ROOT
ATOM      1  C   UNL     1       4.335   3.122  17.196  0.00  0.00    +0.000 C 
ENDROOT
BRANCH   1   9
ATOM      2  C   UNL     1       8.400   5.430  20.279  0.00  0.00    +0.000 C 
ATOM      3  C   UNL     1       7.858   6.082  19.037  0.00  0.00    +0.000 A 
ATOM      4  C   UNL     1       8.267   7.332  18.711  0.00  0.00    +0.000 A 
ATOM      5  C   UNL     1       7.730   8.063  17.578  0.00  0.00    +0.000 A 
ATOM      6  C   UNL     1       6.781   7.494  16.821  0.00  0.00    +0.000 A 
ATOM      7  N   UNL     1       6.348   6.210  17.135  0.00  0.00    +0.000 N 
ATOM      8  C   UNL     1       5.365   5.452  16.546  0.00  0.00    +0.000 A 
ATOM      9  C   UNL     1       5.317   4.265  17.251  0.00  0.00    +0.000 A 
ATOM     10  N   UNL     1       6.291   4.275  18.242  0.00  0.00    +0.000 NA
ATOM     11  C   UNL     1       6.867   5.461  18.186  0.00  0.00    +0.000 A 
ENDBRANCH   1   9
BRANCH   1  12
ATOM     12  N   UNL     1       2.916   3.501  17.076  0.00  0.00    +0.000 NA
ATOM     13  C   UNL     1       2.011   2.403  17.403  0.00  0.00    +0.000 C 
ATOM     14  C   UNL     1       1.374   2.684  18.747  0.00  0.00    +0.000 C 
ATOM     15  C   UNL     1       1.938   2.217  20.107  0.00  0.00    +0.000 C 
ATOM     16  C   UNL     1       3.277   2.829  20.595  0.00  0.00    +0.000 C 
ATOM     17  C   UNL     1       2.937   4.286  20.936  0.00  0.00    +0.000 C 
ATOM     18  C   UNL     1       1.496   4.378  20.449  0.00  0.00    +0.000 C 
ATOM     19  C   UNL     1       0.976   3.027  20.992  0.00  0.00    +0.000 C 
ATOM     20  C   UNL     1       1.386   4.202  18.898  0.00  0.00    +0.000 C 
ATOM     21  C   UNL     1       2.524   4.643  17.949  0.00  0.00    +0.000 C 
ENDBRANCH   1  12
TORSDOF 2
ENDMDL
MODEL 9
REMARK VINA RESULT:      -7.2      3.862      7.268
REMARK  Name = 
REMARK  3 active torsions:
REMARK  status: ('A' for Active; 'I' for Inactive)
REMARK    1  A    between atoms: C_1  and  C_2
REMARK    2  A    between atoms: C_8  and  C_9
REMARK    3  A    between atoms: C_9  and  N_10
REMARK                            x       y       z     vdW  Elec       q    Type
REMARK                         _______ _______ _______ _____ _____    ______ ____
ROOT
ATOM      1  C   UNL     1       3.342   6.597  18.975  0.00  0.00    +0.000 C 
ENDROOT
BRANCH   1   9
ATOM      2  C   UNL     1       0.750  11.553  18.711  0.00  0.00    +0.000 C 
ATOM      3  C   UNL     1       0.496  10.566  19.817  0.00  0.00    +0.000 A 
ATOM      4  C   UNL     1      -0.288  10.927  20.861  0.00  0.00    +0.000 A 
ATOM      5  C   UNL     1      -0.514  10.065  22.007  0.00  0.00    +0.000 A 
ATOM      6  C   UNL     1       0.081   8.864  22.051  0.00  0.00    +0.000 A 
ATOM      7  N   UNL     1       0.888   8.471  20.988  0.00  0.00    +0.000 N 
ATOM      8  C   UNL     1       1.631   7.327  20.834  0.00  0.00    +0.000 A 
ATOM      9  C   UNL     1       2.265   7.440  19.611  0.00  0.00    +0.000 A 
ATOM     10  N   UNL     1       1.883   8.628  18.999  0.00  0.00    +0.000 NA
ATOM     11  C   UNL     1       1.095   9.250  19.854  0.00  0.00    +0.000 A 
ENDBRANCH   1   9
BRANCH   1  12
ATOM     12  N   UNL     1       2.918   5.770  17.832  0.00  0.00    +0.000 NA
ATOM     13  C   UNL     1       3.792   4.621  17.615  0.00  0.00    +0.000 C 
ATOM     14  C   UNL     1       3.061   3.369  18.049  0.00  0.00    +0.000 C 
ATOM     15  C   UNL     1       3.120   2.757  19.466  0.00  0.00    +0.000 C 
ATOM     16  C   UNL     1       2.485   3.554  20.635  0.00  0.00    +0.000 C 
ATOM     17  C   UNL     1       0.974   3.481  20.380  0.00  0.00    +0.000 C 
ATOM     18  C   UNL     1       0.935   2.801  19.016  0.00  0.00    +0.000 C 
ATOM     19  C   UNL     1       2.008   1.716  19.264  0.00  0.00    +0.000 C 
ATOM     20  C   UNL     1       1.576   3.686  17.898  0.00  0.00    +0.000 C 
ATOM     21  C   UNL     1       1.536   5.230  17.962  0.00  0.00    +0.000 C 
ENDBRANCH   1  12
TORSDOF 2
ENDMDL
