MODEL 1
REMARK VINA RESULT:      -6.7      0.000      0.000
REMARK  Name = 
REMARK  12 active torsions:
REMARK  status: ('A' for Active; 'I' for Inactive)
REMARK    1  A    between atoms: C_1  and  C_2
REMARK    2  A    between atoms: C_2  and  C_3
REMARK    3  A    between atoms: C_3  and  O_4
REMARK    4  A    between atoms: O_4  and  C_5
REMARK    5  A    between atoms: C_5  and  C_6
REMARK    6  A    between atoms: C_5  and  C_8
REMARK    7  A    between atoms: C_6  and  C_7
REMARK    8  A    between atoms: C_10  and  C_11
REMARK    9  A    between atoms: C_11  and  O_13
REMARK   10  A    between atoms: C_15  and  N_16
REMARK   11  A    between atoms: C_20  and  N_21
REMARK   12  A    between atoms: C_22  and  C_23
REMARK                            x       y       z     vdW  Elec       q    Type
REMARK                         _______ _______ _______ _____ _____    ______ ____
ROOT
ATOM      1  C   UNL     1       3.986   5.394  17.467  0.00  0.00    +0.000 C 
ATOM      2  O   UNL     1       3.742   6.806  17.728  0.00  0.00    +0.000 OA
ATOM      3  C   UNL     1       2.592   7.094  18.456  0.00  0.00    +0.000 C 
ATOM      4  C   UNL     1       1.895   6.185  19.153  0.00  0.00    +0.000 C 
ATOM      5  C   UNL     1       2.314   4.755  19.259  0.00  0.00    +0.000 C 
ATOM      6  C   UNL     1       3.789   4.588  18.788  0.00  0.00    +0.000 C 
ENDROOT
BRANCH   5   7
ATOM      7  N   UNL     1       2.234   4.363  20.671  0.00  0.00    +0.000 NA
ATOM      8  C   UNL     1       1.479   3.390  21.014  0.00  0.00    +0.000 C 
ATOM      9  N   UNL     1       0.614   2.638  20.302  0.00  0.00    +0.000 N 
ATOM     10  N   UNL     1       1.490   2.962  22.294  0.00  0.00    +0.000 N 
ATOM     11  H   UNL     1       0.605   2.800  19.296  0.00  0.00    +0.000 HD
ATOM     12  H   UNL     1       0.717   1.645  20.489  0.00  0.00    +0.000 HD
ATOM     13  H   UNL     1       1.909   3.660  22.899  0.00  0.00    +0.000 HD
ATOM     14  H   UNL     1       0.577   2.679  22.624  0.00  0.00    +0.000 HD
ENDBRANCH   5   7
BRANCH   6  15
ATOM     15  N   UNL     1       4.214   3.189  18.762  0.00  0.00    +0.000 N 
ATOM     16  C   UNL     1       3.512   2.193  18.131  0.00  0.00    +0.000 C 
ATOM     17  C   UNL     1       4.234   0.876  18.088  0.00  0.00    +0.000 C 
ATOM     18  O   UNL     1       2.382   2.343  17.680  0.00  0.00    +0.000 OA
ATOM     19  H   UNL     1       5.157   2.994  19.070  0.00  0.00    +0.000 HD
ENDBRANCH   6  15
BRANCH   3  20
ATOM     20  C   UNL     1       2.103   8.512  18.486  0.00  0.00    +0.000 C 
ATOM     21  O   UNL     1       1.616   9.079  19.446  0.00  0.00    +0.000 OA
BRANCH  20  22
ATOM     22  O   UNL     1       2.270   9.098  17.278  0.00  0.00    +0.000 OA
ATOM     23  H   UNL     1       2.395  10.059  17.394  0.00  0.00    +0.000 HD
ENDBRANCH  20  22
ENDBRANCH   3  20
BRANCH   1  24
ATOM     24  C   UNL     1       5.416   5.229  16.817  0.00  0.00    +0.000 C 
BRANCH  24  25
ATOM     25  C   UNL     1       5.522   4.095  15.770  0.00  0.00    +0.000 C 
ATOM     26  C   UNL     1       5.987   4.486  14.381  0.00  0.00    +0.000 C 
ENDBRANCH  24  25
BRANCH  24  27
ATOM     27  O   UNL     1       6.360   4.974  17.874  0.00  0.00    +0.000 OA
BRANCH  27  28
ATOM     28  C   UNL     1       7.462   5.852  18.072  0.00  0.00    +0.000 C 
BRANCH  28  30
ATOM     29  C   UNL     1       8.116   8.298  17.985  0.00  0.00    +0.000 C 
ATOM     30  C   UNL     1       7.379   7.161  17.295  0.00  0.00    +0.000 C 
ENDBRANCH  28  30
ENDBRANCH  27  28
ENDBRANCH  24  27
ENDBRANCH   1  24
TORSDOF 9
ENDMDL
MODEL 2
REMARK VINA RESULT:      -6.5      1.976      5.075
REMARK  Name = 
REMARK  12 active torsions:
REMARK  status: ('A' for Active; 'I' for Inactive)
REMARK    1  A    between atoms: C_1  and  C_2
REMARK    2  A    between atoms: C_2  and  C_3
REMARK    3  A    between atoms: C_3  and  O_4
REMARK    4  A    between atoms: O_4  and  C_5
REMARK    5  A    between atoms: C_5  and  C_6
REMARK    6  A    between atoms: C_5  and  C_8
REMARK    7  A    between atoms: C_6  and  C_7
REMARK    8  A    between atoms: C_10  and  C_11
REMARK    9  A    between atoms: C_11  and  O_13
REMARK   10  A    between atoms: C_15  and  N_16
REMARK   11  A    between atoms: C_20  and  N_21
REMARK   12  A    between atoms: C_22  and  C_23
REMARK                            x       y       z     vdW  Elec       q    Type
REMARK                         _______ _______ _______ _____ _____    ______ ____
ROOT
ATOM      1  C   UNL     1       3.570   6.573  18.893  0.00  0.00    +0.000 C 
ATOM      2  O   UNL     1       4.501   7.007  17.860  0.00  0.00    +0.000 OA
ATOM      3  C   UNL     1       5.612   6.193  17.670  0.00  0.00    +0.000 C 
ATOM      4  C   UNL     1       5.719   4.942  18.143  0.00  0.00    +0.000 C 
ATOM      5  C   UNL     1       4.619   4.268  18.894  0.00  0.00    +0.000 C 
ATOM      6  C   UNL     1       3.284   5.050  18.717  0.00  0.00    +0.000 C 
ENDROOT
BRANCH   5   7
ATOM      7  N   UNL     1       4.443   2.923  18.333  0.00  0.00    +0.000 NA
ATOM      8  C   UNL     1       4.576   1.901  19.089  0.00  0.00    +0.000 C 
ATOM      9  N   UNL     1       4.949   1.789  20.380  0.00  0.00    +0.000 N 
ATOM     10  N   UNL     1       4.308   0.673  18.596  0.00  0.00    +0.000 N 
ATOM     11  H   UNL     1       5.069   2.664  20.887  0.00  0.00    +0.000 HD
ATOM     12  H   UNL     1       4.342   1.168  20.908  0.00  0.00    +0.000 HD
ATOM     13  H   UNL     1       4.293   0.693  17.581  0.00  0.00    +0.000 HD
ATOM     14  H   UNL     1       4.934  -0.039  18.947  0.00  0.00    +0.000 HD
ENDBRANCH   5   7
BRANCH   6  15
ATOM     15  N   UNL     1       2.198   4.498  19.527  0.00  0.00    +0.000 N 
ATOM     16  C   UNL     1       1.258   3.625  19.042  0.00  0.00    +0.000 C 
ATOM     17  C   UNL     1       0.354   3.058  20.100  0.00  0.00    +0.000 C 
ATOM     18  O   UNL     1       1.132   3.357  17.852  0.00  0.00    +0.000 OA
ATOM     19  H   UNL     1       2.262   4.632  20.526  0.00  0.00    +0.000 HD
ENDBRANCH   6  15
BRANCH   3  20
ATOM     20  C   UNL     1       6.762   6.730  16.870  0.00  0.00    +0.000 C 
ATOM     21  O   UNL     1       7.255   7.837  16.981  0.00  0.00    +0.000 OA
BRANCH  20  22
ATOM     22  O   UNL     1       7.195   5.806  15.981  0.00  0.00    +0.000 OA
ATOM     23  H   UNL     1       7.028   4.910  16.332  0.00  0.00    +0.000 HD
ENDBRANCH  20  22
ENDBRANCH   3  20
BRANCH   1  24
ATOM     24  C   UNL     1       2.280   7.483  18.841  0.00  0.00    +0.000 C 
BRANCH  24  25
ATOM     25  C   UNL     1       2.226   8.456  17.639  0.00  0.00    +0.000 C 
ATOM     26  C   UNL     1       1.979   9.919  17.953  0.00  0.00    +0.000 C 
ENDBRANCH  24  25
BRANCH  24  27
ATOM     27  O   UNL     1       2.224   8.248  20.059  0.00  0.00    +0.000 OA
BRANCH  27  28
ATOM     28  C   UNL     1       1.129   8.085  20.953  0.00  0.00    +0.000 C 
BRANCH  28  30
ATOM     29  C   UNL     1      -0.454   9.136  22.628  0.00  0.00    +0.000 C 
ATOM     30  C   UNL     1       0.646   9.376  21.607  0.00  0.00    +0.000 C 
ENDBRANCH  28  30
ENDBRANCH  27  28
ENDBRANCH  24  27
ENDBRANCH   1  24
TORSDOF 9
ENDMDL
MODEL 3
REMARK VINA RESULT:      -6.4      0.588      1.061
REMARK  Name = 
REMARK  12 active torsions:
REMARK  status: ('A' for Active; 'I' for Inactive)
REMARK    1  A    between atoms: C_1  and  C_2
REMARK    2  A    between atoms: C_2  and  C_3
REMARK    3  A    between atoms: C_3  and  O_4
REMARK    4  A    between atoms: O_4  and  C_5
REMARK    5  A    between atoms: C_5  and  C_6
REMARK    6  A    between atoms: C_5  and  C_8
REMARK    7  A    between atoms: C_6  and  C_7
REMARK    8  A    between atoms: C_10  and  C_11
REMARK    9  A    between atoms: C_11  and  O_13
REMARK   10  A    between atoms: C_15  and  N_16
REMARK   11  A    between atoms: C_20  and  N_21
REMARK   12  A    between atoms: C_22  and  C_23
REMARK                            x       y       z     vdW  Elec       q    Type
REMARK                         _______ _______ _______ _____ _____    ______ ____
ROOT
ATOM      1  C   UNL     1       3.846   5.622  17.189  0.00  0.00    +0.000 C 
ATOM      2  O   UNL     1       3.618   7.037  17.448  0.00  0.00    +0.000 OA
ATOM      3  C   UNL     1       2.575   7.331  18.319  0.00  0.00    +0.000 C 
ATOM      4  C   UNL     1       1.994   6.431  19.127  0.00  0.00    +0.000 C 
ATOM      5  C   UNL     1       2.445   5.010  19.209  0.00  0.00    +0.000 C 
ATOM      6  C   UNL     1       3.843   4.848  18.543  0.00  0.00    +0.000 C 
ENDROOT
BRANCH   5   7
ATOM      7  N   UNL     1       2.565   4.653  20.627  0.00  0.00    +0.000 NA
ATOM      8  C   UNL     1       1.857   3.699  21.099  0.00  0.00    +0.000 C 
ATOM      9  N   UNL     1       0.891   2.942  20.539  0.00  0.00    +0.000 N 
ATOM     10  N   UNL     1       2.048   3.301  22.375  0.00  0.00    +0.000 N 
ATOM     11  H   UNL     1       0.740   3.079  19.541  0.00  0.00    +0.000 HD
ATOM     12  H   UNL     1       1.010   1.952  20.734  0.00  0.00    +0.000 HD
ATOM     13  H   UNL     1       2.557   4.009  22.895  0.00  0.00    +0.000 HD
ATOM     14  H   UNL     1       1.189   3.040  22.840  0.00  0.00    +0.000 HD
ENDBRANCH   5   7
BRANCH   6  15
ATOM     15  N   UNL     1       4.282   3.453  18.492  0.00  0.00    +0.000 N 
ATOM     16  C   UNL     1       3.497   2.427  18.033  0.00  0.00    +0.000 C 
ATOM     17  C   UNL     1       4.223   1.117  17.909  0.00  0.00    +0.000 C 
ATOM     18  O   UNL     1       2.303   2.546  17.785  0.00  0.00    +0.000 OA
ATOM     19  H   UNL     1       5.268   3.281  18.634  0.00  0.00    +0.000 HD
ENDBRANCH   6  15
BRANCH   3  20
ATOM     20  C   UNL     1       2.073   8.743  18.383  0.00  0.00    +0.000 C 
ATOM     21  O   UNL     1       2.184   9.581  17.507  0.00  0.00    +0.000 OA
BRANCH  20  22
ATOM     22  O   UNL     1       1.468   8.978  19.570  0.00  0.00    +0.000 OA
ATOM     23  H   UNL     1       1.310   9.936  19.673  0.00  0.00    +0.000 HD
ENDBRANCH  20  22
ENDBRANCH   3  20
BRANCH   1  24
ATOM     24  C   UNL     1       5.176   5.457  16.353  0.00  0.00    +0.000 C 
BRANCH  24  25
ATOM     25  C   UNL     1       5.250   4.164  15.508  0.00  0.00    +0.000 C 
ATOM     26  C   UNL     1       6.329   4.102  14.444  0.00  0.00    +0.000 C 
ENDBRANCH  24  25
BRANCH  24  27
ATOM     27  O   UNL     1       6.285   5.475  17.271  0.00  0.00    +0.000 OA
BRANCH  27  28
ATOM     28  C   UNL     1       7.183   6.579  17.282  0.00  0.00    +0.000 C 
BRANCH  28  30
ATOM     29  C   UNL     1       7.681   5.637  19.580  0.00  0.00    +0.000 C 
ATOM     30  C   UNL     1       7.976   6.739  18.575  0.00  0.00    +0.000 C 
ENDBRANCH  28  30
ENDBRANCH  27  28
ENDBRANCH  24  27
ENDBRANCH   1  24
TORSDOF 9
ENDMDL
MODEL 4
REMARK VINA RESULT:      -6.4      0.854      2.498
REMARK  Name = 
REMARK  12 active torsions:
REMARK  status: ('A' for Active; 'I' for Inactive)
REMARK    1  A    between atoms: C_1  and  C_2
REMARK    2  A    between atoms: C_2  and  C_3
REMARK    3  A    between atoms: C_3  and  O_4
REMARK    4  A    between atoms: O_4  and  C_5
REMARK    5  A    between atoms: C_5  and  C_6
REMARK    6  A    between atoms: C_5  and  C_8
REMARK    7  A    between atoms: C_6  and  C_7
REMARK    8  A    between atoms: C_10  and  C_11
REMARK    9  A    between atoms: C_11  and  O_13
REMARK   10  A    between atoms: C_15  and  N_16
REMARK   11  A    between atoms: C_20  and  N_21
REMARK   12  A    between atoms: C_22  and  C_23
REMARK                            x       y       z     vdW  Elec       q    Type
REMARK                         _______ _______ _______ _____ _____    ______ ____
ROOT
ATOM      1  C   UNL     1       4.016   5.534  17.380  0.00  0.00    +0.000 C 
ATOM      2  O   UNL     1       3.759   6.945  17.640  0.00  0.00    +0.000 OA
ATOM      3  C   UNL     1       2.595   7.225  18.347  0.00  0.00    +0.000 C 
ATOM      4  C   UNL     1       1.890   6.310  19.029  0.00  0.00    +0.000 C 
ATOM      5  C   UNL     1       2.315   4.883  19.140  0.00  0.00    +0.000 C 
ATOM      6  C   UNL     1       3.799   4.724  18.695  0.00  0.00    +0.000 C 
ENDROOT
BRANCH   5   7
ATOM      7  N   UNL     1       2.211   4.486  20.549  0.00  0.00    +0.000 NA
ATOM      8  C   UNL     1       1.467   3.500  20.874  0.00  0.00    +0.000 C 
ATOM      9  N   UNL     1       0.630   2.734  20.144  0.00  0.00    +0.000 N 
ATOM     10  N   UNL     1       1.458   3.070  22.154  0.00  0.00    +0.000 N 
ATOM     11  H   UNL     1       0.641   2.897  19.138  0.00  0.00    +0.000 HD
ATOM     12  H   UNL     1       0.747   1.742  20.331  0.00  0.00    +0.000 HD
ATOM     13  H   UNL     1       1.851   3.775  22.769  0.00  0.00    +0.000 HD
ATOM     14  H   UNL     1       0.543   2.771  22.464  0.00  0.00    +0.000 HD
ENDBRANCH   5   7
BRANCH   6  15
ATOM     15  N   UNL     1       4.232   3.328  18.674  0.00  0.00    +0.000 N 
ATOM     16  C   UNL     1       3.539   2.327  18.042  0.00  0.00    +0.000 C 
ATOM     17  C   UNL     1       4.269   1.014  18.005  0.00  0.00    +0.000 C 
ATOM     18  O   UNL     1       2.411   2.469  17.585  0.00  0.00    +0.000 OA
ATOM     19  H   UNL     1       5.174   3.139  18.986  0.00  0.00    +0.000 HD
ENDBRANCH   6  15
BRANCH   3  20
ATOM     20  C   UNL     1       2.097   8.640  18.371  0.00  0.00    +0.000 C 
ATOM     21  O   UNL     1       2.195   9.448  17.466  0.00  0.00    +0.000 OA
BRANCH  20  22
ATOM     22  O   UNL     1       1.512   8.917  19.559  0.00  0.00    +0.000 OA
ATOM     23  H   UNL     1       0.920   8.182  19.812  0.00  0.00    +0.000 HD
ENDBRANCH  20  22
ENDBRANCH   3  20
BRANCH   1  24
ATOM     24  C   UNL     1       5.458   5.379  16.756  0.00  0.00    +0.000 C 
BRANCH  24  25
ATOM     25  C   UNL     1       6.374   6.613  16.934  0.00  0.00    +0.000 C 
ATOM     26  C   UNL     1       7.459   6.515  17.989  0.00  0.00    +0.000 C 
ENDBRANCH  24  25
BRANCH  24  27
ATOM     27  O   UNL     1       5.309   5.112  15.349  0.00  0.00    +0.000 OA
BRANCH  27  28
ATOM     28  C   UNL     1       5.866   3.930  14.785  0.00  0.00    +0.000 C 
BRANCH  28  30
ATOM     29  C   UNL     1       5.874   3.301  12.331  0.00  0.00    +0.000 C 
ATOM     30  C   UNL     1       6.530   4.127  13.427  0.00  0.00    +0.000 C 
ENDBRANCH  28  30
ENDBRANCH  27  28
ENDBRANCH  24  27
ENDBRANCH   1  24
TORSDOF 9
ENDMDL
MODEL 5
REMARK VINA RESULT:      -6.4      1.019      1.254
REMARK  Name = 
REMARK  12 active torsions:
REMARK  status: ('A' for Active; 'I' for Inactive)
REMARK    1  A    between atoms: C_1  and  C_2
REMARK    2  A    between atoms: C_2  and  C_3
REMARK    3  A    between atoms: C_3  and  O_4
REMARK    4  A    between atoms: O_4  and  C_5
REMARK    5  A    between atoms: C_5  and  C_6
REMARK    6  A    between atoms: C_5  and  C_8
REMARK    7  A    between atoms: C_6  and  C_7
REMARK    8  A    between atoms: C_10  and  C_11
REMARK    9  A    between atoms: C_11  and  O_13
REMARK   10  A    between atoms: C_15  and  N_16
REMARK   11  A    between atoms: C_20  and  N_21
REMARK   12  A    between atoms: C_22  and  C_23
REMARK                            x       y       z     vdW  Elec       q    Type
REMARK                         _______ _______ _______ _____ _____    ______ ____
ROOT
ATOM      1  C   UNL     1       4.057   5.234  17.100  0.00  0.00    +0.000 C 
ATOM      2  O   UNL     1       3.908   6.648  17.420  0.00  0.00    +0.000 OA
ATOM      3  C   UNL     1       2.728   6.998  18.067  0.00  0.00    +0.000 C 
ATOM      4  C   UNL     1       1.902   6.119  18.653  0.00  0.00    +0.000 C 
ATOM      5  C   UNL     1       2.192   4.655  18.712  0.00  0.00    +0.000 C 
ATOM      6  C   UNL     1       3.682   4.384  18.352  0.00  0.00    +0.000 C 
ENDROOT
BRANCH   5   7
ATOM      7  N   UNL     1       1.960   4.201  20.088  0.00  0.00    +0.000 NA
ATOM      8  C   UNL     1       1.148   3.237  20.306  0.00  0.00    +0.000 C 
ATOM      9  N   UNL     1       0.339   2.547  19.477  0.00  0.00    +0.000 N 
ATOM     10  N   UNL     1       1.019   2.751  21.559  0.00  0.00    +0.000 N 
ATOM     11  H   UNL     1       0.436   2.754  18.484  0.00  0.00    +0.000 HD
ATOM     12  H   UNL     1       0.396   1.543  19.624  0.00  0.00    +0.000 HD
ATOM     13  H   UNL     1       1.394   3.408  22.236  0.00  0.00    +0.000 HD
ATOM     14  H   UNL     1       0.070   2.483  21.783  0.00  0.00    +0.000 HD
ENDBRANCH   5   7
BRANCH   6  15
ATOM     15  N   UNL     1       3.992   2.956  18.281  0.00  0.00    +0.000 N 
ATOM     16  C   UNL     1       4.487   2.234  19.336  0.00  0.00    +0.000 C 
ATOM     17  C   UNL     1       4.558   0.755  19.078  0.00  0.00    +0.000 C 
ATOM     18  O   UNL     1       4.879   2.742  20.381  0.00  0.00    +0.000 OA
ATOM     19  H   UNL     1       3.653   2.457  17.471  0.00  0.00    +0.000 HD
ENDBRANCH   6  15
BRANCH   3  20
ATOM     20  C   UNL     1       2.355   8.449  18.138  0.00  0.00    +0.000 C 
ATOM     21  O   UNL     1       2.526   9.275  17.260  0.00  0.00    +0.000 OA
BRANCH  20  22
ATOM     22  O   UNL     1       1.794   8.737  19.335  0.00  0.00    +0.000 OA
ATOM     23  H   UNL     1       2.315   8.322  20.050  0.00  0.00    +0.000 HD
ENDBRANCH  20  22
ENDBRANCH   3  20
BRANCH   1  24
ATOM     24  C   UNL     1       5.519   4.979  16.559  0.00  0.00    +0.000 C 
BRANCH  24  25
ATOM     25  C   UNL     1       5.601   4.011  15.355  0.00  0.00    +0.000 C 
ATOM     26  C   UNL     1       6.497   4.424  14.203  0.00  0.00    +0.000 C 
ENDBRANCH  24  25
BRANCH  24  27
ATOM     27  O   UNL     1       6.307   4.445  17.638  0.00  0.00    +0.000 OA
BRANCH  27  28
ATOM     28  C   UNL     1       7.626   4.929  17.866  0.00  0.00    +0.000 C 
BRANCH  28  30
ATOM     29  C   UNL     1       7.783   7.457  17.900  0.00  0.00    +0.000 C 
ATOM     30  C   UNL     1       7.700   6.184  18.728  0.00  0.00    +0.000 C 
ENDBRANCH  28  30
ENDBRANCH  27  28
ENDBRANCH  24  27
ENDBRANCH   1  24
TORSDOF 9
ENDMDL
MODEL 6
REMARK VINA RESULT:      -6.3      2.305      5.627
REMARK  Name = 
REMARK  12 active torsions:
REMARK  status: ('A' for Active; 'I' for Inactive)
REMARK    1  A    between atoms: C_1  and  C_2
REMARK    2  A    between atoms: C_2  and  C_3
REMARK    3  A    between atoms: C_3  and  O_4
REMARK    4  A    between atoms: O_4  and  C_5
REMARK    5  A    between atoms: C_5  and  C_6
REMARK    6  A    between atoms: C_5  and  C_8
REMARK    7  A    between atoms: C_6  and  C_7
REMARK    8  A    between atoms: C_10  and  C_11
REMARK    9  A    between atoms: C_11  and  O_13
REMARK   10  A    between atoms: C_15  and  N_16
REMARK   11  A    between atoms: C_20  and  N_21
REMARK   12  A    between atoms: C_22  and  C_23
REMARK                            x       y       z     vdW  Elec       q    Type
REMARK                         _______ _______ _______ _____ _____    ______ ____
ROOT
ATOM      1  C   UNL     1       4.390   5.834  18.310  0.00  0.00    +0.000 C 
ATOM      2  O   UNL     1       5.360   6.900  18.095  0.00  0.00    +0.000 OA
ATOM      3  C   UNL     1       6.646   6.486  17.764  0.00  0.00    +0.000 C 
ATOM      4  C   UNL     1       6.956   5.246  17.356  0.00  0.00    +0.000 C 
ATOM      5  C   UNL     1       5.929   4.178  17.168  0.00  0.00    +0.000 C 
ATOM      6  C   UNL     1       4.501   4.799  17.150  0.00  0.00    +0.000 C 
ENDROOT
BRANCH   5   7
ATOM      7  N   UNL     1       6.171   3.539  15.870  0.00  0.00    +0.000 NA
ATOM      8  C   UNL     1       6.145   4.244  14.804  0.00  0.00    +0.000 C 
ATOM      9  N   UNL     1       5.842   5.542  14.601  0.00  0.00    +0.000 N 
ATOM     10  N   UNL     1       6.474   3.675  13.625  0.00  0.00    +0.000 N 
ATOM     11  H   UNL     1       5.686   6.101  15.439  0.00  0.00    +0.000 HD
ATOM     12  H   UNL     1       6.516   6.009  13.999  0.00  0.00    +0.000 HD
ATOM     13  H   UNL     1       6.440   2.663  13.697  0.00  0.00    +0.000 HD
ATOM     14  H   UNL     1       5.917   4.015  12.853  0.00  0.00    +0.000 HD
ENDBRANCH   5   7
BRANCH   6  15
ATOM     15  N   UNL     1       3.449   3.785  17.084  0.00  0.00    +0.000 N 
ATOM     16  C   UNL     1       3.287   2.797  18.022  0.00  0.00    +0.000 C 
ATOM     17  C   UNL     1       2.036   1.986  17.839  0.00  0.00    +0.000 C 
ATOM     18  O   UNL     1       4.103   2.562  18.906  0.00  0.00    +0.000 OA
ATOM     19  H   UNL     1       2.709   3.939  16.414  0.00  0.00    +0.000 HD
ENDBRANCH   6  15
BRANCH   3  20
ATOM     20  C   UNL     1       7.761   7.486  17.845  0.00  0.00    +0.000 C 
ATOM     21  O   UNL     1       7.969   8.390  17.057  0.00  0.00    +0.000 OA
BRANCH  20  22
ATOM     22  O   UNL     1       8.532   7.250  18.931  0.00  0.00    +0.000 OA
ATOM     23  H   UNL     1       8.841   8.098  19.304  0.00  0.00    +0.000 HD
ENDBRANCH  20  22
ENDBRANCH   3  20
BRANCH   1  24
ATOM     24  C   UNL     1       2.953   6.470  18.475  0.00  0.00    +0.000 C 
BRANCH  24  25
ATOM     25  C   UNL     1       2.861   7.964  18.083  0.00  0.00    +0.000 C 
ATOM     26  C   UNL     1       1.470   8.539  17.899  0.00  0.00    +0.000 C 
ENDBRANCH  24  25
BRANCH  24  27
ATOM     27  O   UNL     1       2.557   6.327  19.851  0.00  0.00    +0.000 OA
BRANCH  27  28
ATOM     28  C   UNL     1       1.689   5.267  20.236  0.00  0.00    +0.000 C 
BRANCH  28  30
ATOM     29  C   UNL     1       1.511   3.017  21.387  0.00  0.00    +0.000 C 
ATOM     30  C   UNL     1       2.254   4.341  21.307  0.00  0.00    +0.000 C 
ENDBRANCH  28  30
ENDBRANCH  27  28
ENDBRANCH  24  27
ENDBRANCH   1  24
TORSDOF 9
ENDMDL
MODEL 7
REMARK VINA RESULT:      -6.2      2.689      6.042
REMARK  Name = 
REMARK  12 active torsions:
REMARK  status: ('A' for Active; 'I' for Inactive)
REMARK    1  A    between atoms: C_1  and  C_2
REMARK    2  A    between atoms: C_2  and  C_3
REMARK    3  A    between atoms: C_3  and  O_4
REMARK    4  A    between atoms: O_4  and  C_5
REMARK    5  A    between atoms: C_5  and  C_6
REMARK    6  A    between atoms: C_5  and  C_8
REMARK    7  A    between atoms: C_6  and  C_7
REMARK    8  A    between atoms: C_10  and  C_11
REMARK    9  A    between atoms: C_11  and  O_13
REMARK   10  A    between atoms: C_15  and  N_16
REMARK   11  A    between atoms: C_20  and  N_21
REMARK   12  A    between atoms: C_22  and  C_23
REMARK                            x       y       z     vdW  Elec       q    Type
REMARK                         _______ _______ _______ _____ _____    ______ ____
ROOT
ATOM      1  C   UNL     1       4.147   4.154  16.941  0.00  0.00    +0.000 C 
ATOM      2  O   UNL     1       5.090   3.701  15.927  0.00  0.00    +0.000 OA
ATOM      3  C   UNL     1       5.653   4.700  15.139  0.00  0.00    +0.000 C 
ATOM      4  C   UNL     1       5.613   6.007  15.439  0.00  0.00    +0.000 C 
ATOM      5  C   UNL     1       4.992   6.528  16.693  0.00  0.00    +0.000 C 
ATOM      6  C   UNL     1       4.759   5.367  17.704  0.00  0.00    +0.000 C 
ENDROOT
BRANCH   5   7
ATOM      7  N   UNL     1       5.924   7.487  17.297  0.00  0.00    +0.000 NA
ATOM      8  C   UNL     1       7.116   7.118  17.577  0.00  0.00    +0.000 C 
ATOM      9  N   UNL     1       7.719   5.915  17.496  0.00  0.00    +0.000 N 
ATOM     10  N   UNL     1       8.002   8.029  18.032  0.00  0.00    +0.000 N 
ATOM     11  H   UNL     1       7.176   5.171  17.059  0.00  0.00    +0.000 HD
ATOM     12  H   UNL     1       8.637   5.968  17.063  0.00  0.00    +0.000 HD
ATOM     13  H   UNL     1       7.520   8.861  18.358  0.00  0.00    +0.000 HD
ATOM     14  H   UNL     1       8.625   7.657  18.736  0.00  0.00    +0.000 HD
ENDBRANCH   5   7
BRANCH   6  15
ATOM     15  N   UNL     1       4.046   5.803  18.905  0.00  0.00    +0.000 N 
ATOM     16  C   UNL     1       2.881   6.525  18.876  0.00  0.00    +0.000 C 
ATOM     17  C   UNL     1       2.243   6.702  20.225  0.00  0.00    +0.000 C 
ATOM     18  O   UNL     1       2.417   7.021  17.855  0.00  0.00    +0.000 OA
ATOM     19  H   UNL     1       4.339   5.394  19.781  0.00  0.00    +0.000 HD
ENDBRANCH   6  15
BRANCH   3  20
ATOM     20  C   UNL     1       6.369   4.301  13.883  0.00  0.00    +0.000 C 
ATOM     21  O   UNL     1       6.083   3.359  13.166  0.00  0.00    +0.000 OA
BRANCH  20  22
ATOM     22  O   UNL     1       7.403   5.138  13.639  0.00  0.00    +0.000 OA
ATOM     23  H   UNL     1       8.197   4.620  13.407  0.00  0.00    +0.000 HD
ENDBRANCH  20  22
ENDBRANCH   3  20
BRANCH   1  24
ATOM     24  C   UNL     1       3.762   2.934  17.868  0.00  0.00    +0.000 C 
BRANCH  24  25
ATOM     25  C   UNL     1       2.263   2.551  17.839  0.00  0.00    +0.000 C 
ATOM     26  C   UNL     1       1.265   3.691  17.795  0.00  0.00    +0.000 C 
ENDBRANCH  24  25
BRANCH  24  27
ATOM     27  O   UNL     1       4.129   3.267  19.219  0.00  0.00    +0.000 OA
BRANCH  27  28
ATOM     28  C   UNL     1       3.627   2.497  20.305  0.00  0.00    +0.000 C 
BRANCH  28  30
ATOM     29  C   UNL     1       1.394   2.665  21.489  0.00  0.00    +0.000 C 
ATOM     30  C   UNL     1       2.771   3.279  21.295  0.00  0.00    +0.000 C 
ENDBRANCH  28  30
ENDBRANCH  27  28
ENDBRANCH  24  27
ENDBRANCH   1  24
TORSDOF 9
ENDMDL
MODEL 8
REMARK VINA RESULT:      -6.2      1.363      2.664
REMARK  Name = 
REMARK  12 active torsions:
REMARK  status: ('A' for Active; 'I' for Inactive)
REMARK    1  A    between atoms: C_1  and  C_2
REMARK    2  A    between atoms: C_2  and  C_3
REMARK    3  A    between atoms: C_3  and  O_4
REMARK    4  A    between atoms: O_4  and  C_5
REMARK    5  A    between atoms: C_5  and  C_6
REMARK    6  A    between atoms: C_5  and  C_8
REMARK    7  A    between atoms: C_6  and  C_7
REMARK    8  A    between atoms: C_10  and  C_11
REMARK    9  A    between atoms: C_11  and  O_13
REMARK   10  A    between atoms: C_15  and  N_16
REMARK   11  A    between atoms: C_20  and  N_21
REMARK   12  A    between atoms: C_22  and  C_23
REMARK                            x       y       z     vdW  Elec       q    Type
REMARK                         _______ _______ _______ _____ _____    ______ ____
ROOT
ATOM      1  C   UNL     1       4.166   5.706  17.093  0.00  0.00    +0.000 C 
ATOM      2  O   UNL     1       3.962   7.095  17.483  0.00  0.00    +0.000 OA
ATOM      3  C   UNL     1       2.698   7.403  17.976  0.00  0.00    +0.000 C 
ATOM      4  C   UNL     1       1.803   6.487  18.376  0.00  0.00    +0.000 C 
ATOM      5  C   UNL     1       2.093   5.022  18.377  0.00  0.00    +0.000 C 
ATOM      6  C   UNL     1       3.622   4.774  18.218  0.00  0.00    +0.000 C 
ENDROOT
BRANCH   5   7
ATOM      7  N   UNL     1       1.669   4.476  19.672  0.00  0.00    +0.000 NA
ATOM      8  C   UNL     1       1.051   3.358  19.714  0.00  0.00    +0.000 C 
ATOM      9  N   UNL     1       0.604   2.549  18.732  0.00  0.00    +0.000 N 
ATOM     10  N   UNL     1       0.758   2.807  20.910  0.00  0.00    +0.000 N 
ATOM     11  H   UNL     1       0.868   2.810  17.783  0.00  0.00    +0.000 HD
ATOM     12  H   UNL     1       0.838   1.573  18.895  0.00  0.00    +0.000 HD
ATOM     13  H   UNL     1       0.831   3.500  21.648  0.00  0.00    +0.000 HD
ATOM     14  H   UNL     1      -0.138   2.340  20.922  0.00  0.00    +0.000 HD
ENDBRANCH   5   7
BRANCH   6  15
ATOM     15  N   UNL     1       3.950   3.353  18.097  0.00  0.00    +0.000 N 
ATOM     16  C   UNL     1       4.418   2.590  19.136  0.00  0.00    +0.000 C 
ATOM     17  C   UNL     1       4.513   1.125  18.817  0.00  0.00    +0.000 C 
ATOM     18  O   UNL     1       4.771   3.057  20.213  0.00  0.00    +0.000 OA
ATOM     19  H   UNL     1       3.643   2.886  17.255  0.00  0.00    +0.000 HD
ENDBRANCH   6  15
BRANCH   3  20
ATOM     20  C   UNL     1       2.308   8.847  18.091  0.00  0.00    +0.000 C 
ATOM     21  O   UNL     1       2.586   9.727  17.297  0.00  0.00    +0.000 OA
BRANCH  20  22
ATOM     22  O   UNL     1       1.593   9.057  19.219  0.00  0.00    +0.000 OA
ATOM     23  H   UNL     1       0.993   9.817  19.091  0.00  0.00    +0.000 HD
ENDBRANCH  20  22
ENDBRANCH   3  20
BRANCH   1  24
ATOM     24  C   UNL     1       5.693   5.485  16.752  0.00  0.00    +0.000 C 
BRANCH  24  25
ATOM     25  C   UNL     1       6.674   6.280  17.646  0.00  0.00    +0.000 C 
ATOM     26  C   UNL     1       7.555   5.474  18.581  0.00  0.00    +0.000 C 
ENDBRANCH  24  25
BRANCH  24  27
ATOM     27  O   UNL     1       5.903   5.866  15.380  0.00  0.00    +0.000 OA
BRANCH  27  28
ATOM     28  C   UNL     1       6.645   5.019  14.511  0.00  0.00    +0.000 C 
BRANCH  28  30
ATOM     29  C   UNL     1       6.314   3.515  12.499  0.00  0.00    +0.000 C 
ATOM     30  C   UNL     1       5.840   3.878  13.898  0.00  0.00    +0.000 C 
ENDBRANCH  28  30
ENDBRANCH  27  28
ENDBRANCH  24  27
ENDBRANCH   1  24
TORSDOF 9
ENDMDL
MODEL 9
REMARK VINA RESULT:      -6.1      1.979      5.102
REMARK  Name = 
REMARK  12 active torsions:
REMARK  status: ('A' for Active; 'I' for Inactive)
REMARK    1  A    between atoms: C_1  and  C_2
REMARK    2  A    between atoms: C_2  and  C_3
REMARK    3  A    between atoms: C_3  and  O_4
REMARK    4  A    between atoms: O_4  and  C_5
REMARK    5  A    between atoms: C_5  and  C_6
REMARK    6  A    between atoms: C_5  and  C_8
REMARK    7  A    between atoms: C_6  and  C_7
REMARK    8  A    between atoms: C_10  and  C_11
REMARK    9  A    between atoms: C_11  and  O_13
REMARK   10  A    between atoms: C_15  and  N_16
REMARK   11  A    between atoms: C_20  and  N_21
REMARK   12  A    between atoms: C_22  and  C_23
REMARK                            x       y       z     vdW  Elec       q    Type
REMARK                         _______ _______ _______ _____ _____    ______ ____
ROOT
ATOM      1  C   UNL     1       3.573   6.275  19.112  0.00  0.00    +0.000 C 
ATOM      2  O   UNL     1       4.153   6.501  17.794  0.00  0.00    +0.000 OA
ATOM      3  C   UNL     1       5.292   5.758  17.502  0.00  0.00    +0.000 C 
ATOM      4  C   UNL     1       5.690   4.685  18.201  0.00  0.00    +0.000 C 
ATOM      5  C   UNL     1       4.915   4.141  19.356  0.00  0.00    +0.000 C 
ATOM      6  C   UNL     1       3.478   4.741  19.373  0.00  0.00    +0.000 C 
ENDROOT
BRANCH   5   7
ATOM      7  N   UNL     1       4.807   2.688  19.185  0.00  0.00    +0.000 NA
ATOM      8  C   UNL     1       4.086   2.215  18.241  0.00  0.00    +0.000 C 
ATOM      9  N   UNL     1       3.280   2.820  17.345  0.00  0.00    +0.000 N 
ATOM     10  N   UNL     1       4.074   0.883  18.021  0.00  0.00    +0.000 N 
ATOM     11  H   UNL     1       3.298   3.839  17.346  0.00  0.00    +0.000 HD
ATOM     12  H   UNL     1       3.422   2.476  16.399  0.00  0.00    +0.000 HD
ATOM     13  H   UNL     1       4.441   0.386  18.826  0.00  0.00    +0.000 HD
ATOM     14  H   UNL     1       3.164   0.536  17.748  0.00  0.00    +0.000 HD
ENDBRANCH   5   7
BRANCH   6  15
ATOM     15  N   UNL     1       2.713   4.331  20.550  0.00  0.00    +0.000 N 
ATOM     16  C   UNL     1       1.648   3.468  20.501  0.00  0.00    +0.000 C 
ATOM     17  C   UNL     1       1.137   3.058  21.853  0.00  0.00    +0.000 C 
ATOM     18  O   UNL     1       1.127   3.093  19.456  0.00  0.00    +0.000 OA
ATOM     19  H   UNL     1       3.108   4.558  21.451  0.00  0.00    +0.000 HD
ENDBRANCH   6  15
BRANCH   3  20
ATOM     20  C   UNL     1       6.123   6.161  16.320  0.00  0.00    +0.000 C 
ATOM     21  O   UNL     1       7.335   6.092  16.242  0.00  0.00    +0.000 OA
BRANCH  20  22
ATOM     22  O   UNL     1       5.336   6.628  15.323  0.00  0.00    +0.000 OA
ATOM     23  H   UNL     1       4.584   7.120  15.703  0.00  0.00    +0.000 HD
ENDBRANCH  20  22
ENDBRANCH   3  20
BRANCH   1  24
ATOM     24  C   UNL     1       2.191   7.034  19.204  0.00  0.00    +0.000 C 
BRANCH  24  25
ATOM     25  C   UNL     1       2.226   8.499  18.710  0.00  0.00    +0.000 C 
ATOM     26  C   UNL     1       1.243   8.878  17.619  0.00  0.00    +0.000 C 
ENDBRANCH  24  25
BRANCH  24  27
ATOM     27  O   UNL     1       1.764   7.018  20.579  0.00  0.00    +0.000 OA
BRANCH  27  28
ATOM     28  C   UNL     1       1.439   8.237  21.238  0.00  0.00    +0.000 C 
BRANCH  28  30
ATOM     29  C   UNL     1      -0.264   9.333  22.759  0.00  0.00    +0.000 C 
ATOM     30  C   UNL     1      -0.038   8.397  21.582  0.00  0.00    +0.000 C 
ENDBRANCH  28  30
ENDBRANCH  27  28
ENDBRANCH  24  27
ENDBRANCH   1  24
TORSDOF 9
ENDMDL
