MODEL 1
REMARK VINA RESULT:      -8.4      0.000      0.000
REMARK  Name = 
REMARK  10 active torsions:
REMARK  status: ('A' for Active; 'I' for Inactive)
REMARK    1  A    between atoms: C_1  and  O_2
REMARK    2  A    between atoms: O_2  and  C_3
REMARK    3  A    between atoms: C_5  and  O_6
REMARK    4  A    between atoms: C_11  and  C_12
REMARK    5  A    between atoms: C_15  and  N_16
REMARK    6  A    between atoms: N_22  and  C_23
REMARK    7  A    between atoms: C_30  and  O_31
REMARK    8  A    between atoms: O_31  and  C_32
REMARK    9  A    between atoms: C_32  and  C_33
REMARK   10  A    between atoms: C_32  and  C_34
REMARK                            x       y       z     vdW  Elec       q    Type
REMARK                         _______ _______ _______ _____ _____    ______ ____
ROOT
ATOM      1  C   UNL     1       4.122   3.076  18.978  0.00  0.00    +0.000 A 
ATOM      2  C   UNL     1       4.888   3.206  17.813  0.00  0.00    +0.000 A 
ATOM      3  C   UNL     1       4.964   4.418  17.139  0.00  0.00    +0.000 A 
ATOM      4  C   UNL     1       4.245   5.520  17.596  0.00  0.00    +0.000 A 
ATOM      5  C   UNL     1       4.263   6.811  16.873  0.00  0.00    +0.000 A 
ATOM      6  O   UNL     1       4.903   7.028  15.855  0.00  0.00    +0.000 OA
ATOM      7  C   UNL     1       3.420   7.868  17.413  0.00  0.00    +0.000 A 
ATOM      8  C   UNL     1       2.689   7.654  18.513  0.00  0.00    +0.000 A 
ATOM      9  O   UNL     1       2.727   6.474  19.239  0.00  0.00    +0.000 OA
ATOM     10  C   UNL     1       3.473   5.411  18.763  0.00  0.00    +0.000 A 
ATOM     11  C   UNL     1       3.412   4.189  19.478  0.00  0.00    +0.000 A 
ENDROOT
BRANCH   8  12
ATOM     12  C   UNL     1       1.762   8.689  19.021  0.00  0.00    +0.000 A 
ATOM     13  C   UNL     1       1.299   8.647  20.346  0.00  0.00    +0.000 A 
ATOM     14  C   UNL     1       0.422   9.614  20.837  0.00  0.00    +0.000 A 
ATOM     15  C   UNL     1       0.050  10.691  20.036  0.00  0.00    +0.000 A 
ATOM     16  C   UNL     1       0.506  10.764  18.721  0.00  0.00    +0.000 A 
ATOM     17  C   UNL     1       1.347   9.758  18.214  0.00  0.00    +0.000 A 
BRANCH  15  18
ATOM     18  N   UNL     1      -0.779  11.657  20.634  0.00  0.00    +0.000 N 
ATOM     19  C   UNL     1      -0.316  12.699  21.409  0.00  0.00    +0.000 C 
ATOM     20  O   UNL     1       0.876  12.935  21.592  0.00  0.00    +0.000 OA
ATOM     21  N   UNL     1      -1.320  13.461  22.021  0.00  0.00    +0.000 N 
ATOM     22  C   UNL     1      -0.861  14.437  23.015  0.00  0.00    +0.000 C 
ATOM     23  C   UNL     1      -1.898  15.532  23.328  0.00  0.00    +0.000 C 
ATOM     24  N   UNL     1      -3.260  15.043  23.618  0.00  0.00    +0.000 NA
ATOM     25  C   UNL     1      -3.339  14.380  24.916  0.00  0.00    +0.000 C 
ATOM     26  C   UNL     1      -3.689  14.160  22.522  0.00  0.00    +0.000 C 
ATOM     27  C   UNL     1      -2.715  13.023  22.172  0.00  0.00    +0.000 C 
ATOM     28  H   UNL     1      -1.699  11.327  20.857  0.00  0.00    +0.000 HD
ENDBRANCH  15  18
ENDBRANCH   8  12
BRANCH   1  30
ATOM     29  C   UNL     1       4.922   1.617  20.686  0.00  0.00    +0.000 C 
ATOM     30  O   UNL     1       4.019   1.866  19.612  0.00  0.00    +0.000 OA
ENDBRANCH   1  30
BRANCH   3  31
ATOM     31  O   UNL     1       5.744   4.502  16.021  0.00  0.00    +0.000 OA
ATOM     32  H   UNL     1       5.765   3.656  15.547  0.00  0.00    +0.000 HD
ENDBRANCH   3  31
BRANCH  11  33
ATOM     33  O   UNL     1       2.719   4.248  20.668  0.00  0.00    +0.000 OA
BRANCH  33  34
ATOM     34  C   UNL     1       1.369   3.769  20.738  0.00  0.00    +0.000 C 
ATOM     35  C   UNL     1       0.881   3.279  19.371  0.00  0.00    +0.000 C 
ATOM     36  C   UNL     1       1.360   2.570  21.693  0.00  0.00    +0.000 C 
ENDBRANCH  33  34
ENDBRANCH  11  33
TORSDOF 6
ENDMDL
MODEL 2
REMARK VINA RESULT:      -8.3      0.612      1.028
REMARK  Name = 
REMARK  10 active torsions:
REMARK  status: ('A' for Active; 'I' for Inactive)
REMARK    1  A    between atoms: C_1  and  O_2
REMARK    2  A    between atoms: O_2  and  C_3
REMARK    3  A    between atoms: C_5  and  O_6
REMARK    4  A    between atoms: C_11  and  C_12
REMARK    5  A    between atoms: C_15  and  N_16
REMARK    6  A    between atoms: N_22  and  C_23
REMARK    7  A    between atoms: C_30  and  O_31
REMARK    8  A    between atoms: O_31  and  C_32
REMARK    9  A    between atoms: C_32  and  C_33
REMARK   10  A    between atoms: C_32  and  C_34
REMARK                            x       y       z     vdW  Elec       q    Type
REMARK                         _______ _______ _______ _____ _____    ______ ____
ROOT
ATOM      1  C   UNL     1       4.152   3.088  19.006  0.00  0.00    +0.000 A 
ATOM      2  C   UNL     1       4.918   3.237  17.843  0.00  0.00    +0.000 A 
ATOM      3  C   UNL     1       4.978   4.454  17.178  0.00  0.00    +0.000 A 
ATOM      4  C   UNL     1       4.243   5.543  17.641  0.00  0.00    +0.000 A 
ATOM      5  C   UNL     1       4.244   6.839  16.926  0.00  0.00    +0.000 A 
ATOM      6  O   UNL     1       4.883   7.071  15.911  0.00  0.00    +0.000 OA
ATOM      7  C   UNL     1       3.385   7.880  17.472  0.00  0.00    +0.000 A 
ATOM      8  C   UNL     1       2.655   7.648  18.569  0.00  0.00    +0.000 A 
ATOM      9  O   UNL     1       2.709   6.463  19.287  0.00  0.00    +0.000 OA
ATOM     10  C   UNL     1       3.470   5.414  18.805  0.00  0.00    +0.000 A 
ATOM     11  C   UNL     1       3.424   4.187  19.512  0.00  0.00    +0.000 A 
ENDROOT
BRANCH   8  12
ATOM     12  C   UNL     1       1.713   8.666  19.082  0.00  0.00    +0.000 A 
ATOM     13  C   UNL     1       1.236   9.687  18.243  0.00  0.00    +0.000 A 
ATOM     14  C   UNL     1       0.350  10.655  18.715  0.00  0.00    +0.000 A 
ATOM     15  C   UNL     1      -0.141  10.580  20.016  0.00  0.00    +0.000 A 
ATOM     16  C   UNL     1       0.306   9.569  20.865  0.00  0.00    +0.000 A 
ATOM     17  C   UNL     1       1.240   8.626  20.402  0.00  0.00    +0.000 A 
BRANCH  15  18
ATOM     18  N   UNL     1      -1.084  11.555  20.385  0.00  0.00    +0.000 N 
ATOM     19  C   UNL     1      -0.869  12.511  21.356  0.00  0.00    +0.000 C 
ATOM     20  O   UNL     1       0.200  12.657  21.943  0.00  0.00    +0.000 OA
ATOM     21  N   UNL     1      -1.990  13.293  21.662  0.00  0.00    +0.000 N 
ATOM     22  C   UNL     1      -1.854  14.168  22.831  0.00  0.00    +0.000 C 
ATOM     23  C   UNL     1      -2.894  15.304  22.875  0.00  0.00    +0.000 C 
ATOM     24  N   UNL     1      -4.292  14.886  22.653  0.00  0.00    +0.000 NA
ATOM     25  C   UNL     1      -4.827  14.143  23.791  0.00  0.00    +0.000 C 
ATOM     26  C   UNL     1      -4.362  14.109  21.406  0.00  0.00    +0.000 C 
ATOM     27  C   UNL     1      -3.370  12.937  21.304  0.00  0.00    +0.000 C 
ATOM     28  H   UNL     1      -2.038  11.271  20.261  0.00  0.00    +0.000 HD
ENDBRANCH  15  18
ENDBRANCH   8  12
BRANCH   1  30
ATOM     29  C   UNL     1       4.911   1.660  20.758  0.00  0.00    +0.000 C 
ATOM     30  O   UNL     1       4.064   1.873  19.632  0.00  0.00    +0.000 OA
ENDBRANCH   1  30
BRANCH   3  31
ATOM     31  O   UNL     1       5.759   4.556  16.063  0.00  0.00    +0.000 OA
ATOM     32  H   UNL     1       6.102   5.458  15.959  0.00  0.00    +0.000 HD
ENDBRANCH   3  31
BRANCH  11  33
ATOM     33  O   UNL     1       2.729   4.228  20.701  0.00  0.00    +0.000 OA
BRANCH  33  34
ATOM     34  C   UNL     1       1.380   3.743  20.762  0.00  0.00    +0.000 C 
ATOM     35  C   UNL     1       0.903   3.254  19.390  0.00  0.00    +0.000 C 
ATOM     36  C   UNL     1       1.370   2.542  21.713  0.00  0.00    +0.000 C 
ENDBRANCH  33  34
ENDBRANCH  11  33
TORSDOF 6
ENDMDL
MODEL 3
REMARK VINA RESULT:      -8.0      1.175      1.456
REMARK  Name = 
REMARK  10 active torsions:
REMARK  status: ('A' for Active; 'I' for Inactive)
REMARK    1  A    between atoms: C_1  and  O_2
REMARK    2  A    between atoms: O_2  and  C_3
REMARK    3  A    between atoms: C_5  and  O_6
REMARK    4  A    between atoms: C_11  and  C_12
REMARK    5  A    between atoms: C_15  and  N_16
REMARK    6  A    between atoms: N_22  and  C_23
REMARK    7  A    between atoms: C_30  and  O_31
REMARK    8  A    between atoms: O_31  and  C_32
REMARK    9  A    between atoms: C_32  and  C_33
REMARK   10  A    between atoms: C_32  and  C_34
REMARK                            x       y       z     vdW  Elec       q    Type
REMARK                         _______ _______ _______ _____ _____    ______ ____
ROOT
ATOM      1  C   UNL     1       4.004   3.428  18.938  0.00  0.00    +0.000 A 
ATOM      2  C   UNL     1       4.621   3.691  17.708  0.00  0.00    +0.000 A 
ATOM      3  C   UNL     1       4.551   4.951  17.128  0.00  0.00    +0.000 A 
ATOM      4  C   UNL     1       3.830   5.968  17.749  0.00  0.00    +0.000 A 
ATOM      5  C   UNL     1       3.692   7.307  17.132  0.00  0.00    +0.000 A 
ATOM      6  O   UNL     1       4.196   7.637  16.070  0.00  0.00    +0.000 OA
ATOM      7  C   UNL     1       2.861   8.266  17.846  0.00  0.00    +0.000 A 
ATOM      8  C   UNL     1       2.275   7.927  19.000  0.00  0.00    +0.000 A 
ATOM      9  O   UNL     1       2.464   6.702  19.622  0.00  0.00    +0.000 OA
ATOM     10  C   UNL     1       3.206   5.726  18.982  0.00  0.00    +0.000 A 
ATOM     11  C   UNL     1       3.296   4.454  19.601  0.00  0.00    +0.000 A 
ENDROOT
BRANCH   8  12
ATOM     12  C   UNL     1       1.359   8.860  19.689  0.00  0.00    +0.000 A 
ATOM     13  C   UNL     1       0.843   8.552  20.958  0.00  0.00    +0.000 A 
ATOM     14  C   UNL     1      -0.025   9.422  21.617  0.00  0.00    +0.000 A 
ATOM     15  C   UNL     1      -0.337  10.658  21.055  0.00  0.00    +0.000 A 
ATOM     16  C   UNL     1       0.172  10.994  19.802  0.00  0.00    +0.000 A 
ATOM     17  C   UNL     1       1.004  10.091  19.117  0.00  0.00    +0.000 A 
BRANCH  15  18
ATOM     18  N   UNL     1      -1.161  11.502  21.820  0.00  0.00    +0.000 N 
ATOM     19  C   UNL     1      -2.198  12.247  21.301  0.00  0.00    +0.000 C 
ATOM     20  O   UNL     1      -2.558  12.189  20.127  0.00  0.00    +0.000 OA
ATOM     21  N   UNL     1      -2.799  13.125  22.212  0.00  0.00    +0.000 N 
ATOM     22  C   UNL     1      -3.757  14.077  21.642  0.00  0.00    +0.000 C 
ATOM     23  C   UNL     1      -4.703  14.701  22.685  0.00  0.00    +0.000 C 
ATOM     24  N   UNL     1      -4.043  15.233  23.893  0.00  0.00    +0.000 NA
ATOM     25  C   UNL     1      -3.295  16.455  23.615  0.00  0.00    +0.000 C 
ATOM     26  C   UNL     1      -3.188  14.182  24.468  0.00  0.00    +0.000 C 
ATOM     27  C   UNL     1      -2.196  13.533  23.489  0.00  0.00    +0.000 C 
ATOM     28  H   UNL     1      -0.714  11.888  22.631  0.00  0.00    +0.000 HD
ENDBRANCH  15  18
ENDBRANCH   8  12
BRANCH   1  30
ATOM     29  C   UNL     1       3.704   1.083  18.627  0.00  0.00    +0.000 C 
ATOM     30  O   UNL     1       4.043   2.172  19.482  0.00  0.00    +0.000 OA
ENDBRANCH   1  30
BRANCH   3  31
ATOM     31  O   UNL     1       5.190   5.165  15.941  0.00  0.00    +0.000 OA
ATOM     32  H   UNL     1       5.316   6.113  15.779  0.00  0.00    +0.000 HD
ENDBRANCH   3  31
BRANCH  11  33
ATOM     33  O   UNL     1       2.745   4.382  20.862  0.00  0.00    +0.000 OA
BRANCH  33  34
ATOM     34  C   UNL     1       1.435   3.827  21.043  0.00  0.00    +0.000 C 
ATOM     35  C   UNL     1       0.792   3.469  19.699  0.00  0.00    +0.000 C 
ATOM     36  C   UNL     1       1.597   2.529  21.842  0.00  0.00    +0.000 C 
ENDBRANCH  33  34
ENDBRANCH  11  33
TORSDOF 6
ENDMDL
MODEL 4
REMARK VINA RESULT:      -7.9      1.175      1.531
REMARK  Name = 
REMARK  10 active torsions:
REMARK  status: ('A' for Active; 'I' for Inactive)
REMARK    1  A    between atoms: C_1  and  O_2
REMARK    2  A    between atoms: O_2  and  C_3
REMARK    3  A    between atoms: C_5  and  O_6
REMARK    4  A    between atoms: C_11  and  C_12
REMARK    5  A    between atoms: C_15  and  N_16
REMARK    6  A    between atoms: N_22  and  C_23
REMARK    7  A    between atoms: C_30  and  O_31
REMARK    8  A    between atoms: O_31  and  C_32
REMARK    9  A    between atoms: C_32  and  C_33
REMARK   10  A    between atoms: C_32  and  C_34
REMARK                            x       y       z     vdW  Elec       q    Type
REMARK                         _______ _______ _______ _____ _____    ______ ____
ROOT
ATOM      1  C   UNL     1       4.080   3.099  18.842  0.00  0.00    +0.000 A 
ATOM      2  C   UNL     1       4.824   3.222  17.662  0.00  0.00    +0.000 A 
ATOM      3  C   UNL     1       4.913   4.438  16.997  0.00  0.00    +0.000 A 
ATOM      4  C   UNL     1       4.229   5.552  17.479  0.00  0.00    +0.000 A 
ATOM      5  C   UNL     1       4.261   6.849  16.767  0.00  0.00    +0.000 A 
ATOM      6  O   UNL     1       4.884   7.060  15.738  0.00  0.00    +0.000 OA
ATOM      7  C   UNL     1       3.454   7.919  17.334  0.00  0.00    +0.000 A 
ATOM      8  C   UNL     1       2.741   7.712  18.448  0.00  0.00    +0.000 A 
ATOM      9  O   UNL     1       2.768   6.524  19.163  0.00  0.00    +0.000 OA
ATOM     10  C   UNL     1       3.479   5.449  18.661  0.00  0.00    +0.000 A 
ATOM     11  C   UNL     1       3.406   4.223  19.367  0.00  0.00    +0.000 A 
ENDROOT
BRANCH   8  12
ATOM     12  C   UNL     1       1.849   8.762  18.984  0.00  0.00    +0.000 A 
ATOM     13  C   UNL     1       1.254   8.619  20.247  0.00  0.00    +0.000 A 
ATOM     14  C   UNL     1       0.408   9.601  20.764  0.00  0.00    +0.000 A 
ATOM     15  C   UNL     1       0.200  10.785  20.061  0.00  0.00    +0.000 A 
ATOM     16  C   UNL     1       0.790  10.958  18.810  0.00  0.00    +0.000 A 
ATOM     17  C   UNL     1       1.599   9.943  18.269  0.00  0.00    +0.000 A 
BRANCH  15  18
ATOM     18  N   UNL     1      -0.609  11.749  20.687  0.00  0.00    +0.000 N 
ATOM     19  C   UNL     1      -1.891  12.062  20.286  0.00  0.00    +0.000 C 
ATOM     20  O   UNL     1      -2.486  11.473  19.387  0.00  0.00    +0.000 OA
ATOM     21  N   UNL     1      -2.464  13.148  20.960  0.00  0.00    +0.000 N 
ATOM     22  C   UNL     1      -3.735  13.636  20.414  0.00  0.00    +0.000 C 
ATOM     23  C   UNL     1      -4.539  14.502  21.403  0.00  0.00    +0.000 C 
ATOM     24  N   UNL     1      -3.771  15.573  22.069  0.00  0.00    +0.000 NA
ATOM     25  C   UNL     1      -3.437  16.658  21.151  0.00  0.00    +0.000 C 
ATOM     26  C   UNL     1      -2.572  14.983  22.685  0.00  0.00    +0.000 C 
ATOM     27  C   UNL     1      -1.703  14.128  21.747  0.00  0.00    +0.000 C 
ATOM     28  H   UNL     1      -0.098  12.494  21.122  0.00  0.00    +0.000 HD
ENDBRANCH  15  18
ENDBRANCH   8  12
BRANCH   1  30
ATOM     29  C   UNL     1       4.824   1.641  20.576  0.00  0.00    +0.000 C 
ATOM     30  O   UNL     1       3.963   1.886  19.468  0.00  0.00    +0.000 OA
ENDBRANCH   1  30
BRANCH   3  31
ATOM     31  O   UNL     1       5.671   4.515  15.864  0.00  0.00    +0.000 OA
ATOM     32  H   UNL     1       6.154   5.355  15.824  0.00  0.00    +0.000 HD
ENDBRANCH   3  31
BRANCH  11  33
ATOM     33  O   UNL     1       2.740   4.286  20.572  0.00  0.00    +0.000 OA
BRANCH  33  34
ATOM     34  C   UNL     1       1.382   3.835  20.667  0.00  0.00    +0.000 C 
ATOM     35  C   UNL     1       0.883   3.286  19.326  0.00  0.00    +0.000 C 
ATOM     36  C   UNL     1       1.353   2.686  21.680  0.00  0.00    +0.000 C 
ENDBRANCH  33  34
ENDBRANCH  11  33
TORSDOF 6
ENDMDL
MODEL 5
REMARK VINA RESULT:      -7.8      3.767     11.009
REMARK  Name = 
REMARK  10 active torsions:
REMARK  status: ('A' for Active; 'I' for Inactive)
REMARK    1  A    between atoms: C_1  and  O_2
REMARK    2  A    between atoms: O_2  and  C_3
REMARK    3  A    between atoms: C_5  and  O_6
REMARK    4  A    between atoms: C_11  and  C_12
REMARK    5  A    between atoms: C_15  and  N_16
REMARK    6  A    between atoms: N_22  and  C_23
REMARK    7  A    between atoms: C_30  and  O_31
REMARK    8  A    between atoms: O_31  and  C_32
REMARK    9  A    between atoms: C_32  and  C_33
REMARK   10  A    between atoms: C_32  and  C_34
REMARK                            x       y       z     vdW  Elec       q    Type
REMARK                         _______ _______ _______ _____ _____    ______ ____
ROOT
ATOM      1  C   UNL     1      -5.080  13.565  20.645  0.00  0.00    +0.000 A 
ATOM      2  C   UNL     1      -4.803  14.127  21.897  0.00  0.00    +0.000 A 
ATOM      3  C   UNL     1      -3.576  13.926  22.516  0.00  0.00    +0.000 A 
ATOM      4  C   UNL     1      -2.609  13.127  21.909  0.00  0.00    +0.000 A 
ATOM      5  C   UNL     1      -1.311  12.851  22.565  0.00  0.00    +0.000 A 
ATOM      6  O   UNL     1      -0.972  13.299  23.650  0.00  0.00    +0.000 OA
ATOM      7  C   UNL     1      -0.409  11.950  21.861  0.00  0.00    +0.000 A 
ATOM      8  C   UNL     1      -0.762  11.424  20.682  0.00  0.00    +0.000 A 
ATOM      9  O   UNL     1      -1.942  11.740  20.027  0.00  0.00    +0.000 OA
ATOM     10  C   UNL     1      -2.866  12.556  20.654  0.00  0.00    +0.000 A 
ATOM     11  C   UNL     1      -4.102  12.779  19.997  0.00  0.00    +0.000 A 
ENDROOT
BRANCH   8  12
ATOM     12  C   UNL     1       0.106  10.440  20.001  0.00  0.00    +0.000 A 
ATOM     13  C   UNL     1       0.272  10.476  18.607  0.00  0.00    +0.000 A 
ATOM     14  C   UNL     1       1.085   9.551  17.951  0.00  0.00    +0.000 A 
ATOM     15  C   UNL     1       1.812   8.617  18.684  0.00  0.00    +0.000 A 
ATOM     16  C   UNL     1       1.676   8.568  20.070  0.00  0.00    +0.000 A 
ATOM     17  C   UNL     1       0.814   9.468  20.722  0.00  0.00    +0.000 A 
BRANCH  15  18
ATOM     18  N   UNL     1       2.661   7.771  17.949  0.00  0.00    +0.000 N 
ATOM     19  C   UNL     1       2.857   6.436  18.233  0.00  0.00    +0.000 C 
ATOM     20  O   UNL     1       2.248   5.830  19.111  0.00  0.00    +0.000 OA
ATOM     21  N   UNL     1       3.849   5.815  17.462  0.00  0.00    +0.000 N 
ATOM     22  C   UNL     1       4.227   4.462  17.882  0.00  0.00    +0.000 C 
ATOM     23  C   UNL     1       4.963   3.660  16.792  0.00  0.00    +0.000 C 
ATOM     24  N   UNL     1       6.078   4.370  16.135  0.00  0.00    +0.000 NA
ATOM     25  C   UNL     1       7.229   4.518  17.020  0.00  0.00    +0.000 C 
ATOM     26  C   UNL     1       5.589   5.669  15.644  0.00  0.00    +0.000 C 
ATOM     27  C   UNL     1       4.868   6.538  16.688  0.00  0.00    +0.000 C 
ATOM     28  H   UNL     1       3.436   8.240  17.518  0.00  0.00    +0.000 HD
ENDBRANCH  15  18
ENDBRANCH   8  12
BRANCH   1  30
ATOM     29  C   UNL     1      -7.184  14.687  20.656  0.00  0.00    +0.000 C 
ATOM     30  O   UNL     1      -6.308  13.732  20.062  0.00  0.00    +0.000 OA
ENDBRANCH   1  30
BRANCH   3  31
ATOM     31  O   UNL     1      -3.345  14.515  23.725  0.00  0.00    +0.000 OA
ATOM     32  H   UNL     1      -3.370  13.862  24.442  0.00  0.00    +0.000 HD
ENDBRANCH   3  31
BRANCH  11  33
ATOM     33  O   UNL     1      -4.182  12.265  18.721  0.00  0.00    +0.000 OA
BRANCH  33  34
ATOM     34  C   UNL     1      -4.768  10.974  18.501  0.00  0.00    +0.000 C 
ATOM     35  C   UNL     1      -6.182  11.097  17.925  0.00  0.00    +0.000 C 
ATOM     36  C   UNL     1      -3.903  10.252  17.463  0.00  0.00    +0.000 C 
ENDBRANCH  33  34
ENDBRANCH  11  33
TORSDOF 6
ENDMDL
MODEL 6
REMARK VINA RESULT:      -7.8      1.344      1.722
REMARK  Name = 
REMARK  10 active torsions:
REMARK  status: ('A' for Active; 'I' for Inactive)
REMARK    1  A    between atoms: C_1  and  O_2
REMARK    2  A    between atoms: O_2  and  C_3
REMARK    3  A    between atoms: C_5  and  O_6
REMARK    4  A    between atoms: C_11  and  C_12
REMARK    5  A    between atoms: C_15  and  N_16
REMARK    6  A    between atoms: N_22  and  C_23
REMARK    7  A    between atoms: C_30  and  O_31
REMARK    8  A    between atoms: O_31  and  C_32
REMARK    9  A    between atoms: C_32  and  C_33
REMARK   10  A    between atoms: C_32  and  C_34
REMARK                            x       y       z     vdW  Elec       q    Type
REMARK                         _______ _______ _______ _____ _____    ______ ____
ROOT
ATOM      1  C   UNL     1       3.576   2.860  17.646  0.00  0.00    +0.000 A 
ATOM      2  C   UNL     1       4.602   3.181  16.748  0.00  0.00    +0.000 A 
ATOM      3  C   UNL     1       4.934   4.504  16.487  0.00  0.00    +0.000 A 
ATOM      4  C   UNL     1       4.223   5.537  17.092  0.00  0.00    +0.000 A 
ATOM      5  C   UNL     1       4.518   6.957  16.795  0.00  0.00    +0.000 A 
ATOM      6  O   UNL     1       5.395   7.340  16.035  0.00  0.00    +0.000 OA
ATOM      7  C   UNL     1       3.664   7.944  17.440  0.00  0.00    +0.000 A 
ATOM      8  C   UNL     1       2.680   7.556  18.259  0.00  0.00    +0.000 A 
ATOM      9  O   UNL     1       2.448   6.232  18.602  0.00  0.00    +0.000 OA
ATOM     10  C   UNL     1       3.193   5.236  17.996  0.00  0.00    +0.000 A 
ATOM     11  C   UNL     1       2.864   3.891  18.296  0.00  0.00    +0.000 A 
ENDROOT
BRANCH   8  12
ATOM     12  C   UNL     1       1.750   8.542  18.850  0.00  0.00    +0.000 A 
ATOM     13  C   UNL     1       1.129   9.510  18.045  0.00  0.00    +0.000 A 
ATOM     14  C   UNL     1       0.252  10.449  18.590  0.00  0.00    +0.000 A 
ATOM     15  C   UNL     1      -0.082  10.392  19.940  0.00  0.00    +0.000 A 
ATOM     16  C   UNL     1       0.511   9.432  20.759  0.00  0.00    +0.000 A 
ATOM     17  C   UNL     1       1.434   8.522  20.216  0.00  0.00    +0.000 A 
BRANCH  15  18
ATOM     18  N   UNL     1      -1.027  11.331  20.390  0.00  0.00    +0.000 N 
ATOM     19  C   UNL     1      -1.334  11.545  21.717  0.00  0.00    +0.000 C 
ATOM     20  O   UNL     1      -0.754  10.991  22.648  0.00  0.00    +0.000 OA
ATOM     21  N   UNL     1      -2.402  12.425  21.935  0.00  0.00    +0.000 N 
ATOM     22  C   UNL     1      -2.887  12.508  23.316  0.00  0.00    +0.000 C 
ATOM     23  C   UNL     1      -3.726  13.768  23.601  0.00  0.00    +0.000 C 
ATOM     24  N   UNL     1      -4.794  14.046  22.620  0.00  0.00    +0.000 NA
ATOM     25  C   UNL     1      -5.898  13.098  22.728  0.00  0.00    +0.000 C 
ATOM     26  C   UNL     1      -4.206  14.056  21.271  0.00  0.00    +0.000 C 
ATOM     27  C   UNL     1      -3.376  12.814  20.905  0.00  0.00    +0.000 C 
ATOM     28  H   UNL     1      -1.770  11.510  19.740  0.00  0.00    +0.000 HD
ENDBRANCH  15  18
ENDBRANCH   8  12
BRANCH   1  30
ATOM     29  C   UNL     1       3.970   0.838  18.848  0.00  0.00    +0.000 C 
ATOM     30  O   UNL     1       3.226   1.554  17.865  0.00  0.00    +0.000 OA
ENDBRANCH   1  30
BRANCH   3  31
ATOM     31  O   UNL     1       5.959   4.766  15.623  0.00  0.00    +0.000 OA
ATOM     32  H   UNL     1       6.817   4.695  16.069  0.00  0.00    +0.000 HD
ENDBRANCH   3  31
BRANCH  11  33
ATOM     33  O   UNL     1       1.919   3.733  19.287  0.00  0.00    +0.000 OA
BRANCH  33  34
ATOM     34  C   UNL     1       2.330   3.565  20.651  0.00  0.00    +0.000 C 
ATOM     35  C   UNL     1       2.200   4.875  21.435  0.00  0.00    +0.000 C 
ATOM     36  C   UNL     1       1.383   2.544  21.290  0.00  0.00    +0.000 C 
ENDBRANCH  33  34
ENDBRANCH  11  33
TORSDOF 6
ENDMDL
MODEL 7
REMARK VINA RESULT:      -7.8      1.169      1.490
REMARK  Name = 
REMARK  10 active torsions:
REMARK  status: ('A' for Active; 'I' for Inactive)
REMARK    1  A    between atoms: C_1  and  O_2
REMARK    2  A    between atoms: O_2  and  C_3
REMARK    3  A    between atoms: C_5  and  O_6
REMARK    4  A    between atoms: C_11  and  C_12
REMARK    5  A    between atoms: C_15  and  N_16
REMARK    6  A    between atoms: N_22  and  C_23
REMARK    7  A    between atoms: C_30  and  O_31
REMARK    8  A    between atoms: O_31  and  C_32
REMARK    9  A    between atoms: C_32  and  C_33
REMARK   10  A    between atoms: C_32  and  C_34
REMARK                            x       y       z     vdW  Elec       q    Type
REMARK                         _______ _______ _______ _____ _____    ______ ____
ROOT
ATOM      1  C   UNL     1       3.663   2.835  17.637  0.00  0.00    +0.000 A 
ATOM      2  C   UNL     1       4.716   3.159  16.773  0.00  0.00    +0.000 A 
ATOM      3  C   UNL     1       5.045   4.483  16.512  0.00  0.00    +0.000 A 
ATOM      4  C   UNL     1       4.305   5.514  17.084  0.00  0.00    +0.000 A 
ATOM      5  C   UNL     1       4.597   6.935  16.786  0.00  0.00    +0.000 A 
ATOM      6  O   UNL     1       5.496   7.319  16.053  0.00  0.00    +0.000 OA
ATOM      7  C   UNL     1       3.712   7.919  17.393  0.00  0.00    +0.000 A 
ATOM      8  C   UNL     1       2.704   7.527  18.181  0.00  0.00    +0.000 A 
ATOM      9  O   UNL     1       2.473   6.204  18.526  0.00  0.00    +0.000 OA
ATOM     10  C   UNL     1       3.247   5.211  17.954  0.00  0.00    +0.000 A 
ATOM     11  C   UNL     1       2.920   3.865  18.253  0.00  0.00    +0.000 A 
ENDROOT
BRANCH   8  12
ATOM     12  C   UNL     1       1.746   8.510  18.731  0.00  0.00    +0.000 A 
ATOM     13  C   UNL     1       1.061   9.394  17.882  0.00  0.00    +0.000 A 
ATOM     14  C   UNL     1       0.157  10.328  18.388  0.00  0.00    +0.000 A 
ATOM     15  C   UNL     1      -0.141  10.347  19.749  0.00  0.00    +0.000 A 
ATOM     16  C   UNL     1       0.516   9.471  20.611  0.00  0.00    +0.000 A 
ATOM     17  C   UNL     1       1.466   8.568  20.104  0.00  0.00    +0.000 A 
BRANCH  15  18
ATOM     18  N   UNL     1      -1.116  11.272  20.162  0.00  0.00    +0.000 N 
ATOM     19  C   UNL     1      -0.897  12.630  20.269  0.00  0.00    +0.000 C 
ATOM     20  O   UNL     1       0.151  13.180  19.938  0.00  0.00    +0.000 OA
ATOM     21  N   UNL     1      -1.960  13.349  20.832  0.00  0.00    +0.000 N 
ATOM     22  C   UNL     1      -1.679  14.752  21.153  0.00  0.00    +0.000 C 
ATOM     23  C   UNL     1      -2.946  15.607  21.341  0.00  0.00    +0.000 C 
ATOM     24  N   UNL     1      -3.970  15.027  22.233  0.00  0.00    +0.000 NA
ATOM     25  C   UNL     1      -3.556  15.056  23.632  0.00  0.00    +0.000 C 
ATOM     26  C   UNL     1      -4.276  13.662  21.776  0.00  0.00    +0.000 C 
ATOM     27  C   UNL     1      -3.059  12.740  21.594  0.00  0.00    +0.000 C 
ATOM     28  H   UNL     1      -1.802  10.894  20.787  0.00  0.00    +0.000 HD
ENDBRANCH  15  18
ENDBRANCH   8  12
BRANCH   1  30
ATOM     29  C   UNL     1       4.002   0.840  18.898  0.00  0.00    +0.000 C 
ATOM     30  O   UNL     1       3.317   1.528  17.855  0.00  0.00    +0.000 OA
ENDBRANCH   1  30
BRANCH   3  31
ATOM     31  O   UNL     1       6.096   4.747  15.682  0.00  0.00    +0.000 OA
ATOM     32  H   UNL     1       6.603   3.942  15.493  0.00  0.00    +0.000 HD
ENDBRANCH   3  31
BRANCH  11  33
ATOM     33  O   UNL     1       1.943   3.706  19.213  0.00  0.00    +0.000 OA
BRANCH  33  34
ATOM     34  C   UNL     1       2.306   3.594  20.596  0.00  0.00    +0.000 C 
ATOM     35  C   UNL     1       2.102   4.922  21.333  0.00  0.00    +0.000 C 
ATOM     36  C   UNL     1       1.369   2.561  21.231  0.00  0.00    +0.000 C 
ENDBRANCH  33  34
ENDBRANCH  11  33
TORSDOF 6
ENDMDL
MODEL 8
REMARK VINA RESULT:      -7.8      0.938      1.294
REMARK  Name = 
REMARK  10 active torsions:
REMARK  status: ('A' for Active; 'I' for Inactive)
REMARK    1  A    between atoms: C_1  and  O_2
REMARK    2  A    between atoms: O_2  and  C_3
REMARK    3  A    between atoms: C_5  and  O_6
REMARK    4  A    between atoms: C_11  and  C_12
REMARK    5  A    between atoms: C_15  and  N_16
REMARK    6  A    between atoms: N_22  and  C_23
REMARK    7  A    between atoms: C_30  and  O_31
REMARK    8  A    between atoms: O_31  and  C_32
REMARK    9  A    between atoms: C_32  and  C_33
REMARK   10  A    between atoms: C_32  and  C_34
REMARK                            x       y       z     vdW  Elec       q    Type
REMARK                         _______ _______ _______ _____ _____    ______ ____
ROOT
ATOM      1  C   UNL     1       4.095   2.700  17.576  0.00  0.00    +0.000 A 
ATOM      2  C   UNL     1       4.973   3.017  16.532  0.00  0.00    +0.000 A 
ATOM      3  C   UNL     1       5.195   4.337  16.161  0.00  0.00    +0.000 A 
ATOM      4  C   UNL     1       4.517   5.369  16.805  0.00  0.00    +0.000 A 
ATOM      5  C   UNL     1       4.692   6.782  16.400  0.00  0.00    +0.000 A 
ATOM      6  O   UNL     1       5.437   7.161  15.509  0.00  0.00    +0.000 OA
ATOM      7  C   UNL     1       3.879   7.763  17.105  0.00  0.00    +0.000 A 
ATOM      8  C   UNL     1       3.036   7.375  18.069  0.00  0.00    +0.000 A 
ATOM      9  O   UNL     1       2.925   6.064  18.506  0.00  0.00    +0.000 OA
ATOM     10  C   UNL     1       3.634   5.072  17.855  0.00  0.00    +0.000 A 
ATOM     11  C   UNL     1       3.422   3.732  18.264  0.00  0.00    +0.000 A 
ENDROOT
BRANCH   8  12
ATOM     12  C   UNL     1       2.142   8.350  18.731  0.00  0.00    +0.000 A 
ATOM     13  C   UNL     1       1.675   9.478  18.038  0.00  0.00    +0.000 A 
ATOM     14  C   UNL     1       0.834  10.407  18.651  0.00  0.00    +0.000 A 
ATOM     15  C   UNL     1       0.377  10.187  19.948  0.00  0.00    +0.000 A 
ATOM     16  C   UNL     1       0.815   9.068  20.653  0.00  0.00    +0.000 A 
ATOM     17  C   UNL     1       1.705   8.162  20.051  0.00  0.00    +0.000 A 
BRANCH  15  18
ATOM     18  N   UNL     1      -0.524  11.136  20.462  0.00  0.00    +0.000 N 
ATOM     19  C   UNL     1      -0.158  12.189  21.274  0.00  0.00    +0.000 C 
ATOM     20  O   UNL     1       1.006  12.450  21.567  0.00  0.00    +0.000 OA
ATOM     21  N   UNL     1      -1.231  12.930  21.786  0.00  0.00    +0.000 N 
ATOM     22  C   UNL     1      -0.888  13.917  22.815  0.00  0.00    +0.000 C 
ATOM     23  C   UNL     1      -1.973  14.991  23.026  0.00  0.00    +0.000 C 
ATOM     24  N   UNL     1      -3.346  14.473  23.188  0.00  0.00    +0.000 NA
ATOM     25  C   UNL     1      -3.533  13.810  24.475  0.00  0.00    +0.000 C 
ATOM     26  C   UNL     1      -3.651  13.580  22.058  0.00  0.00    +0.000 C 
ATOM     27  C   UNL     1      -2.624  12.464  21.806  0.00  0.00    +0.000 C 
ATOM     28  H   UNL     1      -1.454  10.787  20.598  0.00  0.00    +0.000 HD
ENDBRANCH  15  18
ENDBRANCH   8  12
BRANCH   1  30
ATOM     29  C   UNL     1       4.395   0.920  19.135  0.00  0.00    +0.000 C 
ATOM     30  O   UNL     1       3.849   1.393  17.907  0.00  0.00    +0.000 OA
ENDBRANCH   1  30
BRANCH   3  31
ATOM     31  O   UNL     1       6.079   4.597  15.154  0.00  0.00    +0.000 OA
ATOM     32  H   UNL     1       5.865   4.082  14.360  0.00  0.00    +0.000 HD
ENDBRANCH   3  31
BRANCH  11  33
ATOM     33  O   UNL     1       2.628   3.586  19.381  0.00  0.00    +0.000 OA
BRANCH  33  34
ATOM     34  C   UNL     1       1.200   3.646  19.262  0.00  0.00    +0.000 C 
ATOM     35  C   UNL     1       0.599   2.249  19.078  0.00  0.00    +0.000 C 
ATOM     36  C   UNL     1       0.656   4.218  20.575  0.00  0.00    +0.000 C 
ENDBRANCH  33  34
ENDBRANCH  11  33
TORSDOF 6
ENDMDL
MODEL 9
REMARK VINA RESULT:      -7.5      1.042      1.578
REMARK  Name = 
REMARK  10 active torsions:
REMARK  status: ('A' for Active; 'I' for Inactive)
REMARK    1  A    between atoms: C_1  and  O_2
REMARK    2  A    between atoms: O_2  and  C_3
REMARK    3  A    between atoms: C_5  and  O_6
REMARK    4  A    between atoms: C_11  and  C_12
REMARK    5  A    between atoms: C_15  and  N_16
REMARK    6  A    between atoms: N_22  and  C_23
REMARK    7  A    between atoms: C_30  and  O_31
REMARK    8  A    between atoms: O_31  and  C_32
REMARK    9  A    between atoms: C_32  and  C_33
REMARK   10  A    between atoms: C_32  and  C_34
REMARK                            x       y       z     vdW  Elec       q    Type
REMARK                         _______ _______ _______ _____ _____    ______ ____
ROOT
ATOM      1  C   UNL     1       3.997   3.028  18.696  0.00  0.00    +0.000 A 
ATOM      2  C   UNL     1       4.623   3.304  17.474  0.00  0.00    +0.000 A 
ATOM      3  C   UNL     1       4.616   4.587  16.941  0.00  0.00    +0.000 A 
ATOM      4  C   UNL     1       3.952   5.616  17.604  0.00  0.00    +0.000 A 
ATOM      5  C   UNL     1       3.882   6.982  17.038  0.00  0.00    +0.000 A 
ATOM      6  O   UNL     1       4.400   7.325  15.986  0.00  0.00    +0.000 OA
ATOM      7  C   UNL     1       3.104   7.956  17.791  0.00  0.00    +0.000 A 
ATOM      8  C   UNL     1       2.505   7.605  18.935  0.00  0.00    +0.000 A 
ATOM      9  O   UNL     1       2.631   6.349  19.509  0.00  0.00    +0.000 OA
ATOM     10  C   UNL     1       3.320   5.360  18.830  0.00  0.00    +0.000 A 
ATOM     11  C   UNL     1       3.345   4.064  19.400  0.00  0.00    +0.000 A 
ENDROOT
BRANCH   8  12
ATOM     12  C   UNL     1       1.641   8.559  19.662  0.00  0.00    +0.000 A 
ATOM     13  C   UNL     1       1.235   9.759  19.058  0.00  0.00    +0.000 A 
ATOM     14  C   UNL     1       0.422  10.670  19.735  0.00  0.00    +0.000 A 
ATOM     15  C   UNL     1      -0.068  10.363  21.002  0.00  0.00    +0.000 A 
ATOM     16  C   UNL     1       0.310   9.171  21.618  0.00  0.00    +0.000 A 
ATOM     17  C   UNL     1       1.172   8.281  20.955  0.00  0.00    +0.000 A 
BRANCH  15  18
ATOM     18  N   UNL     1      -0.937  11.305  21.580  0.00  0.00    +0.000 N 
ATOM     19  C   UNL     1      -1.880  12.022  20.874  0.00  0.00    +0.000 C 
ATOM     20  O   UNL     1      -2.109  11.854  19.678  0.00  0.00    +0.000 OA
ATOM     21  N   UNL     1      -2.543  13.005  21.619  0.00  0.00    +0.000 N 
ATOM     22  C   UNL     1      -3.392  13.921  20.851  0.00  0.00    +0.000 C 
ATOM     23  C   UNL     1      -4.423  14.676  21.712  0.00  0.00    +0.000 C 
ATOM     24  N   UNL     1      -3.880  15.310  22.930  0.00  0.00    +0.000 NA
ATOM     25  C   UNL     1      -3.057  16.475  22.620  0.00  0.00    +0.000 C 
ATOM     26  C   UNL     1      -3.137  14.300  23.699  0.00  0.00    +0.000 C 
ATOM     27  C   UNL     1      -2.069  13.525  22.910  0.00  0.00    +0.000 C 
ATOM     28  H   UNL     1      -0.568  11.759  22.394  0.00  0.00    +0.000 HD
ENDBRANCH  15  18
ENDBRANCH   8  12
BRANCH   1  30
ATOM     29  C   UNL     1       4.772   1.485  20.341  0.00  0.00    +0.000 C 
ATOM     30  O   UNL     1       3.971   1.751  19.193  0.00  0.00    +0.000 OA
ENDBRANCH   1  30
BRANCH   3  31
ATOM     31  O   UNL     1       5.262   4.811  15.760  0.00  0.00    +0.000 OA
ATOM     32  H   UNL     1       5.718   5.667  15.769  0.00  0.00    +0.000 HD
ENDBRANCH   3  31
BRANCH  11  33
ATOM     33  O   UNL     1       2.795   3.973  20.660  0.00  0.00    +0.000 OA
BRANCH  33  34
ATOM     34  C   UNL     1       1.412   3.626  20.817  0.00  0.00    +0.000 C 
ATOM     35  C   UNL     1       0.826   3.074  19.513  0.00  0.00    +0.000 C 
ATOM     36  C   UNL     1       1.338   2.514  21.869  0.00  0.00    +0.000 C 
ENDBRANCH  33  34
ENDBRANCH  11  33
TORSDOF 6
ENDMDL
