MODEL 1
REMARK VINA RESULT:      -8.8      0.000      0.000
REMARK  Name = 
REMARK  11 active torsions:
REMARK  status: ('A' for Active; 'I' for Inactive)
REMARK    1  A    between atoms: C_1  and  C_2
REMARK    2  A    between atoms: C_2  and  C_3
REMARK    3  A    between atoms: C_2  and  C_4
REMARK    4  A    between atoms: C_2  and  O_5
REMARK    5  A    between atoms: O_5  and  C_6
REMARK    6  A    between atoms: N_8  and  C_9
REMARK    7  A    between atoms: C_9  and  C_10
REMARK    8  A    between atoms: C_10  and  N_11
REMARK    9  A    between atoms: C_19  and  N_20
REMARK   10  A    between atoms: C_21  and  C_23
REMARK   11  A    between atoms: C_26  and  C_27
REMARK                            x       y       z     vdW  Elec       q    Type
REMARK                         _______ _______ _______ _____ _____    ______ ____
ROOT
ATOM      1  N   UNL     1       5.483   4.819  18.781  0.00  0.00    +0.000 NA
ATOM      2  C   UNL     1       4.938   3.653  19.514  0.00  0.00    +0.000 C 
ATOM      3  C   UNL     1       3.449   3.431  19.357  0.00  0.00    +0.000 A 
ATOM      4  C   UNL     1       2.914   2.141  19.252  0.00  0.00    +0.000 A 
ATOM      5  C   UNL     1       1.532   1.958  19.212  0.00  0.00    +0.000 A 
ATOM      6  C   UNL     1       0.679   3.056  19.313  0.00  0.00    +0.000 A 
ATOM      7  C   UNL     1       1.202   4.344  19.438  0.00  0.00    +0.000 A 
ATOM      8  C   UNL     1       2.588   4.545  19.435  0.00  0.00    +0.000 A 
ATOM      9  C   UNL     1       3.256   5.905  19.515  0.00  0.00    +0.000 C 
ATOM     10  C   UNL     1       4.470   5.875  18.543  0.00  0.00    +0.000 C 
ENDROOT
BRANCH   9  11
ATOM     11  N   UNL     1       2.359   6.995  19.175  0.00  0.00    +0.000 N 
ATOM     12  C   UNL     1       1.862   7.859  20.113  0.00  0.00    +0.000 C 
ATOM     13  O   UNL     1       2.090   7.744  21.314  0.00  0.00    +0.000 OA
ATOM     14  H   UNL     1       2.216   7.206  18.188  0.00  0.00    +0.000 HD
BRANCH  12  15
ATOM     15  C   UNL     1       1.017   8.968  19.577  0.00  0.00    +0.000 A 
ATOM     16  C   UNL     1       0.040   9.468  20.357  0.00  0.00    +0.000 A 
ATOM     17  C   UNL     1      -0.832  10.529  19.899  0.00  0.00    +0.000 A 
ATOM     18  C   UNL     1      -0.691  11.045  18.666  0.00  0.00    +0.000 A 
ATOM     19  N   UNL     1       0.315  10.545  17.854  0.00  0.00    +0.000 N 
ATOM     20  C   UNL     1       1.190   9.553  18.214  0.00  0.00    +0.000 A 
ATOM     21  O   UNL     1       2.065   9.175  17.441  0.00  0.00    +0.000 OA
ATOM     22  H   UNL     1       0.436  10.928  16.919  0.00  0.00    +0.000 HD
BRANCH  18  23
ATOM     23  C   UNL     1      -1.581  12.137  18.119  0.00  0.00    +0.000 C 
ATOM     24  F   UNL     1      -2.016  11.839  16.865  0.00  0.00    +0.000 F 
ATOM     25  F   UNL     1      -2.683  12.325  18.886  0.00  0.00    +0.000 F 
ATOM     26  F   UNL     1      -0.935  13.326  18.042  0.00  0.00    +0.000 F 
ENDBRANCH  18  23
ENDBRANCH  12  15
ENDBRANCH   9  11
BRANCH   1  27
ATOM     27  C   UNL     1       6.655   5.379  19.486  0.00  0.00    +0.000 C 
BRANCH  27  28
ATOM     28  C   UNL     1       7.985   5.194  18.727  0.00  0.00    +0.000 C 
BRANCH  28  31
ATOM     29  C   UNL     1       7.612   5.483  16.339  0.00  0.00    +0.000 C 
ATOM     30  O   UNL     1       7.577   6.693  16.462  0.00  0.00    +0.000 OA
ATOM     31  N   UNL     1       7.792   4.638  17.400  0.00  0.00    +0.000 N 
ATOM     32  H   UNL     1       7.747   3.643  17.240  0.00  0.00    +0.000 HD
BRANCH  29  33
ATOM     33  O   UNL     1       7.496   4.795  15.169  0.00  0.00    +0.000 OA
BRANCH  33  35
ATOM     34  C   UNL     1       5.218   5.627  14.711  0.00  0.00    +0.000 C 
ATOM     35  C   UNL     1       6.156   4.411  14.744  0.00  0.00    +0.000 C 
ATOM     36  C   UNL     1       5.600   3.284  15.628  0.00  0.00    +0.000 C 
ATOM     37  C   UNL     1       6.268   3.875  13.305  0.00  0.00    +0.000 C 
ENDBRANCH  33  35
ENDBRANCH  29  33
ENDBRANCH  28  31
ENDBRANCH  27  28
ENDBRANCH   1  27
TORSDOF 8
ENDMDL
MODEL 2
REMARK VINA RESULT:      -8.6      0.300      1.047
REMARK  Name = 
REMARK  11 active torsions:
REMARK  status: ('A' for Active; 'I' for Inactive)
REMARK    1  A    between atoms: C_1  and  C_2
REMARK    2  A    between atoms: C_2  and  C_3
REMARK    3  A    between atoms: C_2  and  C_4
REMARK    4  A    between atoms: C_2  and  O_5
REMARK    5  A    between atoms: O_5  and  C_6
REMARK    6  A    between atoms: N_8  and  C_9
REMARK    7  A    between atoms: C_9  and  C_10
REMARK    8  A    between atoms: C_10  and  N_11
REMARK    9  A    between atoms: C_19  and  N_20
REMARK   10  A    between atoms: C_21  and  C_23
REMARK   11  A    between atoms: C_26  and  C_27
REMARK                            x       y       z     vdW  Elec       q    Type
REMARK                         _______ _______ _______ _____ _____    ______ ____
ROOT
ATOM      1  N   UNL     1       5.429   4.814  18.779  0.00  0.00    +0.000 NA
ATOM      2  C   UNL     1       4.853   3.626  19.451  0.00  0.00    +0.000 C 
ATOM      3  C   UNL     1       3.363   3.437  19.259  0.00  0.00    +0.000 A 
ATOM      4  C   UNL     1       2.808   2.163  19.089  0.00  0.00    +0.000 A 
ATOM      5  C   UNL     1       1.425   2.006  19.018  0.00  0.00    +0.000 A 
ATOM      6  C   UNL     1       0.588   3.113  19.153  0.00  0.00    +0.000 A 
ATOM      7  C   UNL     1       1.130   4.385  19.343  0.00  0.00    +0.000 A 
ATOM      8  C   UNL     1       2.519   4.562  19.372  0.00  0.00    +0.000 A 
ATOM      9  C   UNL     1       3.208   5.905  19.522  0.00  0.00    +0.000 C 
ATOM     10  C   UNL     1       4.438   5.897  18.570  0.00  0.00    +0.000 C 
ENDROOT
BRANCH   9  11
ATOM     11  N   UNL     1       2.335   7.025  19.216  0.00  0.00    +0.000 N 
ATOM     12  C   UNL     1       1.814   7.839  20.185  0.00  0.00    +0.000 C 
ATOM     13  O   UNL     1       1.998   7.651  21.385  0.00  0.00    +0.000 OA
ATOM     14  H   UNL     1       2.230   7.294  18.239  0.00  0.00    +0.000 HD
BRANCH  12  15
ATOM     15  C   UNL     1       1.001   8.987  19.686  0.00  0.00    +0.000 A 
ATOM     16  C   UNL     1       0.061   9.511  20.495  0.00  0.00    +0.000 A 
ATOM     17  C   UNL     1      -0.780  10.612  20.074  0.00  0.00    +0.000 A 
ATOM     18  C   UNL     1      -0.647  11.142  18.846  0.00  0.00    +0.000 A 
ATOM     19  N   UNL     1       0.322  10.619  18.004  0.00  0.00    +0.000 N 
ATOM     20  C   UNL     1       1.166   9.588  18.328  0.00  0.00    +0.000 A 
ATOM     21  O   UNL     1       2.009   9.191  17.531  0.00  0.00    +0.000 OA
ATOM     22  H   UNL     1       0.437  11.012  17.073  0.00  0.00    +0.000 HD
BRANCH  18  23
ATOM     23  C   UNL     1      -1.505  12.277  18.336  0.00  0.00    +0.000 C 
ATOM     24  F   UNL     1      -1.271  13.424  19.028  0.00  0.00    +0.000 F 
ATOM     25  F   UNL     1      -1.263  12.547  17.029  0.00  0.00    +0.000 F 
ATOM     26  F   UNL     1      -2.828  12.005  18.454  0.00  0.00    +0.000 F 
ENDBRANCH  18  23
ENDBRANCH  12  15
ENDBRANCH   9  11
BRANCH   1  27
ATOM     27  C   UNL     1       6.598   5.322  19.528  0.00  0.00    +0.000 C 
BRANCH  27  28
ATOM     28  C   UNL     1       7.912   5.298  18.721  0.00  0.00    +0.000 C 
BRANCH  28  31
ATOM     29  C   UNL     1       7.614   5.494  16.312  0.00  0.00    +0.000 C 
ATOM     30  O   UNL     1       7.598   6.709  16.385  0.00  0.00    +0.000 OA
ATOM     31  N   UNL     1       7.748   4.691  17.413  0.00  0.00    +0.000 N 
ATOM     32  H   UNL     1       7.689   3.692  17.293  0.00  0.00    +0.000 HD
BRANCH  29  33
ATOM     33  O   UNL     1       7.519   4.761  15.169  0.00  0.00    +0.000 OA
BRANCH  33  35
ATOM     34  C   UNL     1       6.226   3.955  13.228  0.00  0.00    +0.000 C 
ATOM     35  C   UNL     1       6.183   4.439  14.685  0.00  0.00    +0.000 C 
ATOM     36  C   UNL     1       5.230   5.631  14.863  0.00  0.00    +0.000 C 
ATOM     37  C   UNL     1       5.654   3.274  15.542  0.00  0.00    +0.000 C 
ENDBRANCH  33  35
ENDBRANCH  29  33
ENDBRANCH  28  31
ENDBRANCH  27  28
ENDBRANCH   1  27
TORSDOF 8
ENDMDL
MODEL 3
REMARK VINA RESULT:      -8.2      2.980      3.958
REMARK  Name = 
REMARK  11 active torsions:
REMARK  status: ('A' for Active; 'I' for Inactive)
REMARK    1  A    between atoms: C_1  and  C_2
REMARK    2  A    between atoms: C_2  and  C_3
REMARK    3  A    between atoms: C_2  and  C_4
REMARK    4  A    between atoms: C_2  and  O_5
REMARK    5  A    between atoms: O_5  and  C_6
REMARK    6  A    between atoms: N_8  and  C_9
REMARK    7  A    between atoms: C_9  and  C_10
REMARK    8  A    between atoms: C_10  and  N_11
REMARK    9  A    between atoms: C_19  and  N_20
REMARK   10  A    between atoms: C_21  and  C_23
REMARK   11  A    between atoms: C_26  and  C_27
REMARK                            x       y       z     vdW  Elec       q    Type
REMARK                         _______ _______ _______ _____ _____    ______ ____
ROOT
ATOM      1  N   UNL     1       6.018   5.579  17.579  0.00  0.00    +0.000 NA
ATOM      2  C   UNL     1       5.634   4.274  18.165  0.00  0.00    +0.000 C 
ATOM      3  C   UNL     1       4.157   3.946  18.093  0.00  0.00    +0.000 A 
ATOM      4  C   UNL     1       3.714   2.644  17.833  0.00  0.00    +0.000 A 
ATOM      5  C   UNL     1       2.353   2.347  17.875  0.00  0.00    +0.000 A 
ATOM      6  C   UNL     1       1.431   3.337  18.211  0.00  0.00    +0.000 A 
ATOM      7  C   UNL     1       1.865   4.634  18.492  0.00  0.00    +0.000 A 
ATOM      8  C   UNL     1       3.225   4.956  18.410  0.00  0.00    +0.000 A 
ATOM      9  C   UNL     1       3.793   6.343  18.645  0.00  0.00    +0.000 C 
ATOM     10  C   UNL     1       4.911   6.565  17.587  0.00  0.00    +0.000 C 
ENDROOT
BRANCH   9  11
ATOM     11  N   UNL     1       2.788   7.388  18.550  0.00  0.00    +0.000 N 
ATOM     12  C   UNL     1       2.108   7.857  19.641  0.00  0.00    +0.000 C 
ATOM     13  O   UNL     1       2.254   7.394  20.769  0.00  0.00    +0.000 OA
ATOM     14  H   UNL     1       2.696   7.882  17.664  0.00  0.00    +0.000 HD
BRANCH  12  15
ATOM     15  C   UNL     1       1.169   8.986  19.372  0.00  0.00    +0.000 A 
ATOM     16  C   UNL     1       0.203   9.250  20.274  0.00  0.00    +0.000 A 
ATOM     17  C   UNL     1      -0.757  10.315  20.072  0.00  0.00    +0.000 A 
ATOM     18  C   UNL     1      -0.713  11.073  18.963  0.00  0.00    +0.000 A 
ATOM     19  N   UNL     1       0.279  10.819  18.030  0.00  0.00    +0.000 N 
ATOM     20  C   UNL     1       1.233   9.840  18.148  0.00  0.00    +0.000 A 
ATOM     21  O   UNL     1       2.088   9.688  17.283  0.00  0.00    +0.000 OA
ATOM     22  H   UNL     1       0.327  11.386  17.187  0.00  0.00    +0.000 HD
BRANCH  18  23
ATOM     23  C   UNL     1      -1.697  12.185  18.681  0.00  0.00    +0.000 C 
ATOM     24  F   UNL     1      -2.373  11.966  17.522  0.00  0.00    +0.000 F 
ATOM     25  F   UNL     1      -2.625  12.302  19.664  0.00  0.00    +0.000 F 
ATOM     26  F   UNL     1      -1.084  13.387  18.561  0.00  0.00    +0.000 F 
ENDBRANCH  18  23
ENDBRANCH  12  15
ENDBRANCH   9  11
BRANCH   1  27
ATOM     27  C   UNL     1       7.205   6.132  18.268  0.00  0.00    +0.000 C 
BRANCH  27  28
ATOM     28  C   UNL     1       7.683   7.482  17.697  0.00  0.00    +0.000 C 
BRANCH  28  31
ATOM     29  C   UNL     1       8.617   9.578  18.510  0.00  0.00    +0.000 C 
ATOM     30  O   UNL     1       8.068  10.201  17.619  0.00  0.00    +0.000 OA
ATOM     31  N   UNL     1       8.508   8.220  18.635  0.00  0.00    +0.000 N 
ATOM     32  H   UNL     1       9.040   7.756  19.356  0.00  0.00    +0.000 HD
BRANCH  29  33
ATOM     33  O   UNL     1       9.387  10.110  19.498  0.00  0.00    +0.000 OA
BRANCH  33  35
ATOM     34  C   UNL     1       9.016  12.512  19.075  0.00  0.00    +0.000 C 
ATOM     35  C   UNL     1      10.045  11.382  19.229  0.00  0.00    +0.000 C 
ATOM     36  C   UNL     1      10.967  11.278  18.004  0.00  0.00    +0.000 C 
ATOM     37  C   UNL     1      10.917  11.715  20.454  0.00  0.00    +0.000 C 
ENDBRANCH  33  35
ENDBRANCH  29  33
ENDBRANCH  28  31
ENDBRANCH  27  28
ENDBRANCH   1  27
TORSDOF 8
ENDMDL
MODEL 4
REMARK VINA RESULT:      -8.1      1.051      1.675
REMARK  Name = 
REMARK  11 active torsions:
REMARK  status: ('A' for Active; 'I' for Inactive)
REMARK    1  A    between atoms: C_1  and  C_2
REMARK    2  A    between atoms: C_2  and  C_3
REMARK    3  A    between atoms: C_2  and  C_4
REMARK    4  A    between atoms: C_2  and  O_5
REMARK    5  A    between atoms: O_5  and  C_6
REMARK    6  A    between atoms: N_8  and  C_9
REMARK    7  A    between atoms: C_9  and  C_10
REMARK    8  A    between atoms: C_10  and  N_11
REMARK    9  A    between atoms: C_19  and  N_20
REMARK   10  A    between atoms: C_21  and  C_23
REMARK   11  A    between atoms: C_26  and  C_27
REMARK                            x       y       z     vdW  Elec       q    Type
REMARK                         _______ _______ _______ _____ _____    ______ ____
ROOT
ATOM      1  N   UNL     1       5.119   4.533  17.931  0.00  0.00    +0.000 NA
ATOM      2  C   UNL     1       4.814   3.586  19.029  0.00  0.00    +0.000 C 
ATOM      3  C   UNL     1       3.358   3.524  19.440  0.00  0.00    +0.000 A 
ATOM      4  C   UNL     1       2.754   2.312  19.791  0.00  0.00    +0.000 A 
ATOM      5  C   UNL     1       1.443   2.295  20.266  0.00  0.00    +0.000 A 
ATOM      6  C   UNL     1       0.743   3.489  20.427  0.00  0.00    +0.000 A 
ATOM      7  C   UNL     1       1.344   4.706  20.099  0.00  0.00    +0.000 A 
ATOM      8  C   UNL     1       2.644   4.732  19.580  0.00  0.00    +0.000 A 
ATOM      9  C   UNL     1       3.368   5.994  19.146  0.00  0.00    +0.000 C 
ATOM     10  C   UNL     1       4.146   5.649  17.844  0.00  0.00    +0.000 C 
ENDROOT
BRANCH   9  11
ATOM     11  N   UNL     1       2.468   7.111  18.920  0.00  0.00    +0.000 N 
ATOM     12  C   UNL     1       1.976   7.878  19.940  0.00  0.00    +0.000 C 
ATOM     13  O   UNL     1       2.210   7.646  21.123  0.00  0.00    +0.000 OA
ATOM     14  H   UNL     1       2.319   7.417  17.959  0.00  0.00    +0.000 HD
BRANCH  12  15
ATOM     15  C   UNL     1       1.128   9.033  19.520  0.00  0.00    +0.000 A 
ATOM     16  C   UNL     1       0.195   9.493  20.377  0.00  0.00    +0.000 A 
ATOM     17  C   UNL     1      -0.678  10.595  20.032  0.00  0.00    +0.000 A 
ATOM     18  C   UNL     1      -0.584  11.192  18.832  0.00  0.00    +0.000 A 
ATOM     19  N   UNL     1       0.376  10.735  17.943  0.00  0.00    +0.000 N 
ATOM     20  C   UNL     1       1.249   9.708  18.193  0.00  0.00    +0.000 A 
ATOM     21  O   UNL     1       2.081   9.372  17.358  0.00  0.00    +0.000 OA
ATOM     22  H   UNL     1       0.462  11.179  17.031  0.00  0.00    +0.000 HD
BRANCH  18  23
ATOM     23  C   UNL     1      -1.477  12.333  18.401  0.00  0.00    +0.000 C 
ATOM     24  F   UNL     1      -2.079  12.921  19.470  0.00  0.00    +0.000 F 
ATOM     25  F   UNL     1      -0.784  13.303  17.755  0.00  0.00    +0.000 F 
ATOM     26  F   UNL     1      -2.463  11.919  17.569  0.00  0.00    +0.000 F 
ENDBRANCH  18  23
ENDBRANCH  12  15
ENDBRANCH   9  11
BRANCH   1  27
ATOM     27  C   UNL     1       6.495   5.058  18.061  0.00  0.00    +0.000 C 
BRANCH  27  28
ATOM     28  C   UNL     1       7.291   5.050  16.741  0.00  0.00    +0.000 C 
BRANCH  28  31
ATOM     29  C   UNL     1       6.732   4.323  14.486  0.00  0.00    +0.000 C 
ATOM     30  O   UNL     1       6.999   5.422  14.035  0.00  0.00    +0.000 OA
ATOM     31  N   UNL     1       6.825   4.030  15.819  0.00  0.00    +0.000 N 
ATOM     32  H   UNL     1       6.529   3.120  16.137  0.00  0.00    +0.000 HD
BRANCH  29  33
ATOM     33  O   UNL     1       6.326   3.241  13.765  0.00  0.00    +0.000 OA
BRANCH  33  35
ATOM     34  C   UNL     1       7.188   4.448  11.793  0.00  0.00    +0.000 C 
ATOM     35  C   UNL     1       6.194   3.404  12.323  0.00  0.00    +0.000 C 
ATOM     36  C   UNL     1       4.747   3.744  11.937  0.00  0.00    +0.000 C 
ATOM     37  C   UNL     1       6.554   2.053  11.676  0.00  0.00    +0.000 C 
ENDBRANCH  33  35
ENDBRANCH  29  33
ENDBRANCH  28  31
ENDBRANCH  27  28
ENDBRANCH   1  27
TORSDOF 8
ENDMDL
MODEL 5
REMARK VINA RESULT:      -8.1      0.954      1.504
REMARK  Name = 
REMARK  11 active torsions:
REMARK  status: ('A' for Active; 'I' for Inactive)
REMARK    1  A    between atoms: C_1  and  C_2
REMARK    2  A    between atoms: C_2  and  C_3
REMARK    3  A    between atoms: C_2  and  C_4
REMARK    4  A    between atoms: C_2  and  O_5
REMARK    5  A    between atoms: O_5  and  C_6
REMARK    6  A    between atoms: N_8  and  C_9
REMARK    7  A    between atoms: C_9  and  C_10
REMARK    8  A    between atoms: C_10  and  N_11
REMARK    9  A    between atoms: C_19  and  N_20
REMARK   10  A    between atoms: C_21  and  C_23
REMARK   11  A    between atoms: C_26  and  C_27
REMARK                            x       y       z     vdW  Elec       q    Type
REMARK                         _______ _______ _______ _____ _____    ______ ____
ROOT
ATOM      1  N   UNL     1       5.424   4.862  18.807  0.00  0.00    +0.000 NA
ATOM      2  C   UNL     1       4.896   3.644  19.463  0.00  0.00    +0.000 C 
ATOM      3  C   UNL     1       3.408   3.418  19.299  0.00  0.00    +0.000 A 
ATOM      4  C   UNL     1       2.885   2.133  19.111  0.00  0.00    +0.000 A 
ATOM      5  C   UNL     1       1.505   1.938  19.065  0.00  0.00    +0.000 A 
ATOM      6  C   UNL     1       0.641   3.018  19.244  0.00  0.00    +0.000 A 
ATOM      7  C   UNL     1       1.153   4.300  19.452  0.00  0.00    +0.000 A 
ATOM      8  C   UNL     1       2.536   4.515  19.456  0.00  0.00    +0.000 A 
ATOM      9  C   UNL     1       3.191   5.874  19.623  0.00  0.00    +0.000 C 
ATOM     10  C   UNL     1       4.400   5.922  18.645  0.00  0.00    +0.000 C 
ENDROOT
BRANCH   9  11
ATOM     11  N   UNL     1       2.281   6.975  19.362  0.00  0.00    +0.000 N 
ATOM     12  C   UNL     1       1.811   7.793  20.353  0.00  0.00    +0.000 C 
ATOM     13  O   UNL     1       2.078   7.624  21.540  0.00  0.00    +0.000 OA
ATOM     14  H   UNL     1       2.107   7.229  18.390  0.00  0.00    +0.000 HD
BRANCH  12  15
ATOM     15  C   UNL     1       0.948   8.922  19.895  0.00  0.00    +0.000 A 
ATOM     16  C   UNL     1       1.198   9.479  18.694  0.00  0.00    +0.000 A 
ATOM     17  C   UNL     1       0.417  10.589  18.192  0.00  0.00    +0.000 A 
ATOM     18  C   UNL     1      -0.587  11.104  18.923  0.00  0.00    +0.000 A 
ATOM     19  N   UNL     1      -0.861  10.537  20.157  0.00  0.00    +0.000 N 
ATOM     20  C   UNL     1      -0.180   9.478  20.701  0.00  0.00    +0.000 A 
ATOM     21  O   UNL     1      -0.495   9.023  21.795  0.00  0.00    +0.000 OA
ATOM     22  H   UNL     1      -1.620  10.913  20.720  0.00  0.00    +0.000 HD
BRANCH  18  23
ATOM     23  C   UNL     1      -1.427  12.275  18.467  0.00  0.00    +0.000 C 
ATOM     24  F   UNL     1      -0.701  13.139  17.708  0.00  0.00    +0.000 F 
ATOM     25  F   UNL     1      -2.483  11.879  17.714  0.00  0.00    +0.000 F 
ATOM     26  F   UNL     1      -1.919  12.984  19.512  0.00  0.00    +0.000 F 
ENDBRANCH  18  23
ENDBRANCH  12  15
ENDBRANCH   9  11
BRANCH   1  27
ATOM     27  C   UNL     1       6.595   5.386  19.542  0.00  0.00    +0.000 C 
BRANCH  27  28
ATOM     28  C   UNL     1       7.900   5.378  18.721  0.00  0.00    +0.000 C 
BRANCH  28  31
ATOM     29  C   UNL     1       7.601   5.516  16.308  0.00  0.00    +0.000 C 
ATOM     30  O   UNL     1       7.584   6.732  16.352  0.00  0.00    +0.000 OA
ATOM     31  N   UNL     1       7.737   4.740  17.427  0.00  0.00    +0.000 N 
ATOM     32  H   UNL     1       7.679   3.737  17.331  0.00  0.00    +0.000 HD
BRANCH  29  33
ATOM     33  O   UNL     1       7.508   4.755  15.183  0.00  0.00    +0.000 OA
BRANCH  33  35
ATOM     34  C   UNL     1       6.217   3.881  13.269  0.00  0.00    +0.000 C 
ATOM     35  C   UNL     1       6.172   4.418  14.707  0.00  0.00    +0.000 C 
ATOM     36  C   UNL     1       5.221   5.618  14.840  0.00  0.00    +0.000 C 
ATOM     37  C   UNL     1       5.638   3.287  15.606  0.00  0.00    +0.000 C 
ENDBRANCH  33  35
ENDBRANCH  29  33
ENDBRANCH  28  31
ENDBRANCH  27  28
ENDBRANCH   1  27
TORSDOF 8
ENDMDL
MODEL 6
REMARK VINA RESULT:      -8.0      0.912      1.610
REMARK  Name = 
REMARK  11 active torsions:
REMARK  status: ('A' for Active; 'I' for Inactive)
REMARK    1  A    between atoms: C_1  and  C_2
REMARK    2  A    between atoms: C_2  and  C_3
REMARK    3  A    between atoms: C_2  and  C_4
REMARK    4  A    between atoms: C_2  and  O_5
REMARK    5  A    between atoms: O_5  and  C_6
REMARK    6  A    between atoms: N_8  and  C_9
REMARK    7  A    between atoms: C_9  and  C_10
REMARK    8  A    between atoms: C_10  and  N_11
REMARK    9  A    between atoms: C_19  and  N_20
REMARK   10  A    between atoms: C_21  and  C_23
REMARK   11  A    between atoms: C_26  and  C_27
REMARK                            x       y       z     vdW  Elec       q    Type
REMARK                         _______ _______ _______ _____ _____    ______ ____
ROOT
ATOM      1  N   UNL     1       5.431   4.944  18.813  0.00  0.00    +0.000 NA
ATOM      2  C   UNL     1       4.954   3.606  19.231  0.00  0.00    +0.000 C 
ATOM      3  C   UNL     1       3.457   3.395  19.130  0.00  0.00    +0.000 A 
ATOM      4  C   UNL     1       2.923   2.172  18.711  0.00  0.00    +0.000 A 
ATOM      5  C   UNL     1       1.543   1.969  18.726  0.00  0.00    +0.000 A 
ATOM      6  C   UNL     1       0.695   2.971  19.193  0.00  0.00    +0.000 A 
ATOM      7  C   UNL     1       1.220   4.187  19.633  0.00  0.00    +0.000 A 
ATOM      8  C   UNL     1       2.600   4.420  19.582  0.00  0.00    +0.000 A 
ATOM      9  C   UNL     1       3.265   5.722  19.987  0.00  0.00    +0.000 C 
ATOM     10  C   UNL     1       4.397   5.997  18.956  0.00  0.00    +0.000 C 
ENDROOT
BRANCH   9  11
ATOM     11  N   UNL     1       2.337   6.838  20.035  0.00  0.00    +0.000 N 
ATOM     12  C   UNL     1       2.261   7.776  19.041  0.00  0.00    +0.000 C 
ATOM     13  O   UNL     1       3.008   7.778  18.066  0.00  0.00    +0.000 OA
ATOM     14  H   UNL     1       1.623   6.834  20.763  0.00  0.00    +0.000 HD
BRANCH  12  15
ATOM     15  C   UNL     1       1.197   8.809  19.217  0.00  0.00    +0.000 A 
ATOM     16  C   UNL     1       0.638   9.352  18.118  0.00  0.00    +0.000 A 
ATOM     17  C   UNL     1      -0.384  10.373  18.208  0.00  0.00    +0.000 A 
ATOM     18  C   UNL     1      -0.803  10.816  19.406  0.00  0.00    +0.000 A 
ATOM     19  N   UNL     1      -0.243  10.262  20.546  0.00  0.00    +0.000 N 
ATOM     20  C   UNL     1       0.719   9.284  20.550  0.00  0.00    +0.000 A 
ATOM     21  O   UNL     1       1.154   8.834  21.604  0.00  0.00    +0.000 OA
ATOM     22  H   UNL     1      -0.552  10.584  21.460  0.00  0.00    +0.000 HD
BRANCH  18  23
ATOM     23  C   UNL     1      -1.850  11.893  19.571  0.00  0.00    +0.000 C 
ATOM     24  F   UNL     1      -3.014  11.550  18.957  0.00  0.00    +0.000 F 
ATOM     25  F   UNL     1      -2.144  12.119  20.876  0.00  0.00    +0.000 F 
ATOM     26  F   UNL     1      -1.453  13.073  19.036  0.00  0.00    +0.000 F 
ENDBRANCH  18  23
ENDBRANCH  12  15
ENDBRANCH   9  11
BRANCH   1  27
ATOM     27  C   UNL     1       6.653   5.319  19.556  0.00  0.00    +0.000 C 
BRANCH  27  28
ATOM     28  C   UNL     1       7.934   5.293  18.698  0.00  0.00    +0.000 C 
BRANCH  28  31
ATOM     29  C   UNL     1       7.568   5.443  16.296  0.00  0.00    +0.000 C 
ATOM     30  O   UNL     1       7.568   6.659  16.344  0.00  0.00    +0.000 OA
ATOM     31  N   UNL     1       7.726   4.661  17.408  0.00  0.00    +0.000 N 
ATOM     32  H   UNL     1       7.652   3.660  17.311  0.00  0.00    +0.000 HD
BRANCH  29  33
ATOM     33  O   UNL     1       7.432   4.687  15.171  0.00  0.00    +0.000 OA
BRANCH  33  35
ATOM     34  C   UNL     1       5.475   3.282  15.706  0.00  0.00    +0.000 C 
ATOM     35  C   UNL     1       6.081   4.330  14.760  0.00  0.00    +0.000 C 
ATOM     36  C   UNL     1       6.055   3.861  13.297  0.00  0.00    +0.000 C 
ATOM     37  C   UNL     1       5.219   5.602  14.867  0.00  0.00    +0.000 C 
ENDBRANCH  33  35
ENDBRANCH  29  33
ENDBRANCH  28  31
ENDBRANCH  27  28
ENDBRANCH   1  27
TORSDOF 8
ENDMDL
MODEL 7
REMARK VINA RESULT:      -8.0      1.070      1.709
REMARK  Name = 
REMARK  11 active torsions:
REMARK  status: ('A' for Active; 'I' for Inactive)
REMARK    1  A    between atoms: C_1  and  C_2
REMARK    2  A    between atoms: C_2  and  C_3
REMARK    3  A    between atoms: C_2  and  C_4
REMARK    4  A    between atoms: C_2  and  O_5
REMARK    5  A    between atoms: O_5  and  C_6
REMARK    6  A    between atoms: N_8  and  C_9
REMARK    7  A    between atoms: C_9  and  C_10
REMARK    8  A    between atoms: C_10  and  N_11
REMARK    9  A    between atoms: C_19  and  N_20
REMARK   10  A    between atoms: C_21  and  C_23
REMARK   11  A    between atoms: C_26  and  C_27
REMARK                            x       y       z     vdW  Elec       q    Type
REMARK                         _______ _______ _______ _____ _____    ______ ____
ROOT
ATOM      1  N   UNL     1       5.079   4.558  17.963  0.00  0.00    +0.000 NA
ATOM      2  C   UNL     1       4.802   3.621  19.076  0.00  0.00    +0.000 C 
ATOM      3  C   UNL     1       3.354   3.551  19.514  0.00  0.00    +0.000 A 
ATOM      4  C   UNL     1       2.767   2.336  19.889  0.00  0.00    +0.000 A 
ATOM      5  C   UNL     1       1.465   2.313  20.386  0.00  0.00    +0.000 A 
ATOM      6  C   UNL     1       0.757   3.502  20.545  0.00  0.00    +0.000 A 
ATOM      7  C   UNL     1       1.340   4.721  20.193  0.00  0.00    +0.000 A 
ATOM      8  C   UNL     1       2.631   4.753  19.651  0.00  0.00    +0.000 A 
ATOM      9  C   UNL     1       3.335   6.016  19.190  0.00  0.00    +0.000 C 
ATOM     10  C   UNL     1       4.095   5.664  17.880  0.00  0.00    +0.000 C 
ENDROOT
BRANCH   9  11
ATOM     11  N   UNL     1       2.420   7.122  18.967  0.00  0.00    +0.000 N 
ATOM     12  C   UNL     1       1.981   7.931  19.980  0.00  0.00    +0.000 C 
ATOM     13  O   UNL     1       2.280   7.748  21.157  0.00  0.00    +0.000 OA
ATOM     14  H   UNL     1       2.219   7.388  18.004  0.00  0.00    +0.000 HD
BRANCH  12  15
ATOM     15  C   UNL     1       1.108   9.066  19.559  0.00  0.00    +0.000 A 
ATOM     16  C   UNL     1       0.156   9.497  20.409  0.00  0.00    +0.000 A 
ATOM     17  C   UNL     1      -0.741  10.579  20.063  0.00  0.00    +0.000 A 
ATOM     18  C   UNL     1      -0.651  11.186  18.866  0.00  0.00    +0.000 A 
ATOM     19  N   UNL     1       0.328  10.758  17.984  0.00  0.00    +0.000 N 
ATOM     20  C   UNL     1       1.225   9.752  18.237  0.00  0.00    +0.000 A 
ATOM     21  O   UNL     1       2.073   9.442  17.407  0.00  0.00    +0.000 OA
ATOM     22  H   UNL     1       0.412  11.210  17.076  0.00  0.00    +0.000 HD
BRANCH  18  23
ATOM     23  C   UNL     1      -1.569  12.305  18.434  0.00  0.00    +0.000 C 
ATOM     24  F   UNL     1      -0.923  13.194  17.633  0.00  0.00    +0.000 F 
ATOM     25  F   UNL     1      -2.635  11.845  17.733  0.00  0.00    +0.000 F 
ATOM     26  F   UNL     1      -2.052  13.002  19.491  0.00  0.00    +0.000 F 
ENDBRANCH  18  23
ENDBRANCH  12  15
ENDBRANCH   9  11
BRANCH   1  27
ATOM     27  C   UNL     1       6.452   5.098  18.063  0.00  0.00    +0.000 C 
BRANCH  27  28
ATOM     28  C   UNL     1       7.193   5.170  16.713  0.00  0.00    +0.000 C 
BRANCH  28  31
ATOM     29  C   UNL     1       6.780   4.364  14.452  0.00  0.00    +0.000 C 
ATOM     30  O   UNL     1       7.086   5.444  13.982  0.00  0.00    +0.000 OA
ATOM     31  N   UNL     1       6.781   4.120  15.799  0.00  0.00    +0.000 N 
ATOM     32  H   UNL     1       6.456   3.223  16.129  0.00  0.00    +0.000 HD
BRANCH  29  33
ATOM     33  O   UNL     1       6.415   3.259  13.746  0.00  0.00    +0.000 OA
BRANCH  33  35
ATOM     34  C   UNL     1       6.498   2.042  11.601  0.00  0.00    +0.000 C 
ATOM     35  C   UNL     1       6.294   3.394  12.300  0.00  0.00    +0.000 C 
ATOM     36  C   UNL     1       7.256   4.465  11.764  0.00  0.00    +0.000 C 
ATOM     37  C   UNL     1       4.855   3.855  12.002  0.00  0.00    +0.000 C 
ENDBRANCH  33  35
ENDBRANCH  29  33
ENDBRANCH  28  31
ENDBRANCH  27  28
ENDBRANCH   1  27
TORSDOF 8
ENDMDL
MODEL 8
REMARK VINA RESULT:      -8.0      4.638      9.116
REMARK  Name = 
REMARK  11 active torsions:
REMARK  status: ('A' for Active; 'I' for Inactive)
REMARK    1  A    between atoms: C_1  and  C_2
REMARK    2  A    between atoms: C_2  and  C_3
REMARK    3  A    between atoms: C_2  and  C_4
REMARK    4  A    between atoms: C_2  and  O_5
REMARK    5  A    between atoms: O_5  and  C_6
REMARK    6  A    between atoms: N_8  and  C_9
REMARK    7  A    between atoms: C_9  and  C_10
REMARK    8  A    between atoms: C_10  and  N_11
REMARK    9  A    between atoms: C_19  and  N_20
REMARK   10  A    between atoms: C_21  and  C_23
REMARK   11  A    between atoms: C_26  and  C_27
REMARK                            x       y       z     vdW  Elec       q    Type
REMARK                         _______ _______ _______ _____ _____    ______ ____
ROOT
ATOM      1  N   UNL     1      -1.122  12.525  20.727  0.00  0.00    +0.000 NA
ATOM      2  C   UNL     1      -1.853  12.911  19.498  0.00  0.00    +0.000 C 
ATOM      3  C   UNL     1      -2.264  11.760  18.604  0.00  0.00    +0.000 A 
ATOM      4  C   UNL     1      -3.496  11.761  17.939  0.00  0.00    +0.000 A 
ATOM      5  C   UNL     1      -3.807  10.740  17.042  0.00  0.00    +0.000 A 
ATOM      6  C   UNL     1      -2.877   9.737  16.775  0.00  0.00    +0.000 A 
ATOM      7  C   UNL     1      -1.638   9.739  17.418  0.00  0.00    +0.000 A 
ATOM      8  C   UNL     1      -1.331  10.733  18.355  0.00  0.00    +0.000 A 
ATOM      9  C   UNL     1      -0.036  10.796  19.143  0.00  0.00    +0.000 C 
ATOM     10  C   UNL     1      -0.402  11.236  20.589  0.00  0.00    +0.000 C 
ENDROOT
BRANCH   9  11
ATOM     11  N   UNL     1       0.677   9.531  19.160  0.00  0.00    +0.000 N 
ATOM     12  C   UNL     1       1.762   9.286  18.363  0.00  0.00    +0.000 C 
ATOM     13  O   UNL     1       2.178  10.092  17.536  0.00  0.00    +0.000 OA
ATOM     14  H   UNL     1       0.446   8.864  19.895  0.00  0.00    +0.000 HD
BRANCH  12  15
ATOM     15  C   UNL     1       2.420   7.961  18.568  0.00  0.00    +0.000 A 
ATOM     16  C   UNL     1       3.187   7.463  17.580  0.00  0.00    +0.000 A 
ATOM     17  C   UNL     1       3.840   6.176  17.697  0.00  0.00    +0.000 A 
ATOM     18  C   UNL     1       3.690   5.433  18.808  0.00  0.00    +0.000 A 
ATOM     19  N   UNL     1       2.910   5.936  19.836  0.00  0.00    +0.000 N 
ATOM     20  C   UNL     1       2.268   7.147  19.812  0.00  0.00    +0.000 A 
ATOM     21  O   UNL     1       1.607   7.528  20.772  0.00  0.00    +0.000 OA
ATOM     22  H   UNL     1       2.790   5.387  20.685  0.00  0.00    +0.000 HD
BRANCH  18  23
ATOM     23  C   UNL     1       4.326   4.073  18.986  0.00  0.00    +0.000 C 
ATOM     24  F   UNL     1       3.786   3.410  20.043  0.00  0.00    +0.000 F 
ATOM     25  F   UNL     1       4.152   3.286  17.895  0.00  0.00    +0.000 F 
ATOM     26  F   UNL     1       5.659   4.162  19.212  0.00  0.00    +0.000 F 
ENDBRANCH  18  23
ENDBRANCH  12  15
ENDBRANCH   9  11
BRANCH   1  27
ATOM     27  C   UNL     1      -0.187  13.595  21.137  0.00  0.00    +0.000 C 
BRANCH  27  28
ATOM     28  C   UNL     1       0.317  14.463  19.966  0.00  0.00    +0.000 C 
BRANCH  28  31
ATOM     29  C   UNL     1       2.622  14.096  19.272  0.00  0.00    +0.000 C 
ATOM     30  O   UNL     1       2.278  13.229  18.490  0.00  0.00    +0.000 OA
ATOM     31  N   UNL     1       1.733  14.764  20.070  0.00  0.00    +0.000 N 
ATOM     32  H   UNL     1       2.089  15.426  20.743  0.00  0.00    +0.000 HD
BRANCH  29  33
ATOM     33  O   UNL     1       3.896  14.537  19.467  0.00  0.00    +0.000 OA
BRANCH  33  35
ATOM     34  C   UNL     1       3.445  15.734  17.356  0.00  0.00    +0.000 C 
ATOM     35  C   UNL     1       4.485  15.371  18.427  0.00  0.00    +0.000 C 
ATOM     36  C   UNL     1       5.723  14.698  17.817  0.00  0.00    +0.000 C 
ATOM     37  C   UNL     1       4.937  16.683  19.095  0.00  0.00    +0.000 C 
ENDBRANCH  33  35
ENDBRANCH  29  33
ENDBRANCH  28  31
ENDBRANCH  27  28
ENDBRANCH   1  27
TORSDOF 8
ENDMDL
MODEL 9
REMARK VINA RESULT:      -7.8      1.954      2.613
REMARK  Name = 
REMARK  11 active torsions:
REMARK  status: ('A' for Active; 'I' for Inactive)
REMARK    1  A    between atoms: C_1  and  C_2
REMARK    2  A    between atoms: C_2  and  C_3
REMARK    3  A    between atoms: C_2  and  C_4
REMARK    4  A    between atoms: C_2  and  O_5
REMARK    5  A    between atoms: O_5  and  C_6
REMARK    6  A    between atoms: N_8  and  C_9
REMARK    7  A    between atoms: C_9  and  C_10
REMARK    8  A    between atoms: C_10  and  N_11
REMARK    9  A    between atoms: C_19  and  N_20
REMARK   10  A    between atoms: C_21  and  C_23
REMARK   11  A    between atoms: C_26  and  C_27
REMARK                            x       y       z     vdW  Elec       q    Type
REMARK                         _______ _______ _______ _____ _____    ______ ____
ROOT
ATOM      1  N   UNL     1       4.984   4.736  17.604  0.00  0.00    +0.000 NA
ATOM      2  C   UNL     1       4.548   3.386  18.031  0.00  0.00    +0.000 C 
ATOM      3  C   UNL     1       3.112   3.291  18.501  0.00  0.00    +0.000 A 
ATOM      4  C   UNL     1       2.320   2.177  18.196  0.00  0.00    +0.000 A 
ATOM      5  C   UNL     1       1.036   2.066  18.727  0.00  0.00    +0.000 A 
ATOM      6  C   UNL     1       0.550   3.045  19.592  0.00  0.00    +0.000 A 
ATOM      7  C   UNL     1       1.340   4.149  19.918  0.00  0.00    +0.000 A 
ATOM      8  C   UNL     1       2.614   4.295  19.357  0.00  0.00    +0.000 A 
ATOM      9  C   UNL     1       3.529   5.479  19.606  0.00  0.00    +0.000 C 
ATOM     10  C   UNL     1       4.211   5.823  18.250  0.00  0.00    +0.000 C 
ENDROOT
BRANCH   9  11
ATOM     11  N   UNL     1       2.825   6.636  20.130  0.00  0.00    +0.000 N 
ATOM     12  C   UNL     1       2.145   7.511  19.327  0.00  0.00    +0.000 C 
ATOM     13  O   UNL     1       2.128   7.417  18.102  0.00  0.00    +0.000 OA
ATOM     14  H   UNL     1       2.715   6.710  21.141  0.00  0.00    +0.000 HD
BRANCH  12  15
ATOM     15  C   UNL     1       1.414   8.599  20.041  0.00  0.00    +0.000 A 
ATOM     16  C   UNL     1       1.041   8.393  21.319  0.00  0.00    +0.000 A 
ATOM     17  C   UNL     1       0.311   9.393  22.070  0.00  0.00    +0.000 A 
ATOM     18  C   UNL     1      -0.024  10.564  21.502  0.00  0.00    +0.000 A 
ATOM     19  N   UNL     1       0.359  10.793  20.190  0.00  0.00    +0.000 N 
ATOM     20  C   UNL     1       1.061   9.908  19.414  0.00  0.00    +0.000 A 
ATOM     21  O   UNL     1       1.376  10.192  18.263  0.00  0.00    +0.000 OA
ATOM     22  H   UNL     1       0.116  11.677  19.748  0.00  0.00    +0.000 HD
BRANCH  18  23
ATOM     23  C   UNL     1      -0.803  11.641  22.222  0.00  0.00    +0.000 C 
ATOM     24  F   UNL     1      -0.076  12.784  22.338  0.00  0.00    +0.000 F 
ATOM     25  F   UNL     1      -1.945  11.965  21.566  0.00  0.00    +0.000 F 
ATOM     26  F   UNL     1      -1.151  11.263  23.476  0.00  0.00    +0.000 F 
ENDBRANCH  18  23
ENDBRANCH  12  15
ENDBRANCH   9  11
BRANCH   1  27
ATOM     27  C   UNL     1       6.431   4.919  17.846  0.00  0.00    +0.000 C 
BRANCH  27  28
ATOM     28  C   UNL     1       7.305   4.684  16.598  0.00  0.00    +0.000 C 
BRANCH  28  31
ATOM     29  C   UNL     1       6.082   4.258  14.536  0.00  0.00    +0.000 C 
ATOM     30  O   UNL     1       6.004   5.450  14.303  0.00  0.00    +0.000 OA
ATOM     31  N   UNL     1       6.692   3.764  15.657  0.00  0.00    +0.000 N 
ATOM     32  H   UNL     1       6.666   2.770  15.824  0.00  0.00    +0.000 HD
BRANCH  29  33
ATOM     33  O   UNL     1       5.607   3.256  13.746  0.00  0.00    +0.000 OA
BRANCH  33  35
ATOM     34  C   UNL     1       6.260   1.914  11.781  0.00  0.00    +0.000 C 
ATOM     35  C   UNL     1       5.926   3.311  12.325  0.00  0.00    +0.000 C 
ATOM     36  C   UNL     1       7.055   4.316  12.052  0.00  0.00    +0.000 C 
ATOM     37  C   UNL     1       4.664   3.802  11.591  0.00  0.00    +0.000 C 
ENDBRANCH  33  35
ENDBRANCH  29  33
ENDBRANCH  28  31
ENDBRANCH  27  28
ENDBRANCH   1  27
TORSDOF 8
ENDMDL
