MODEL 1
REMARK VINA RESULT:      -8.4      0.000      0.000
REMARK  Name = 
REMARK  5 active torsions:
REMARK  status: ('A' for Active; 'I' for Inactive)
REMARK    1  A    between atoms: C_1  and  C_2
REMARK    2  A    between atoms: C_2  and  C_4
REMARK    3  A    between atoms: C_7  and  C_8
REMARK    4  A    between atoms: C_11  and  C_12
REMARK    5  A    between atoms: C_17  and  C_18
REMARK                            x       y       z     vdW  Elec       q    Type
REMARK                         _______ _______ _______ _____ _____    ______ ____
ROOT
ATOM      1  C   UNL     1       2.602   6.245  19.312  0.00  0.00    +0.000 A 
ATOM      2  C   UNL     1       1.726   5.523  20.097  0.00  0.00    +0.000 A 
ATOM      3  C   UNL     1       1.102   6.449  20.966  0.00  0.00    +0.000 A 
ATOM      4  C   UNL     1       1.659   7.686  20.704  0.00  0.00    +0.000 A 
ATOM      5  O   UNL     1       2.545   7.561  19.670  0.00  0.00    +0.000 OA
ENDROOT
BRANCH   4   6
ATOM      6  C   UNL     1       1.362   8.987  21.273  0.00  0.00    +0.000 C 
ATOM      7  O   UNL     1       1.768   9.277  22.404  0.00  0.00    +0.000 OA
ATOM      8  N   UNL     1       0.649   9.928  20.516  0.00  0.00    +0.000 N 
ATOM      9  C   UNL     1       0.467  11.277  21.050  0.00  0.00    +0.000 C 
ATOM     10  C   UNL     1      -0.982  11.740  20.889  0.00  0.00    +0.000 C 
ATOM     11  C   UNL     1      -1.465  11.603  19.438  0.00  0.00    +0.000 C 
ATOM     12  C   UNL     1      -1.202  10.179  18.933  0.00  0.00    +0.000 C 
ATOM     13  C   UNL     1       0.257   9.770  19.115  0.00  0.00    +0.000 C 
BRANCH  11  14
ATOM     14  C   UNL     1      -0.839  12.660  18.539  0.00  0.00    +0.000 C 
ATOM     15  N   UNL     1      -1.168  12.585  17.214  0.00  0.00    +0.000 N 
ATOM     16  O   UNL     1      -0.062  13.522  18.925  0.00  0.00    +0.000 OA
ATOM     17  H   UNL     1      -1.773  11.876  16.821  0.00  0.00    +0.000 HD
ATOM     18  H   UNL     1      -0.751  13.267  16.600  0.00  0.00    +0.000 HD
ENDBRANCH  11  14
ENDBRANCH   4   6
BRANCH   1  22
ATOM     19  C   UNL     1       5.328   5.317  16.147  0.00  0.00    +0.000 A 
ATOM     20  C   UNL     1       4.969   6.644  16.406  0.00  0.00    +0.000 A 
ATOM     21  C   UNL     1       4.048   6.939  17.417  0.00  0.00    +0.000 A 
ATOM     22  C   UNL     1       3.476   5.919  18.189  0.00  0.00    +0.000 A 
ATOM     23  C   UNL     1       3.813   4.589  17.890  0.00  0.00    +0.000 A 
ATOM     24  C   UNL     1       4.739   4.288  16.885  0.00  0.00    +0.000 A 
BRANCH  19  26
ATOM     25  C   UNL     1       5.965   4.089  13.980  0.00  0.00    +0.000 C 
ATOM     26  C   UNL     1       6.332   5.046  15.085  0.00  0.00    +0.000 C 
ATOM     27  O   UNL     1       7.441   5.570  15.146  0.00  0.00    +0.000 OA
ENDBRANCH  19  26
ENDBRANCH   1  22
TORSDOF 4
ENDMDL
MODEL 2
REMARK VINA RESULT:      -8.1      3.026      8.970
REMARK  Name = 
REMARK  5 active torsions:
REMARK  status: ('A' for Active; 'I' for Inactive)
REMARK    1  A    between atoms: C_1  and  C_2
REMARK    2  A    between atoms: C_2  and  C_4
REMARK    3  A    between atoms: C_7  and  C_8
REMARK    4  A    between atoms: C_11  and  C_12
REMARK    5  A    between atoms: C_17  and  C_18
REMARK                            x       y       z     vdW  Elec       q    Type
REMARK                         _______ _______ _______ _____ _____    ______ ____
ROOT
ATOM      1  C   UNL     1       1.167   9.260  19.366  0.00  0.00    +0.000 A 
ATOM      2  C   UNL     1       1.539   9.446  18.050  0.00  0.00    +0.000 A 
ATOM      3  C   UNL     1       2.353   8.343  17.698  0.00  0.00    +0.000 A 
ATOM      4  C   UNL     1       2.479   7.558  18.828  0.00  0.00    +0.000 A 
ATOM      5  O   UNL     1       1.723   8.104  19.830  0.00  0.00    +0.000 OA
ENDROOT
BRANCH   4   6
ATOM      6  C   UNL     1       3.166   6.296  19.021  0.00  0.00    +0.000 C 
ATOM      7  O   UNL     1       2.759   5.490  19.866  0.00  0.00    +0.000 OA
ATOM      8  N   UNL     1       4.269   5.977  18.215  0.00  0.00    +0.000 N 
ATOM      9  C   UNL     1       4.873   4.650  18.332  0.00  0.00    +0.000 C 
ATOM     10  C   UNL     1       6.397   4.746  18.405  0.00  0.00    +0.000 C 
ATOM     11  C   UNL     1       6.973   5.563  17.239  0.00  0.00    +0.000 C 
ATOM     12  C   UNL     1       6.263   6.920  17.152  0.00  0.00    +0.000 C 
ATOM     13  C   UNL     1       4.746   6.765  17.078  0.00  0.00    +0.000 C 
BRANCH  11  14
ATOM     14  C   UNL     1       6.906   4.790  15.930  0.00  0.00    +0.000 C 
ATOM     15  N   UNL     1       7.564   5.353  14.871  0.00  0.00    +0.000 N 
ATOM     16  O   UNL     1       6.291   3.744  15.776  0.00  0.00    +0.000 OA
ATOM     17  H   UNL     1       8.059   6.234  14.917  0.00  0.00    +0.000 HD
ATOM     18  H   UNL     1       7.518   4.863  13.992  0.00  0.00    +0.000 HD
ENDBRANCH  11  14
ENDBRANCH   4   6
BRANCH   1  22
ATOM     19  C   UNL     1      -1.247  11.468  22.123  0.00  0.00    +0.000 A 
ATOM     20  C   UNL     1      -0.458  10.404  22.569  0.00  0.00    +0.000 A 
ATOM     21  C   UNL     1       0.301   9.661  21.658  0.00  0.00    +0.000 A 
ATOM     22  C   UNL     1       0.289   9.970  20.290  0.00  0.00    +0.000 A 
ATOM     23  C   UNL     1      -0.541  11.014  19.852  0.00  0.00    +0.000 A 
ATOM     24  C   UNL     1      -1.296  11.766  20.759  0.00  0.00    +0.000 A 
BRANCH  19  26
ATOM     25  C   UNL     1      -1.488  13.605  23.534  0.00  0.00    +0.000 C 
ATOM     26  C   UNL     1      -2.015  12.254  23.125  0.00  0.00    +0.000 C 
ATOM     27  O   UNL     1      -3.032  11.778  23.622  0.00  0.00    +0.000 OA
ENDBRANCH  19  26
ENDBRANCH   1  22
TORSDOF 4
ENDMDL
MODEL 3
REMARK VINA RESULT:      -8.1      2.984      8.888
REMARK  Name = 
REMARK  5 active torsions:
REMARK  status: ('A' for Active; 'I' for Inactive)
REMARK    1  A    between atoms: C_1  and  C_2
REMARK    2  A    between atoms: C_2  and  C_4
REMARK    3  A    between atoms: C_7  and  C_8
REMARK    4  A    between atoms: C_11  and  C_12
REMARK    5  A    between atoms: C_17  and  C_18
REMARK                            x       y       z     vdW  Elec       q    Type
REMARK                         _______ _______ _______ _____ _____    ______ ____
ROOT
ATOM      1  C   UNL     1       1.341   9.294  19.398  0.00  0.00    +0.000 A 
ATOM      2  C   UNL     1       1.431   9.352  18.022  0.00  0.00    +0.000 A 
ATOM      3  C   UNL     1       2.110   8.180  17.611  0.00  0.00    +0.000 A 
ATOM      4  C   UNL     1       2.445   7.485  18.757  0.00  0.00    +0.000 A 
ATOM      5  O   UNL     1       1.940   8.151  19.840  0.00  0.00    +0.000 OA
ENDROOT
BRANCH   4   6
ATOM      6  C   UNL     1       3.110   6.206  18.917  0.00  0.00    +0.000 C 
ATOM      7  O   UNL     1       2.667   5.371  19.715  0.00  0.00    +0.000 OA
ATOM      8  N   UNL     1       4.233   5.906  18.132  0.00  0.00    +0.000 N 
ATOM      9  C   UNL     1       4.817   4.567  18.212  0.00  0.00    +0.000 C 
ATOM     10  C   UNL     1       6.339   4.639  18.336  0.00  0.00    +0.000 C 
ATOM     11  C   UNL     1       6.961   5.497  17.223  0.00  0.00    +0.000 C 
ATOM     12  C   UNL     1       6.271   6.865  17.171  0.00  0.00    +0.000 C 
ATOM     13  C   UNL     1       4.755   6.734  17.045  0.00  0.00    +0.000 C 
BRANCH  11  14
ATOM     14  C   UNL     1       6.925   4.779  15.881  0.00  0.00    +0.000 C 
ATOM     15  N   UNL     1       7.531   5.430  14.842  0.00  0.00    +0.000 N 
ATOM     16  O   UNL     1       6.376   3.704  15.687  0.00  0.00    +0.000 OA
ATOM     17  H   UNL     1       7.971   6.338  14.922  0.00  0.00    +0.000 HD
ATOM     18  H   UNL     1       7.504   4.978  13.941  0.00  0.00    +0.000 HD
ENDBRANCH  11  14
ENDBRANCH   4   6
BRANCH   1  22
ATOM     19  C   UNL     1      -0.694  11.730  22.268  0.00  0.00    +0.000 A 
ATOM     20  C   UNL     1      -0.050  12.315  21.173  0.00  0.00    +0.000 A 
ATOM     21  C   UNL     1       0.646  11.517  20.258  0.00  0.00    +0.000 A 
ATOM     22  C   UNL     1       0.706  10.126  20.416  0.00  0.00    +0.000 A 
ATOM     23  C   UNL     1       0.091   9.557  21.542  0.00  0.00    +0.000 A 
ATOM     24  C   UNL     1      -0.613  10.348  22.458  0.00  0.00    +0.000 A 
BRANCH  19  26
ATOM     25  C   UNL     1      -2.894  12.281  23.481  0.00  0.00    +0.000 C 
ATOM     26  C   UNL     1      -1.449  12.606  23.202  0.00  0.00    +0.000 C 
ATOM     27  O   UNL     1      -0.899  13.589  23.694  0.00  0.00    +0.000 OA
ENDBRANCH  19  26
ENDBRANCH   1  22
TORSDOF 4
ENDMDL
MODEL 4
REMARK VINA RESULT:      -8.0      2.954      8.941
REMARK  Name = 
REMARK  5 active torsions:
REMARK  status: ('A' for Active; 'I' for Inactive)
REMARK    1  A    between atoms: C_1  and  C_2
REMARK    2  A    between atoms: C_2  and  C_4
REMARK    3  A    between atoms: C_7  and  C_8
REMARK    4  A    between atoms: C_11  and  C_12
REMARK    5  A    between atoms: C_17  and  C_18
REMARK                            x       y       z     vdW  Elec       q    Type
REMARK                         _______ _______ _______ _____ _____    ______ ____
ROOT
ATOM      1  C   UNL     1       1.195   9.383  19.456  0.00  0.00    +0.000 A 
ATOM      2  C   UNL     1       1.466   9.537  18.111  0.00  0.00    +0.000 A 
ATOM      3  C   UNL     1       2.188   8.388  17.709  0.00  0.00    +0.000 A 
ATOM      4  C   UNL     1       2.365   7.608  18.836  0.00  0.00    +0.000 A 
ATOM      5  O   UNL     1       1.724   8.203  19.888  0.00  0.00    +0.000 OA
ENDROOT
BRANCH   4   6
ATOM      6  C   UNL     1       2.996   6.311  18.989  0.00  0.00    +0.000 C 
ATOM      7  O   UNL     1       2.498   5.463  19.738  0.00  0.00    +0.000 OA
ATOM      8  N   UNL     1       4.151   6.011  18.251  0.00  0.00    +0.000 N 
ATOM      9  C   UNL     1       4.704   4.659  18.318  0.00  0.00    +0.000 C 
ATOM     10  C   UNL     1       6.219   4.696  18.519  0.00  0.00    +0.000 C 
ATOM     11  C   UNL     1       6.912   5.573  17.464  0.00  0.00    +0.000 C 
ATOM     12  C   UNL     1       6.252   6.956  17.422  0.00  0.00    +0.000 C 
ATOM     13  C   UNL     1       4.742   6.861  17.217  0.00  0.00    +0.000 C 
BRANCH  11  14
ATOM     14  C   UNL     1       6.929   4.897  16.101  0.00  0.00    +0.000 C 
ATOM     15  N   UNL     1       6.347   3.661  16.042  0.00  0.00    +0.000 N 
ATOM     16  O   UNL     1       7.445   5.374  15.099  0.00  0.00    +0.000 OA
ATOM     17  H   UNL     1       5.937   3.191  16.838  0.00  0.00    +0.000 HD
ATOM     18  H   UNL     1       6.363   3.191  15.150  0.00  0.00    +0.000 HD
ENDBRANCH  11  14
ENDBRANCH   4   6
BRANCH   1  22
ATOM     19  C   UNL     1      -1.202  11.521  22.283  0.00  0.00    +0.000 A 
ATOM     20  C   UNL     1      -1.115  11.957  20.957  0.00  0.00    +0.000 A 
ATOM     21  C   UNL     1      -0.300  11.276  20.045  0.00  0.00    +0.000 A 
ATOM     22  C   UNL     1       0.435  10.149  20.439  0.00  0.00    +0.000 A 
ATOM     23  C   UNL     1       0.371   9.749  21.783  0.00  0.00    +0.000 A 
ATOM     24  C   UNL     1      -0.448  10.421  22.698  0.00  0.00    +0.000 A 
BRANCH  19  26
ATOM     25  C   UNL     1      -1.703  13.636  23.657  0.00  0.00    +0.000 C 
ATOM     26  C   UNL     1      -2.101  12.252  23.214  0.00  0.00    +0.000 C 
ATOM     27  O   UNL     1      -3.121  11.707  23.630  0.00  0.00    +0.000 OA
ENDBRANCH  19  26
ENDBRANCH   1  22
TORSDOF 4
ENDMDL
MODEL 5
REMARK VINA RESULT:      -7.8      3.319      8.662
REMARK  Name = 
REMARK  5 active torsions:
REMARK  status: ('A' for Active; 'I' for Inactive)
REMARK    1  A    between atoms: C_1  and  C_2
REMARK    2  A    between atoms: C_2  and  C_4
REMARK    3  A    between atoms: C_7  and  C_8
REMARK    4  A    between atoms: C_11  and  C_12
REMARK    5  A    between atoms: C_17  and  C_18
REMARK                            x       y       z     vdW  Elec       q    Type
REMARK                         _______ _______ _______ _____ _____    ______ ____
ROOT
ATOM      1  C   UNL     1       1.315   9.257  19.249  0.00  0.00    +0.000 A 
ATOM      2  C   UNL     1       1.247   9.260  17.870  0.00  0.00    +0.000 A 
ATOM      3  C   UNL     1       2.017   8.159  17.424  0.00  0.00    +0.000 A 
ATOM      4  C   UNL     1       2.559   7.564  18.547  0.00  0.00    +0.000 A 
ATOM      5  O   UNL     1       2.097   8.216  19.657  0.00  0.00    +0.000 OA
ENDROOT
BRANCH   4   6
ATOM      6  C   UNL     1       3.391   6.383  18.673  0.00  0.00    +0.000 C 
ATOM      7  O   UNL     1       4.527   6.369  18.184  0.00  0.00    +0.000 OA
ATOM      8  N   UNL     1       2.916   5.273  19.388  0.00  0.00    +0.000 N 
ATOM      9  C   UNL     1       3.812   4.140  19.616  0.00  0.00    +0.000 C 
ATOM     10  C   UNL     1       3.107   2.816  19.318  0.00  0.00    +0.000 C 
ATOM     11  C   UNL     1       1.781   2.692  20.084  0.00  0.00    +0.000 C 
ATOM     12  C   UNL     1       0.916   3.933  19.833  0.00  0.00    +0.000 C 
ATOM     13  C   UNL     1       1.666   5.225  20.148  0.00  0.00    +0.000 C 
BRANCH  11  14
ATOM     14  C   UNL     1       2.015   2.441  21.567  0.00  0.00    +0.000 C 
ATOM     15  N   UNL     1       0.907   2.514  22.365  0.00  0.00    +0.000 N 
ATOM     16  O   UNL     1       3.109   2.214  22.065  0.00  0.00    +0.000 OA
ATOM     17  H   UNL     1      -0.020   2.734  22.026  0.00  0.00    +0.000 HD
ATOM     18  H   UNL     1       1.045   2.365  23.353  0.00  0.00    +0.000 HD
ENDBRANCH  11  14
ENDBRANCH   4   6
BRANCH   1  22
ATOM     19  C   UNL     1      -0.668  11.605  22.226  0.00  0.00    +0.000 A 
ATOM     20  C   UNL     1       0.014  12.225  21.174  0.00  0.00    +0.000 A 
ATOM     21  C   UNL     1       0.692  11.454  20.224  0.00  0.00    +0.000 A 
ATOM     22  C   UNL     1       0.698  10.054  20.304  0.00  0.00    +0.000 A 
ATOM     23  C   UNL     1       0.045   9.448  21.389  0.00  0.00    +0.000 A 
ATOM     24  C   UNL     1      -0.642  10.213  22.338  0.00  0.00    +0.000 A 
BRANCH  19  26
ATOM     25  C   UNL     1      -2.817  12.078  23.556  0.00  0.00    +0.000 C 
ATOM     26  C   UNL     1      -1.403  12.457  23.198  0.00  0.00    +0.000 C 
ATOM     27  O   UNL     1      -0.864  13.461  23.657  0.00  0.00    +0.000 OA
ENDBRANCH  19  26
ENDBRANCH   1  22
TORSDOF 4
ENDMDL
MODEL 6
REMARK VINA RESULT:      -7.8      1.357      1.773
REMARK  Name = 
REMARK  5 active torsions:
REMARK  status: ('A' for Active; 'I' for Inactive)
REMARK    1  A    between atoms: C_1  and  C_2
REMARK    2  A    between atoms: C_2  and  C_4
REMARK    3  A    between atoms: C_7  and  C_8
REMARK    4  A    between atoms: C_11  and  C_12
REMARK    5  A    between atoms: C_17  and  C_18
REMARK                            x       y       z     vdW  Elec       q    Type
REMARK                         _______ _______ _______ _____ _____    ______ ____
ROOT
ATOM      1  C   UNL     1       3.012   5.415  18.907  0.00  0.00    +0.000 A 
ATOM      2  C   UNL     1       2.205   4.535  19.600  0.00  0.00    +0.000 A 
ATOM      3  C   UNL     1       1.411   5.315  20.475  0.00  0.00    +0.000 A 
ATOM      4  C   UNL     1       1.803   6.630  20.311  0.00  0.00    +0.000 A 
ATOM      5  O   UNL     1       2.752   6.687  19.328  0.00  0.00    +0.000 OA
ENDROOT
BRANCH   4   6
ATOM      6  C   UNL     1       1.298   7.842  20.926  0.00  0.00    +0.000 C 
ATOM      7  O   UNL     1       0.919   7.830  22.103  0.00  0.00    +0.000 OA
ATOM      8  N   UNL     1       1.280   9.037  20.191  0.00  0.00    +0.000 N 
ATOM      9  C   UNL     1       0.888  10.276  20.861  0.00  0.00    +0.000 C 
ATOM     10  C   UNL     1      -0.104  11.069  20.009  0.00  0.00    +0.000 C 
ATOM     11  C   UNL     1       0.426  11.302  18.586  0.00  0.00    +0.000 C 
ATOM     12  C   UNL     1       0.857   9.968  17.966  0.00  0.00    +0.000 C 
ATOM     13  C   UNL     1       1.848   9.220  18.855  0.00  0.00    +0.000 C 
BRANCH  11  14
ATOM     14  C   UNL     1       1.543  12.336  18.569  0.00  0.00    +0.000 C 
ATOM     15  N   UNL     1       2.342  12.331  17.460  0.00  0.00    +0.000 N 
ATOM     16  O   UNL     1       1.770  13.123  19.478  0.00  0.00    +0.000 OA
ATOM     17  H   UNL     1       2.235  11.685  16.689  0.00  0.00    +0.000 HD
ATOM     18  H   UNL     1       3.097  12.999  17.437  0.00  0.00    +0.000 HD
ENDBRANCH  11  14
ENDBRANCH   4   6
BRANCH   1  22
ATOM     19  C   UNL     1       5.695   4.988  15.603  0.00  0.00    +0.000 A 
ATOM     20  C   UNL     1       5.223   3.860  16.281  0.00  0.00    +0.000 A 
ATOM     21  C   UNL     1       4.376   4.006  17.384  0.00  0.00    +0.000 A 
ATOM     22  C   UNL     1       3.982   5.278  17.825  0.00  0.00    +0.000 A 
ATOM     23  C   UNL     1       4.498   6.402  17.161  0.00  0.00    +0.000 A 
ATOM     24  C   UNL     1       5.340   6.262  16.052  0.00  0.00    +0.000 A 
BRANCH  19  26
ATOM     25  C   UNL     1       6.129   3.815  13.356  0.00  0.00    +0.000 C 
ATOM     26  C   UNL     1       6.569   4.791  14.416  0.00  0.00    +0.000 C 
ATOM     27  O   UNL     1       7.638   5.392  14.340  0.00  0.00    +0.000 OA
ENDBRANCH  19  26
ENDBRANCH   1  22
TORSDOF 4
ENDMDL
MODEL 7
REMARK VINA RESULT:      -7.7      1.211      1.284
REMARK  Name = 
REMARK  5 active torsions:
REMARK  status: ('A' for Active; 'I' for Inactive)
REMARK    1  A    between atoms: C_1  and  C_2
REMARK    2  A    between atoms: C_2  and  C_4
REMARK    3  A    between atoms: C_7  and  C_8
REMARK    4  A    between atoms: C_11  and  C_12
REMARK    5  A    between atoms: C_17  and  C_18
REMARK                            x       y       z     vdW  Elec       q    Type
REMARK                         _______ _______ _______ _____ _____    ______ ____
ROOT
ATOM      1  C   UNL     1       2.798   5.634  19.018  0.00  0.00    +0.000 A 
ATOM      2  C   UNL     1       2.033   4.800  19.809  0.00  0.00    +0.000 A 
ATOM      3  C   UNL     1       1.323   5.632  20.708  0.00  0.00    +0.000 A 
ATOM      4  C   UNL     1       1.723   6.931  20.456  0.00  0.00    +0.000 A 
ATOM      5  O   UNL     1       2.593   6.927  19.401  0.00  0.00    +0.000 OA
ENDROOT
BRANCH   4   6
ATOM      6  C   UNL     1       1.287   8.178  21.055  0.00  0.00    +0.000 C 
ATOM      7  O   UNL     1       1.002   8.223  22.257  0.00  0.00    +0.000 OA
ATOM      8  N   UNL     1       1.231   9.340  20.271  0.00  0.00    +0.000 N 
ATOM      9  C   UNL     1       0.913  10.614  20.915  0.00  0.00    +0.000 C 
ATOM     10  C   UNL     1      -0.130  11.390  20.110  0.00  0.00    +0.000 C 
ATOM     11  C   UNL     1       0.289  11.551  18.640  0.00  0.00    +0.000 C 
ATOM     12  C   UNL     1       0.648  10.183  18.048  0.00  0.00    +0.000 C 
ATOM     13  C   UNL     1       1.694   9.455  18.888  0.00  0.00    +0.000 C 
BRANCH  11  14
ATOM     14  C   UNL     1       1.417  12.561  18.490  0.00  0.00    +0.000 C 
ATOM     15  N   UNL     1       2.306  12.315  17.481  0.00  0.00    +0.000 N 
ATOM     16  O   UNL     1       1.579  13.530  19.219  0.00  0.00    +0.000 OA
ATOM     17  H   UNL     1       2.255  11.514  16.866  0.00  0.00    +0.000 HD
ATOM     18  H   UNL     1       3.070  12.965  17.376  0.00  0.00    +0.000 HD
ENDBRANCH  11  14
ENDBRANCH   4   6
BRANCH   1  22
ATOM     19  C   UNL     1       5.539   5.047  15.786  0.00  0.00    +0.000 A 
ATOM     20  C   UNL     1       5.220   6.338  16.217  0.00  0.00    +0.000 A 
ATOM     21  C   UNL     1       4.294   6.526  17.249  0.00  0.00    +0.000 A 
ATOM     22  C   UNL     1       3.677   5.431  17.871  0.00  0.00    +0.000 A 
ATOM     23  C   UNL     1       3.976   4.143  17.399  0.00  0.00    +0.000 A 
ATOM     24  C   UNL     1       4.906   3.948  16.372  0.00  0.00    +0.000 A 
BRANCH  19  26
ATOM     25  C   UNL     1       6.263   3.908  13.597  0.00  0.00    +0.000 C 
ATOM     26  C   UNL     1       6.550   4.886  14.708  0.00  0.00    +0.000 C 
ATOM     27  O   UNL     1       7.603   5.516  14.760  0.00  0.00    +0.000 OA
ENDBRANCH  19  26
ENDBRANCH   1  22
TORSDOF 4
ENDMDL
MODEL 8
REMARK VINA RESULT:      -7.7      3.024      8.954
REMARK  Name = 
REMARK  5 active torsions:
REMARK  status: ('A' for Active; 'I' for Inactive)
REMARK    1  A    between atoms: C_1  and  C_2
REMARK    2  A    between atoms: C_2  and  C_4
REMARK    3  A    between atoms: C_7  and  C_8
REMARK    4  A    between atoms: C_11  and  C_12
REMARK    5  A    between atoms: C_17  and  C_18
REMARK                            x       y       z     vdW  Elec       q    Type
REMARK                         _______ _______ _______ _____ _____    ______ ____
ROOT
ATOM      1  C   UNL     1       1.033   8.465  20.822  0.00  0.00    +0.000 A 
ATOM      2  C   UNL     1       1.268   7.150  21.173  0.00  0.00    +0.000 A 
ATOM      3  C   UNL     1       2.061   6.592  20.142  0.00  0.00    +0.000 A 
ATOM      4  C   UNL     1       2.234   7.576  19.188  0.00  0.00    +0.000 A 
ATOM      5  O   UNL     1       1.636   8.725  19.627  0.00  0.00    +0.000 OA
ENDROOT
BRANCH   4   6
ATOM      6  C   UNL     1       2.991   7.559  17.950  0.00  0.00    +0.000 C 
ATOM      7  O   UNL     1       2.774   8.410  17.079  0.00  0.00    +0.000 OA
ATOM      8  N   UNL     1       3.996   6.599  17.765  0.00  0.00    +0.000 N 
ATOM      9  C   UNL     1       4.835   6.672  16.570  0.00  0.00    +0.000 C 
ATOM     10  C   UNL     1       4.984   5.296  15.920  0.00  0.00    +0.000 C 
ATOM     11  C   UNL     1       5.468   4.240  16.925  0.00  0.00    +0.000 C 
ATOM     12  C   UNL     1       4.568   4.253  18.167  0.00  0.00    +0.000 C 
ATOM     13  C   UNL     1       4.458   5.648  18.777  0.00  0.00    +0.000 C 
BRANCH  11  14
ATOM     14  C   UNL     1       6.937   4.433  17.272  0.00  0.00    +0.000 C 
ATOM     15  N   UNL     1       7.777   4.639  16.213  0.00  0.00    +0.000 N 
ATOM     16  O   UNL     1       7.391   4.384  18.407  0.00  0.00    +0.000 OA
ATOM     17  H   UNL     1       7.476   4.653  15.248  0.00  0.00    +0.000 HD
ATOM     18  H   UNL     1       8.756   4.753  16.422  0.00  0.00    +0.000 HD
ENDBRANCH  11  14
ENDBRANCH   4   6
BRANCH   1  22
ATOM     19  C   UNL     1      -1.087  11.726  22.604  0.00  0.00    +0.000 A 
ATOM     20  C   UNL     1      -0.397  11.904  21.401  0.00  0.00    +0.000 A 
ATOM     21  C   UNL     1       0.326  10.845  20.842  0.00  0.00    +0.000 A 
ATOM     22  C   UNL     1       0.367   9.591  21.469  0.00  0.00    +0.000 A 
ATOM     23  C   UNL     1      -0.296   9.440  22.697  0.00  0.00    +0.000 A 
ATOM     24  C   UNL     1      -1.026  10.494  23.258  0.00  0.00    +0.000 A 
BRANCH  19  26
ATOM     25  C   UNL     1      -1.135  14.134  23.507  0.00  0.00    +0.000 C 
ATOM     26  C   UNL     1      -1.869  12.866  23.151  0.00  0.00    +0.000 C 
ATOM     27  O   UNL     1      -3.077  12.744  23.336  0.00  0.00    +0.000 OA
ENDBRANCH  19  26
ENDBRANCH   1  22
TORSDOF 4
ENDMDL
MODEL 9
REMARK VINA RESULT:      -7.7      2.903      8.929
REMARK  Name = 
REMARK  5 active torsions:
REMARK  status: ('A' for Active; 'I' for Inactive)
REMARK    1  A    between atoms: C_1  and  C_2
REMARK    2  A    between atoms: C_2  and  C_4
REMARK    3  A    between atoms: C_7  and  C_8
REMARK    4  A    between atoms: C_11  and  C_12
REMARK    5  A    between atoms: C_17  and  C_18
REMARK                            x       y       z     vdW  Elec       q    Type
REMARK                         _______ _______ _______ _____ _____    ______ ____
ROOT
ATOM      1  C   UNL     1       1.163   9.408  19.319  0.00  0.00    +0.000 A 
ATOM      2  C   UNL     1       1.324   9.402  17.948  0.00  0.00    +0.000 A 
ATOM      3  C   UNL     1       2.081   8.247  17.634  0.00  0.00    +0.000 A 
ATOM      4  C   UNL     1       2.387   7.628  18.831  0.00  0.00    +0.000 A 
ATOM      5  O   UNL     1       1.793   8.320  19.850  0.00  0.00    +0.000 OA
ENDROOT
BRANCH   4   6
ATOM      6  C   UNL     1       3.105   6.395  19.091  0.00  0.00    +0.000 C 
ATOM      7  O   UNL     1       2.703   5.615  19.963  0.00  0.00    +0.000 OA
ATOM      8  N   UNL     1       4.231   6.072  18.320  0.00  0.00    +0.000 N 
ATOM      9  C   UNL     1       4.869   4.770  18.506  0.00  0.00    +0.000 C 
ATOM     10  C   UNL     1       6.388   4.911  18.604  0.00  0.00    +0.000 C 
ATOM     11  C   UNL     1       6.965   5.693  17.414  0.00  0.00    +0.000 C 
ATOM     12  C   UNL     1       6.219   7.024  17.255  0.00  0.00    +0.000 C 
ATOM     13  C   UNL     1       4.709   6.824  17.159  0.00  0.00    +0.000 C 
BRANCH  11  14
ATOM     14  C   UNL     1       6.945   4.863  16.139  0.00  0.00    +0.000 C 
ATOM     15  N   UNL     1       6.377   3.624  16.244  0.00  0.00    +0.000 N 
ATOM     16  O   UNL     1       7.422   5.224  15.072  0.00  0.00    +0.000 OA
ATOM     17  H   UNL     1       5.998   3.247  17.104  0.00  0.00    +0.000 HD
ATOM     18  H   UNL     1       6.368   3.052  15.414  0.00  0.00    +0.000 HD
ENDBRANCH  11  14
ENDBRANCH   4   6
BRANCH   1  22
ATOM     19  C   UNL     1      -0.800  11.899  22.191  0.00  0.00    +0.000 A 
ATOM     20  C   UNL     1      -0.767  10.512  22.363  0.00  0.00    +0.000 A 
ATOM     21  C   UNL     1      -0.157   9.698  21.402  0.00  0.00    +0.000 A 
ATOM     22  C   UNL     1       0.434  10.254  20.259  0.00  0.00    +0.000 A 
ATOM     23  C   UNL     1       0.357  11.644  20.079  0.00  0.00    +0.000 A 
ATOM     24  C   UNL     1      -0.246  12.464  21.040  0.00  0.00    +0.000 A 
BRANCH  19  26
ATOM     25  C   UNL     1      -2.824  12.383  23.701  0.00  0.00    +0.000 C 
ATOM     26  C   UNL     1      -1.430  12.733  23.248  0.00  0.00    +0.000 C 
ATOM     27  O   UNL     1      -0.825  13.702  23.702  0.00  0.00    +0.000 OA
ENDBRANCH  19  26
ENDBRANCH   1  22
TORSDOF 4
ENDMDL
