MODEL 1
REMARK VINA RESULT:      -7.3      0.000      0.000
REMARK  Name = 
REMARK  5 active torsions:
REMARK  status: ('A' for Active; 'I' for Inactive)
REMARK    1  A    between atoms: C_1  and  C_2
REMARK    2  A    between atoms: C_5  and  C_6
REMARK    3  A    between atoms: N_8  and  C_9
REMARK    4  A    between atoms: C_9  and  C_10
REMARK    5  A    between atoms: N_12  and  C_13
REMARK                            x       y       z     vdW  Elec       q    Type
REMARK                         _______ _______ _______ _____ _____    ______ ____
ROOT
ATOM      1  C   UNL     1       3.373   4.292  20.320  0.00  0.00    +0.000 C 
ENDROOT
BRANCH   1   4
ATOM      2  C   UNL     1       5.331   4.618  18.826  0.00  0.00    +0.000 C 
ATOM      3  O   UNL     1       6.102   4.839  19.753  0.00  0.00    +0.000 OA
ATOM      4  N   UNL     1       4.000   4.348  19.010  0.00  0.00    +0.000 N 
ATOM      5  H   UNL     1       3.422   4.154  18.191  0.00  0.00    +0.000 HD
BRANCH   2  10
ATOM      6  C   UNL     1       7.245   4.715  13.473  0.00  0.00    +0.000 C 
ATOM      7  C   UNL     1       6.725   4.681  14.876  0.00  0.00    +0.000 A 
ATOM      8  C   UNL     1       5.372   4.489  15.158  0.00  0.00    +0.000 A 
ATOM      9  N   UNL     1       4.870   4.456  16.420  0.00  0.00    +0.000 NA
ATOM     10  C   UNL     1       5.794   4.629  17.407  0.00  0.00    +0.000 A 
ATOM     11  C   UNL     1       7.139   4.820  17.135  0.00  0.00    +0.000 A 
ATOM     12  N   UNL     1       7.632   4.852  15.869  0.00  0.00    +0.000 NA
ENDBRANCH   2  10
ENDBRANCH   1   4
BRANCH   1  13
ATOM     13  C   UNL     1       2.209   5.283  20.337  0.00  0.00    +0.000 C 
ATOM     14  O   UNL     1       1.051   4.872  20.392  0.00  0.00    +0.000 OA
ATOM     15  N   UNL     1       2.588   6.616  20.286  0.00  0.00    +0.000 N 
ATOM     16  H   UNL     1       3.546   6.835  20.027  0.00  0.00    +0.000 HD
BRANCH  15  17
ATOM     17  C   UNL     1       1.709   7.729  20.390  0.00  0.00    +0.000 A 
ATOM     18  C   UNL     1       0.966   7.974  21.554  0.00  0.00    +0.000 A 
ATOM     19  C   UNL     1       0.091   9.060  21.640  0.00  0.00    +0.000 A 
ATOM     20  C   UNL     1      -0.043   9.934  20.569  0.00  0.00    +0.000 A 
ATOM     21  C   UNL     1       0.706   9.726  19.411  0.00  0.00    +0.000 A 
ATOM     22  C   UNL     1       1.579   8.634  19.324  0.00  0.00    +0.000 A 
ATOM     23 BR   UNL     1       2.537   8.400  17.699  0.00  0.00    +0.000 Br
ENDBRANCH  15  17
ENDBRANCH   1  13
TORSDOF 4
ENDMDL
MODEL 2
REMARK VINA RESULT:      -7.1      3.139      7.565
REMARK  Name = 
REMARK  5 active torsions:
REMARK  status: ('A' for Active; 'I' for Inactive)
REMARK    1  A    between atoms: C_1  and  C_2
REMARK    2  A    between atoms: C_5  and  C_6
REMARK    3  A    between atoms: N_8  and  C_9
REMARK    4  A    between atoms: C_9  and  C_10
REMARK    5  A    between atoms: N_12  and  C_13
REMARK                            x       y       z     vdW  Elec       q    Type
REMARK                         _______ _______ _______ _____ _____    ______ ____
ROOT
ATOM      1  C   UNL     1       7.307   5.996  18.291  0.00  0.00    +0.000 C 
ENDROOT
BRANCH   1   4
ATOM      2  C   UNL     1       4.896   5.567  18.715  0.00  0.00    +0.000 C 
ATOM      3  O   UNL     1       4.524   6.307  17.811  0.00  0.00    +0.000 OA
ATOM      4  N   UNL     1       6.218   5.361  19.014  0.00  0.00    +0.000 N 
ATOM      5  H   UNL     1       6.454   4.715  19.769  0.00  0.00    +0.000 HD
BRANCH   2  10
ATOM      6  C   UNL     1       1.247   2.601  21.910  0.00  0.00    +0.000 C 
ATOM      7  C   UNL     1       2.201   3.397  21.076  0.00  0.00    +0.000 A 
ATOM      8  C   UNL     1       2.034   4.767  20.868  0.00  0.00    +0.000 A 
ATOM      9  N   UNL     1       2.881   5.516  20.115  0.00  0.00    +0.000 NA
ATOM     10  C   UNL     1       3.920   4.825  19.567  0.00  0.00    +0.000 A 
ATOM     11  C   UNL     1       4.094   3.466  19.770  0.00  0.00    +0.000 A 
ATOM     12  N   UNL     1       3.241   2.725  20.525  0.00  0.00    +0.000 NA
ENDBRANCH   2  10
ENDBRANCH   1   4
BRANCH   1  13
ATOM     13  C   UNL     1       7.558   5.203  17.008  0.00  0.00    +0.000 C 
ATOM     14  O   UNL     1       8.232   4.176  17.041  0.00  0.00    +0.000 OA
ATOM     15  N   UNL     1       6.974   5.747  15.873  0.00  0.00    +0.000 N 
ATOM     16  H   UNL     1       6.626   6.701  15.921  0.00  0.00    +0.000 HD
BRANCH  15  17
ATOM     17  C   UNL     1       6.971   5.154  14.581  0.00  0.00    +0.000 A 
ATOM     18  C   UNL     1       7.848   5.579  13.573  0.00  0.00    +0.000 A 
ATOM     19  C   UNL     1       7.825   5.002  12.301  0.00  0.00    +0.000 A 
ATOM     20  C   UNL     1       6.936   3.973  12.018  0.00  0.00    +0.000 A 
ATOM     21  C   UNL     1       6.072   3.515  13.012  0.00  0.00    +0.000 A 
ATOM     22  C   UNL     1       6.093   4.098  14.286  0.00  0.00    +0.000 A 
ATOM     23 BR   UNL     1       4.860   3.441  15.575  0.00  0.00    +0.000 Br
ENDBRANCH  15  17
ENDBRANCH   1  13
TORSDOF 4
ENDMDL
MODEL 3
REMARK VINA RESULT:      -7.1      3.620      4.259
REMARK  Name = 
REMARK  5 active torsions:
REMARK  status: ('A' for Active; 'I' for Inactive)
REMARK    1  A    between atoms: C_1  and  C_2
REMARK    2  A    between atoms: C_5  and  C_6
REMARK    3  A    between atoms: N_8  and  C_9
REMARK    4  A    between atoms: C_9  and  C_10
REMARK    5  A    between atoms: N_12  and  C_13
REMARK                            x       y       z     vdW  Elec       q    Type
REMARK                         _______ _______ _______ _____ _____    ______ ____
ROOT
ATOM      1  C   UNL     1       6.500   5.215  18.938  0.00  0.00    +0.000 C 
ENDROOT
BRANCH   1   4
ATOM      2  C   UNL     1       6.554   5.706  16.503  0.00  0.00    +0.000 C 
ATOM      3  O   UNL     1       6.413   6.914  16.663  0.00  0.00    +0.000 OA
ATOM      4  N   UNL     1       6.605   4.817  17.544  0.00  0.00    +0.000 N 
ATOM      5  H   UNL     1       6.744   3.827  17.336  0.00  0.00    +0.000 HD
BRANCH   2  10
ATOM      6  C   UNL     1       6.924   3.327  11.353  0.00  0.00    +0.000 C 
ATOM      7  C   UNL     1       6.838   3.967  12.703  0.00  0.00    +0.000 A 
ATOM      8  C   UNL     1       7.774   4.907  13.135  0.00  0.00    +0.000 A 
ATOM      9  N   UNL     1       7.725   5.503  14.355  0.00  0.00    +0.000 NA
ATOM     10  C   UNL     1       6.682   5.110  15.141  0.00  0.00    +0.000 A 
ATOM     11  C   UNL     1       5.748   4.179  14.719  0.00  0.00    +0.000 A 
ATOM     12  N   UNL     1       5.806   3.587  13.496  0.00  0.00    +0.000 NA
ENDBRANCH   2  10
ENDBRANCH   1   4
BRANCH   1  13
ATOM     13  C   UNL     1       5.035   5.106  19.360  0.00  0.00    +0.000 C 
ATOM     14  O   UNL     1       4.354   6.122  19.485  0.00  0.00    +0.000 OA
ATOM     15  N   UNL     1       4.592   3.809  19.574  0.00  0.00    +0.000 N 
ATOM     16  H   UNL     1       5.286   3.071  19.653  0.00  0.00    +0.000 HD
BRANCH  15  17
ATOM     17  C   UNL     1       3.255   3.432  19.874  0.00  0.00    +0.000 A 
ATOM     18  C   UNL     1       2.820   3.241  21.193  0.00  0.00    +0.000 A 
ATOM     19  C   UNL     1       1.508   2.852  21.475  0.00  0.00    +0.000 A 
ATOM     20  C   UNL     1       0.599   2.666  20.442  0.00  0.00    +0.000 A 
ATOM     21  C   UNL     1       1.000   2.876  19.124  0.00  0.00    +0.000 A 
ATOM     22  C   UNL     1       2.317   3.261  18.842  0.00  0.00    +0.000 A 
ATOM     23 BR   UNL     1       2.795   3.493  17.016  0.00  0.00    +0.000 Br
ENDBRANCH  15  17
ENDBRANCH   1  13
TORSDOF 4
ENDMDL
MODEL 4
REMARK VINA RESULT:      -7.0      3.056      4.550
REMARK  Name = 
REMARK  5 active torsions:
REMARK  status: ('A' for Active; 'I' for Inactive)
REMARK    1  A    between atoms: C_1  and  C_2
REMARK    2  A    between atoms: C_5  and  C_6
REMARK    3  A    between atoms: N_8  and  C_9
REMARK    4  A    between atoms: C_9  and  C_10
REMARK    5  A    between atoms: N_12  and  C_13
REMARK                            x       y       z     vdW  Elec       q    Type
REMARK                         _______ _______ _______ _____ _____    ______ ____
ROOT
ATOM      1  C   UNL     1       7.724   4.588  18.009  0.00  0.00    +0.000 C 
ENDROOT
BRANCH   1   4
ATOM      2  C   UNL     1       7.169   5.057  15.633  0.00  0.00    +0.000 C 
ATOM      3  O   UNL     1       7.618   6.198  15.670  0.00  0.00    +0.000 OA
ATOM      4  N   UNL     1       7.178   4.216  16.715  0.00  0.00    +0.000 N 
ATOM      5  H   UNL     1       6.804   3.272  16.605  0.00  0.00    +0.000 HD
BRANCH   2  10
ATOM      6  C   UNL     1       4.747   2.877  10.974  0.00  0.00    +0.000 C 
ATOM      7  C   UNL     1       5.399   3.458  12.190  0.00  0.00    +0.000 A 
ATOM      8  C   UNL     1       6.737   3.854  12.193  0.00  0.00    +0.000 A 
ATOM      9  N   UNL     1       7.356   4.382  13.281  0.00  0.00    +0.000 NA
ATOM     10  C   UNL     1       6.568   4.496  14.387  0.00  0.00    +0.000 A 
ATOM     11  C   UNL     1       5.239   4.107  14.392  0.00  0.00    +0.000 A 
ATOM     12  N   UNL     1       4.628   3.579  13.298  0.00  0.00    +0.000 NA
ENDBRANCH   2  10
ENDBRANCH   1   4
BRANCH   1  13
ATOM     13  C   UNL     1       6.574   4.659  19.014  0.00  0.00    +0.000 C 
ATOM     14  O   UNL     1       6.671   5.372  20.010  0.00  0.00    +0.000 OA
ATOM     15  N   UNL     1       5.479   3.872  18.690  0.00  0.00    +0.000 N 
ATOM     16  H   UNL     1       5.590   3.166  17.968  0.00  0.00    +0.000 HD
BRANCH  15  17
ATOM     17  C   UNL     1       4.248   3.838  19.401  0.00  0.00    +0.000 A 
ATOM     18  C   UNL     1       3.952   2.815  20.313  0.00  0.00    +0.000 A 
ATOM     19  C   UNL     1       2.732   2.780  20.992  0.00  0.00    +0.000 A 
ATOM     20  C   UNL     1       1.791   3.781  20.788  0.00  0.00    +0.000 A 
ATOM     21  C   UNL     1       2.074   4.823  19.907  0.00  0.00    +0.000 A 
ATOM     22  C   UNL     1       3.296   4.854  19.222  0.00  0.00    +0.000 A 
ATOM     23 BR   UNL     1       3.590   6.290  18.011  0.00  0.00    +0.000 Br
ENDBRANCH  15  17
ENDBRANCH   1  13
TORSDOF 4
ENDMDL
MODEL 5
REMARK VINA RESULT:      -7.0      3.068      7.608
REMARK  Name = 
REMARK  5 active torsions:
REMARK  status: ('A' for Active; 'I' for Inactive)
REMARK    1  A    between atoms: C_1  and  C_2
REMARK    2  A    between atoms: C_5  and  C_6
REMARK    3  A    between atoms: N_8  and  C_9
REMARK    4  A    between atoms: C_9  and  C_10
REMARK    5  A    between atoms: N_12  and  C_13
REMARK                            x       y       z     vdW  Elec       q    Type
REMARK                         _______ _______ _______ _____ _____    ______ ____
ROOT
ATOM      1  C   UNL     1       7.267   5.961  18.297  0.00  0.00    +0.000 C 
ENDROOT
BRANCH   1   4
ATOM      2  C   UNL     1       4.873   5.458  18.731  0.00  0.00    +0.000 C 
ATOM      3  O   UNL     1       4.472   6.209  17.848  0.00  0.00    +0.000 OA
ATOM      4  N   UNL     1       6.201   5.282  19.015  0.00  0.00    +0.000 N 
ATOM      5  H   UNL     1       6.462   4.625  19.752  0.00  0.00    +0.000 HD
BRANCH   2  10
ATOM      6  C   UNL     1       1.193   2.606  21.995  0.00  0.00    +0.000 C 
ATOM      7  C   UNL     1       2.168   3.341  21.129  0.00  0.00    +0.000 A 
ATOM      8  C   UNL     1       3.247   2.697  20.522  0.00  0.00    +0.000 A 
ATOM      9  N   UNL     1       4.150   3.337  19.732  0.00  0.00    +0.000 NA
ATOM     10  C   UNL     1       3.925   4.672  19.575  0.00  0.00    +0.000 A 
ATOM     11  C   UNL     1       2.855   5.318  20.173  0.00  0.00    +0.000 A 
ATOM     12  N   UNL     1       1.958   4.669  20.961  0.00  0.00    +0.000 NA
ENDBRANCH   2  10
ENDBRANCH   1   4
BRANCH   1  13
ATOM     13  C   UNL     1       7.544   5.190  17.006  0.00  0.00    +0.000 C 
ATOM     14  O   UNL     1       8.245   4.180  17.031  0.00  0.00    +0.000 OA
ATOM     15  N   UNL     1       6.950   5.730  15.875  0.00  0.00    +0.000 N 
ATOM     16  H   UNL     1       6.577   6.673  15.931  0.00  0.00    +0.000 HD
BRANCH  15  17
ATOM     17  C   UNL     1       6.969   5.151  14.576  0.00  0.00    +0.000 A 
ATOM     18  C   UNL     1       7.842   5.607  13.578  0.00  0.00    +0.000 A 
ATOM     19  C   UNL     1       7.839   5.044  12.300  0.00  0.00    +0.000 A 
ATOM     20  C   UNL     1       6.976   3.998  12.000  0.00  0.00    +0.000 A 
ATOM     21  C   UNL     1       6.117   3.510  12.983  0.00  0.00    +0.000 A 
ATOM     22  C   UNL     1       6.117   4.079  14.264  0.00  0.00    +0.000 A 
ATOM     23 BR   UNL     1       4.891   3.379  15.538  0.00  0.00    +0.000 Br
ENDBRANCH  15  17
ENDBRANCH   1  13
TORSDOF 4
ENDMDL
MODEL 6
REMARK VINA RESULT:      -6.9      2.994      4.456
REMARK  Name = 
REMARK  5 active torsions:
REMARK  status: ('A' for Active; 'I' for Inactive)
REMARK    1  A    between atoms: C_1  and  C_2
REMARK    2  A    between atoms: C_5  and  C_6
REMARK    3  A    between atoms: N_8  and  C_9
REMARK    4  A    between atoms: C_9  and  C_10
REMARK    5  A    between atoms: N_12  and  C_13
REMARK                            x       y       z     vdW  Elec       q    Type
REMARK                         _______ _______ _______ _____ _____    ______ ____
ROOT
ATOM      1  C   UNL     1       7.215   6.366  18.071  0.00  0.00    +0.000 C 
ENDROOT
BRANCH   1   4
ATOM      2  C   UNL     1       6.379   5.939  15.771  0.00  0.00    +0.000 C 
ATOM      3  O   UNL     1       5.488   6.777  15.853  0.00  0.00    +0.000 OA
ATOM      4  N   UNL     1       7.253   5.676  16.793  0.00  0.00    +0.000 N 
ATOM      5  H   UNL     1       7.983   4.977  16.646  0.00  0.00    +0.000 HD
BRANCH   2  10
ATOM      6  C   UNL     1       7.015   2.755  11.104  0.00  0.00    +0.000 C 
ATOM      7  C   UNL     1       6.859   3.605  12.325  0.00  0.00    +0.000 A 
ATOM      8  C   UNL     1       7.750   4.637  12.625  0.00  0.00    +0.000 A 
ATOM      9  N   UNL     1       7.636   5.425  13.726  0.00  0.00    +0.000 NA
ATOM     10  C   UNL     1       6.576   5.130  14.531  0.00  0.00    +0.000 A 
ATOM     11  C   UNL     1       5.687   4.109  14.240  0.00  0.00    +0.000 A 
ATOM     12  N   UNL     1       5.810   3.326  13.136  0.00  0.00    +0.000 NA
ENDBRANCH   2  10
ENDBRANCH   1   4
BRANCH   1  13
ATOM     13  C   UNL     1       6.388   5.527  19.046  0.00  0.00    +0.000 C 
ATOM     14  O   UNL     1       6.883   5.149  20.106  0.00  0.00    +0.000 OA
ATOM     15  N   UNL     1       5.096   5.258  18.620  0.00  0.00    +0.000 N 
ATOM     16  H   UNL     1       4.864   5.432  17.645  0.00  0.00    +0.000 HD
BRANCH  15  17
ATOM     17  C   UNL     1       4.098   4.589  19.380  0.00  0.00    +0.000 A 
ATOM     18  C   UNL     1       4.248   3.253  19.780  0.00  0.00    +0.000 A 
ATOM     19  C   UNL     1       3.253   2.599  20.511  0.00  0.00    +0.000 A 
ATOM     20  C   UNL     1       2.096   3.276  20.875  0.00  0.00    +0.000 A 
ATOM     21  C   UNL     1       1.936   4.612  20.512  0.00  0.00    +0.000 A 
ATOM     22  C   UNL     1       2.932   5.266  19.774  0.00  0.00    +0.000 A 
ATOM     23 BR   UNL     1       2.622   7.077  19.289  0.00  0.00    +0.000 Br
ENDBRANCH  15  17
ENDBRANCH   1  13
TORSDOF 4
ENDMDL
MODEL 7
REMARK VINA RESULT:      -6.9      0.704      1.117
REMARK  Name = 
REMARK  5 active torsions:
REMARK  status: ('A' for Active; 'I' for Inactive)
REMARK    1  A    between atoms: C_1  and  C_2
REMARK    2  A    between atoms: C_5  and  C_6
REMARK    3  A    between atoms: N_8  and  C_9
REMARK    4  A    between atoms: C_9  and  C_10
REMARK    5  A    between atoms: N_12  and  C_13
REMARK                            x       y       z     vdW  Elec       q    Type
REMARK                         _______ _______ _______ _____ _____    ______ ____
ROOT
ATOM      1  C   UNL     1       3.152   4.126  20.476  0.00  0.00    +0.000 C 
ENDROOT
BRANCH   1   4
ATOM      2  C   UNL     1       4.979   4.721  18.900  0.00  0.00    +0.000 C 
ATOM      3  O   UNL     1       5.600   5.365  19.738  0.00  0.00    +0.000 OA
ATOM      4  N   UNL     1       3.791   4.094  19.171  0.00  0.00    +0.000 N 
ATOM      5  H   UNL     1       3.338   3.559  18.428  0.00  0.00    +0.000 HD
BRANCH   2  10
ATOM      6  C   UNL     1       6.738   4.107  13.529  0.00  0.00    +0.000 C 
ATOM      7  C   UNL     1       6.292   4.276  14.947  0.00  0.00    +0.000 A 
ATOM      8  C   UNL     1       7.196   4.515  15.983  0.00  0.00    +0.000 A 
ATOM      9  N   UNL     1       6.821   4.671  17.280  0.00  0.00    +0.000 NA
ATOM     10  C   UNL     1       5.480   4.573  17.502  0.00  0.00    +0.000 A 
ATOM     11  C   UNL     1       4.576   4.337  16.479  0.00  0.00    +0.000 A 
ATOM     12  N   UNL     1       4.960   4.182  15.185  0.00  0.00    +0.000 NA
ENDBRANCH   2  10
ENDBRANCH   1   4
BRANCH   1  13
ATOM     13  C   UNL     1       2.062   5.198  20.452  0.00  0.00    +0.000 C 
ATOM     14  O   UNL     1       0.878   4.873  20.502  0.00  0.00    +0.000 OA
ATOM     15  N   UNL     1       2.537   6.499  20.370  0.00  0.00    +0.000 N 
ATOM     16  H   UNL     1       3.512   6.641  20.118  0.00  0.00    +0.000 HD
BRANCH  15  17
ATOM     17  C   UNL     1       1.740   7.674  20.433  0.00  0.00    +0.000 A 
ATOM     18  C   UNL     1       1.030   8.022  21.591  0.00  0.00    +0.000 A 
ATOM     19  C   UNL     1       0.234   9.169  21.637  0.00  0.00    +0.000 A 
ATOM     20  C   UNL     1       0.149  10.003  20.530  0.00  0.00    +0.000 A 
ATOM     21  C   UNL     1       0.867   9.693  19.376  0.00  0.00    +0.000 A 
ATOM     22  C   UNL     1       1.660   8.539  19.329  0.00  0.00    +0.000 A 
ATOM     23 BR   UNL     1       2.580   8.168  17.707  0.00  0.00    +0.000 Br
ENDBRANCH  15  17
ENDBRANCH   1  13
TORSDOF 4
ENDMDL
MODEL 8
REMARK VINA RESULT:      -6.9      3.804      8.031
REMARK  Name = 
REMARK  5 active torsions:
REMARK  status: ('A' for Active; 'I' for Inactive)
REMARK    1  A    between atoms: C_1  and  C_2
REMARK    2  A    between atoms: C_5  and  C_6
REMARK    3  A    between atoms: N_8  and  C_9
REMARK    4  A    between atoms: C_9  and  C_10
REMARK    5  A    between atoms: N_12  and  C_13
REMARK                            x       y       z     vdW  Elec       q    Type
REMARK                         _______ _______ _______ _____ _____    ______ ____
ROOT
ATOM      1  C   UNL     1       2.470   8.605  17.994  0.00  0.00    +0.000 C 
ENDROOT
BRANCH   1   4
ATOM      2  C   UNL     1       0.570  10.110  18.539  0.00  0.00    +0.000 C 
ATOM      3  O   UNL     1       1.205  10.738  19.379  0.00  0.00    +0.000 OA
ATOM      4  N   UNL     1       1.103   9.067  17.828  0.00  0.00    +0.000 N 
ATOM      5  H   UNL     1       0.520   8.601  17.130  0.00  0.00    +0.000 HD
BRANCH   2  10
ATOM      6  C   UNL     1      -4.854  11.457  17.497  0.00  0.00    +0.000 C 
ATOM      7  C   UNL     1      -3.425  11.094  17.754  0.00  0.00    +0.000 A 
ATOM      8  C   UNL     1      -2.753  10.148  16.980  0.00  0.00    +0.000 A 
ATOM      9  N   UNL     1      -1.457   9.796  17.191  0.00  0.00    +0.000 NA
ATOM     10  C   UNL     1      -0.852  10.441  18.228  0.00  0.00    +0.000 A 
ATOM     11  C   UNL     1      -1.512  11.383  19.000  0.00  0.00    +0.000 A 
ATOM     12  N   UNL     1      -2.809  11.727  18.782  0.00  0.00    +0.000 NA
ENDBRANCH   2  10
ENDBRANCH   1   4
BRANCH   1  13
ATOM     13  C   UNL     1       2.437   7.241  18.683  0.00  0.00    +0.000 C 
ATOM     14  O   UNL     1       2.141   7.160  19.874  0.00  0.00    +0.000 OA
ATOM     15  N   UNL     1       2.761   6.172  17.860  0.00  0.00    +0.000 N 
ATOM     16  H   UNL     1       3.194   6.370  16.962  0.00  0.00    +0.000 HD
BRANCH  15  17
ATOM     17  C   UNL     1       2.706   4.800  18.228  0.00  0.00    +0.000 A 
ATOM     18  C   UNL     1       1.547   4.033  18.043  0.00  0.00    +0.000 A 
ATOM     19  C   UNL     1       1.497   2.690  18.425  0.00  0.00    +0.000 A 
ATOM     20  C   UNL     1       2.614   2.083  18.984  0.00  0.00    +0.000 A 
ATOM     21  C   UNL     1       3.786   2.818  19.154  0.00  0.00    +0.000 A 
ATOM     22  C   UNL     1       3.833   4.166  18.775  0.00  0.00    +0.000 A 
ATOM     23 BR   UNL     1       5.458   5.108  19.073  0.00  0.00    +0.000 Br
ENDBRANCH  15  17
ENDBRANCH   1  13
TORSDOF 4
ENDMDL
MODEL 9
REMARK VINA RESULT:      -6.8      3.112      4.258
REMARK  Name = 
REMARK  5 active torsions:
REMARK  status: ('A' for Active; 'I' for Inactive)
REMARK    1  A    between atoms: C_1  and  C_2
REMARK    2  A    between atoms: C_5  and  C_6
REMARK    3  A    between atoms: N_8  and  C_9
REMARK    4  A    between atoms: C_9  and  C_10
REMARK    5  A    between atoms: N_12  and  C_13
REMARK                            x       y       z     vdW  Elec       q    Type
REMARK                         _______ _______ _______ _____ _____    ______ ____
ROOT
ATOM      1  C   UNL     1       4.795   7.017  17.565  0.00  0.00    +0.000 C 
ENDROOT
BRANCH   1   4
ATOM      2  C   UNL     1       6.432   6.002  15.995  0.00  0.00    +0.000 C 
ATOM      3  O   UNL     1       7.405   6.401  16.625  0.00  0.00    +0.000 OA
ATOM      4  N   UNL     1       5.140   6.256  16.377  0.00  0.00    +0.000 N 
ATOM      5  H   UNL     1       4.379   5.875  15.813  0.00  0.00    +0.000 HD
BRANCH   2  10
ATOM      6  C   UNL     1       6.913   2.843  11.293  0.00  0.00    +0.000 C 
ATOM      7  C   UNL     1       6.798   3.687  12.523  0.00  0.00    +0.000 A 
ATOM      8  C   UNL     1       7.705   4.709  12.805  0.00  0.00    +0.000 A 
ATOM      9  N   UNL     1       7.628   5.491  13.914  0.00  0.00    +0.000 NA
ATOM     10  C   UNL     1       6.588   5.200  14.746  0.00  0.00    +0.000 A 
ATOM     11  C   UNL     1       5.683   4.188  14.473  0.00  0.00    +0.000 A 
ATOM     12  N   UNL     1       5.768   3.412  13.361  0.00  0.00    +0.000 NA
ENDBRANCH   2  10
ENDBRANCH   1   4
BRANCH   1  13
ATOM     13  C   UNL     1       3.620   6.325  18.255  0.00  0.00    +0.000 C 
ATOM     14  O   UNL     1       2.483   6.779  18.138  0.00  0.00    +0.000 OA
ATOM     15  N   UNL     1       3.964   5.196  18.984  0.00  0.00    +0.000 N 
ATOM     16  H   UNL     1       4.947   5.036  19.189  0.00  0.00    +0.000 HD
BRANCH  15  17
ATOM     17  C   UNL     1       3.050   4.321  19.631  0.00  0.00    +0.000 A 
ATOM     18  C   UNL     1       2.706   4.480  20.981  0.00  0.00    +0.000 A 
ATOM     19  C   UNL     1       1.821   3.603  21.613  0.00  0.00    +0.000 A 
ATOM     20  C   UNL     1       1.247   2.559  20.900  0.00  0.00    +0.000 A 
ATOM     21  C   UNL     1       1.553   2.395  19.550  0.00  0.00    +0.000 A 
ATOM     22  C   UNL     1       2.444   3.273  18.919  0.00  0.00    +0.000 A 
ATOM     23 BR   UNL     1       2.837   2.961  17.085  0.00  0.00    +0.000 Br
ENDBRANCH  15  17
ENDBRANCH   1  13
TORSDOF 4
ENDMDL
