MODEL 1
REMARK VINA RESULT:      -6.5      0.000      0.000
REMARK  Name = 
REMARK  6 active torsions:
REMARK  status: ('A' for Active; 'I' for Inactive)
REMARK    1  A    between atoms: C_1  and  N_2
REMARK    2  A    between atoms: N_2  and  C_3
REMARK    3  A    between atoms: C_6  and  C_7
REMARK    4  A    between atoms: C_8  and  C_9
REMARK    5  A    between atoms: C_14  and  C_15
REMARK    6  A    between atoms: C_15  and  C_16
REMARK                            x       y       z     vdW  Elec       q    Type
REMARK                         _______ _______ _______ _____ _____    ______ ____
ROOT
ATOM      1  C   UNL     1       4.055   5.111  18.330  0.00  0.00    +0.000 C 
ATOM      2  O   UNL     1       4.145   6.094  19.064  0.00  0.00    +0.000 OA
ATOM      3  N   UNL     1       4.805   5.030  17.143  0.00  0.00    +0.000 N 
ATOM      4  C   UNL     1       4.727   3.943  16.166  0.00  0.00    +0.000 C 
ATOM      5  C   UNL     1       6.100   3.390  15.839  0.00  0.00    +0.000 C 
ATOM      6  C   UNL     1       7.033   4.482  15.302  0.00  0.00    +0.000 C 
ATOM      7  C   UNL     1       7.105   5.599  16.368  0.00  0.00    +0.000 C 
ATOM      8  C   UNL     1       5.724   6.122  16.800  0.00  0.00    +0.000 C 
ENDROOT
BRANCH   1  14
ATOM      9  C   UNL     1       3.637   2.843  19.468  0.00  0.00    +0.000 A 
ATOM     10  S   UNL     1       2.216   1.925  19.830  0.00  0.00    +0.000 S 
ATOM     11  N   UNL     1       1.163   2.828  18.956  0.00  0.00    +0.000 NA
ATOM     12  C   UNL     1       1.824   3.844  18.393  0.00  0.00    +0.000 A 
ATOM     13  C   UNL     1       1.035   4.742  17.501  0.00  0.00    +0.000 C 
ATOM     14  C   UNL     1       3.227   3.973  18.750  0.00  0.00    +0.000 A 
BRANCH   9  16
ATOM     15  C   UNL     1       5.121   1.470  20.876  0.00  0.00    +0.000 C 
ATOM     16  N   UNL     1       4.894   2.476  19.857  0.00  0.00    +0.000 N 
ATOM     17  H   UNL     1       5.690   3.072  19.642  0.00  0.00    +0.000 HD
ENDBRANCH   9  16
ENDBRANCH   1  14
BRANCH   6  18
ATOM     18  C   UNL     1       6.605   5.041  13.926  0.00  0.00    +0.000 C 
BRANCH  18  19
ATOM     19  C   UNL     1       6.268   4.006  12.874  0.00  0.00    +0.000 A 
ATOM     20  C   UNL     1       7.285   3.238  12.285  0.00  0.00    +0.000 A 
ATOM     21  C   UNL     1       6.981   2.251  11.344  0.00  0.00    +0.000 A 
ATOM     22  C   UNL     1       5.657   2.019  10.982  0.00  0.00    +0.000 A 
ATOM     23  C   UNL     1       4.639   2.779  11.553  0.00  0.00    +0.000 A 
ATOM     24  C   UNL     1       4.941   3.767  12.494  0.00  0.00    +0.000 A 
ENDBRANCH  18  19
ENDBRANCH   6  18
TORSDOF 4
ENDMDL
MODEL 2
REMARK VINA RESULT:      -6.3      0.127      1.013
REMARK  Name = 
REMARK  6 active torsions:
REMARK  status: ('A' for Active; 'I' for Inactive)
REMARK    1  A    between atoms: C_1  and  N_2
REMARK    2  A    between atoms: N_2  and  C_3
REMARK    3  A    between atoms: C_6  and  C_7
REMARK    4  A    between atoms: C_8  and  C_9
REMARK    5  A    between atoms: C_14  and  C_15
REMARK    6  A    between atoms: C_15  and  C_16
REMARK                            x       y       z     vdW  Elec       q    Type
REMARK                         _______ _______ _______ _____ _____    ______ ____
ROOT
ATOM      1  C   UNL     1       4.092   5.163  18.410  0.00  0.00    +0.000 C 
ATOM      2  O   UNL     1       4.188   6.152  19.136  0.00  0.00    +0.000 OA
ATOM      3  N   UNL     1       4.839   5.070  17.222  0.00  0.00    +0.000 N 
ATOM      4  C   UNL     1       4.753   3.976  16.253  0.00  0.00    +0.000 C 
ATOM      5  C   UNL     1       6.124   3.415  15.928  0.00  0.00    +0.000 C 
ATOM      6  C   UNL     1       7.060   4.499  15.381  0.00  0.00    +0.000 C 
ATOM      7  C   UNL     1       7.140   5.623  16.438  0.00  0.00    +0.000 C 
ATOM      8  C   UNL     1       5.763   6.155  16.869  0.00  0.00    +0.000 C 
ENDROOT
BRANCH   1  14
ATOM      9  C   UNL     1       3.658   2.923  19.596  0.00  0.00    +0.000 A 
ATOM     10  S   UNL     1       2.233   2.008  19.949  0.00  0.00    +0.000 S 
ATOM     11  N   UNL     1       1.197   2.884  19.028  0.00  0.00    +0.000 NA
ATOM     12  C   UNL     1       1.865   3.888  18.455  0.00  0.00    +0.000 A 
ATOM     13  C   UNL     1       1.094   4.759  17.523  0.00  0.00    +0.000 C 
ATOM     14  C   UNL     1       3.259   4.032  18.840  0.00  0.00    +0.000 A 
BRANCH   9  16
ATOM     15  C   UNL     1       5.144   1.382  20.816  0.00  0.00    +0.000 C 
ATOM     16  N   UNL     1       4.908   2.573  20.023  0.00  0.00    +0.000 N 
ATOM     17  H   UNL     1       5.658   3.259  20.025  0.00  0.00    +0.000 HD
ENDBRANCH   9  16
ENDBRANCH   1  14
BRANCH   6  18
ATOM     18  C   UNL     1       6.632   5.049  14.001  0.00  0.00    +0.000 C 
BRANCH  18  19
ATOM     19  C   UNL     1       6.235   4.009  12.975  0.00  0.00    +0.000 A 
ATOM     20  C   UNL     1       4.891   3.865  12.598  0.00  0.00    +0.000 A 
ATOM     21  C   UNL     1       4.519   2.938  11.621  0.00  0.00    +0.000 A 
ATOM     22  C   UNL     1       5.486   2.146  11.009  0.00  0.00    +0.000 A 
ATOM     23  C   UNL     1       6.823   2.274  11.379  0.00  0.00    +0.000 A 
ATOM     24  C   UNL     1       7.197   3.201  12.356  0.00  0.00    +0.000 A 
ENDBRANCH  18  19
ENDBRANCH   6  18
TORSDOF 4
ENDMDL
MODEL 3
REMARK VINA RESULT:      -6.2      1.603      2.478
REMARK  Name = 
REMARK  6 active torsions:
REMARK  status: ('A' for Active; 'I' for Inactive)
REMARK    1  A    between atoms: C_1  and  N_2
REMARK    2  A    between atoms: N_2  and  C_3
REMARK    3  A    between atoms: C_6  and  C_7
REMARK    4  A    between atoms: C_8  and  C_9
REMARK    5  A    between atoms: C_14  and  C_15
REMARK    6  A    between atoms: C_15  and  C_16
REMARK                            x       y       z     vdW  Elec       q    Type
REMARK                         _______ _______ _______ _____ _____    ______ ____
ROOT
ATOM      1  C   UNL     1       4.893   5.373  19.020  0.00  0.00    +0.000 C 
ATOM      2  O   UNL     1       5.647   6.029  19.739  0.00  0.00    +0.000 OA
ATOM      3  N   UNL     1       5.265   5.043  17.704  0.00  0.00    +0.000 N 
ATOM      4  C   UNL     1       4.424   4.328  16.743  0.00  0.00    +0.000 C 
ATOM      5  C   UNL     1       5.157   3.148  16.134  0.00  0.00    +0.000 C 
ATOM      6  C   UNL     1       6.452   3.588  15.440  0.00  0.00    +0.000 C 
ATOM      7  C   UNL     1       7.319   4.319  16.490  0.00  0.00    +0.000 C 
ATOM      8  C   UNL     1       6.579   5.464  17.203  0.00  0.00    +0.000 C 
ENDROOT
BRANCH   1  14
ATOM      9  C   UNL     1       2.514   5.589  19.971  0.00  0.00    +0.000 A 
ATOM     10  S   UNL     1       1.278   4.450  20.383  0.00  0.00    +0.000 S 
ATOM     11  N   UNL     1       2.195   3.098  20.243  0.00  0.00    +0.000 NA
ATOM     12  C   UNL     1       3.428   3.444  19.866  0.00  0.00    +0.000 A 
ATOM     13  C   UNL     1       4.426   2.342  19.751  0.00  0.00    +0.000 C 
ATOM     14  C   UNL     1       3.638   4.853  19.577  0.00  0.00    +0.000 A 
BRANCH   9  16
ATOM     15  C   UNL     1       2.269   7.762  18.835  0.00  0.00    +0.000 C 
ATOM     16  N   UNL     1       2.345   6.943  20.030  0.00  0.00    +0.000 N 
ATOM     17  H   UNL     1       2.531   7.444  20.895  0.00  0.00    +0.000 HD
ENDBRANCH   9  16
ENDBRANCH   1  14
BRANCH   6  18
ATOM     18  C   UNL     1       6.218   4.466  14.190  0.00  0.00    +0.000 C 
BRANCH  18  19
ATOM     19  C   UNL     1       5.731   3.735  12.957  0.00  0.00    +0.000 A 
ATOM     20  C   UNL     1       6.545   2.776  12.335  0.00  0.00    +0.000 A 
ATOM     21  C   UNL     1       6.090   2.066  11.222  0.00  0.00    +0.000 A 
ATOM     22  C   UNL     1       4.815   2.305  10.718  0.00  0.00    +0.000 A 
ATOM     23  C   UNL     1       3.999   3.260  11.320  0.00  0.00    +0.000 A 
ATOM     24  C   UNL     1       4.453   3.972  12.434  0.00  0.00    +0.000 A 
ENDBRANCH  18  19
ENDBRANCH   6  18
TORSDOF 4
ENDMDL
MODEL 4
REMARK VINA RESULT:      -6.2      1.769      2.438
REMARK  Name = 
REMARK  6 active torsions:
REMARK  status: ('A' for Active; 'I' for Inactive)
REMARK    1  A    between atoms: C_1  and  N_2
REMARK    2  A    between atoms: N_2  and  C_3
REMARK    3  A    between atoms: C_6  and  C_7
REMARK    4  A    between atoms: C_8  and  C_9
REMARK    5  A    between atoms: C_14  and  C_15
REMARK    6  A    between atoms: C_15  and  C_16
REMARK                            x       y       z     vdW  Elec       q    Type
REMARK                         _______ _______ _______ _____ _____    ______ ____
ROOT
ATOM      1  C   UNL     1       2.670   4.289  17.915  0.00  0.00    +0.000 C 
ATOM      2  O   UNL     1       1.708   4.447  17.163  0.00  0.00    +0.000 OA
ATOM      3  N   UNL     1       3.983   4.496  17.454  0.00  0.00    +0.000 N 
ATOM      4  C   UNL     1       5.198   4.273  18.239  0.00  0.00    +0.000 C 
ATOM      5  C   UNL     1       6.110   5.485  18.205  0.00  0.00    +0.000 C 
ATOM      6  C   UNL     1       6.498   5.856  16.770  0.00  0.00    +0.000 C 
ATOM      7  C   UNL     1       5.192   6.103  15.981  0.00  0.00    +0.000 C 
ATOM      8  C   UNL     1       4.196   4.934  16.069  0.00  0.00    +0.000 C 
ENDROOT
BRANCH   1  14
ATOM      9  C   UNL     1       2.359   2.704  19.916  0.00  0.00    +0.000 A 
ATOM     10  S   UNL     1       2.239   2.939  21.626  0.00  0.00    +0.000 S 
ATOM     11  N   UNL     1       2.100   4.572  21.596  0.00  0.00    +0.000 NA
ATOM     12  C   UNL     1       2.163   4.992  20.330  0.00  0.00    +0.000 A 
ATOM     13  C   UNL     1       1.987   6.455  20.101  0.00  0.00    +0.000 C 
ATOM     14  C   UNL     1       2.432   3.973  19.329  0.00  0.00    +0.000 A 
BRANCH   9  16
ATOM     15  C   UNL     1       3.559   0.986  18.619  0.00  0.00    +0.000 C 
ATOM     16  N   UNL     1       2.387   1.474  19.321  0.00  0.00    +0.000 N 
ATOM     17  H   UNL     1       1.520   0.981  19.125  0.00  0.00    +0.000 HD
ENDBRANCH   9  16
ENDBRANCH   1  14
BRANCH   6  18
ATOM     18  C   UNL     1       7.387   4.800  16.075  0.00  0.00    +0.000 C 
BRANCH  18  19
ATOM     19  C   UNL     1       7.192   4.658  14.580  0.00  0.00    +0.000 A 
ATOM     20  C   UNL     1       7.897   5.486  13.693  0.00  0.00    +0.000 A 
ATOM     21  C   UNL     1       7.756   5.336  12.311  0.00  0.00    +0.000 A 
ATOM     22  C   UNL     1       6.910   4.356  11.801  0.00  0.00    +0.000 A 
ATOM     23  C   UNL     1       6.198   3.533  12.670  0.00  0.00    +0.000 A 
ATOM     24  C   UNL     1       6.338   3.681  14.052  0.00  0.00    +0.000 A 
ENDBRANCH  18  19
ENDBRANCH   6  18
TORSDOF 4
ENDMDL
MODEL 5
REMARK VINA RESULT:      -6.2      1.433      1.532
REMARK  Name = 
REMARK  6 active torsions:
REMARK  status: ('A' for Active; 'I' for Inactive)
REMARK    1  A    between atoms: C_1  and  N_2
REMARK    2  A    between atoms: N_2  and  C_3
REMARK    3  A    between atoms: C_6  and  C_7
REMARK    4  A    between atoms: C_8  and  C_9
REMARK    5  A    between atoms: C_14  and  C_15
REMARK    6  A    between atoms: C_15  and  C_16
REMARK                            x       y       z     vdW  Elec       q    Type
REMARK                         _______ _______ _______ _____ _____    ______ ____
ROOT
ATOM      1  C   UNL     1       4.906   5.421  19.019  0.00  0.00    +0.000 C 
ATOM      2  O   UNL     1       5.673   6.067  19.732  0.00  0.00    +0.000 OA
ATOM      3  N   UNL     1       5.263   5.083  17.701  0.00  0.00    +0.000 N 
ATOM      4  C   UNL     1       4.406   4.379  16.747  0.00  0.00    +0.000 C 
ATOM      5  C   UNL     1       5.116   3.188  16.136  0.00  0.00    +0.000 C 
ATOM      6  C   UNL     1       6.413   3.607  15.433  0.00  0.00    +0.000 C 
ATOM      7  C   UNL     1       7.298   4.326  16.475  0.00  0.00    +0.000 C 
ATOM      8  C   UNL     1       6.580   5.483  17.191  0.00  0.00    +0.000 C 
ENDROOT
BRANCH   1  14
ATOM      9  C   UNL     1       3.335   3.600  19.929  0.00  0.00    +0.000 A 
ATOM     10  S   UNL     1       1.790   3.627  20.708  0.00  0.00    +0.000 S 
ATOM     11  N   UNL     1       1.460   5.212  20.449  0.00  0.00    +0.000 NA
ATOM     12  C   UNL     1       2.488   5.771  19.805  0.00  0.00    +0.000 A 
ATOM     13  C   UNL     1       2.338   7.205  19.423  0.00  0.00    +0.000 C 
ATOM     14  C   UNL     1       3.646   4.921  19.586  0.00  0.00    +0.000 A 
BRANCH   9  16
ATOM     15  C   UNL     1       3.634   1.418  18.825  0.00  0.00    +0.000 C 
ATOM     16  N   UNL     1       4.065   2.462  19.735  0.00  0.00    +0.000 N 
ATOM     17  H   UNL     1       4.781   2.194  20.405  0.00  0.00    +0.000 HD
ENDBRANCH   9  16
ENDBRANCH   1  14
BRANCH   6  18
ATOM     18  C   UNL     1       6.185   4.486  14.182  0.00  0.00    +0.000 C 
BRANCH  18  19
ATOM     19  C   UNL     1       5.716   3.754  12.943  0.00  0.00    +0.000 A 
ATOM     20  C   UNL     1       6.549   2.813  12.319  0.00  0.00    +0.000 A 
ATOM     21  C   UNL     1       6.112   2.102  11.199  0.00  0.00    +0.000 A 
ATOM     22  C   UNL     1       4.835   2.322  10.691  0.00  0.00    +0.000 A 
ATOM     23  C   UNL     1       4.000   3.259  11.295  0.00  0.00    +0.000 A 
ATOM     24  C   UNL     1       4.436   3.972  12.415  0.00  0.00    +0.000 A 
ENDBRANCH  18  19
ENDBRANCH   6  18
TORSDOF 4
ENDMDL
MODEL 6
REMARK VINA RESULT:      -6.1      4.953      8.600
REMARK  Name = 
REMARK  6 active torsions:
REMARK  status: ('A' for Active; 'I' for Inactive)
REMARK    1  A    between atoms: C_1  and  N_2
REMARK    2  A    between atoms: N_2  and  C_3
REMARK    3  A    between atoms: C_6  and  C_7
REMARK    4  A    between atoms: C_8  and  C_9
REMARK    5  A    between atoms: C_14  and  C_15
REMARK    6  A    between atoms: C_15  and  C_16
REMARK                            x       y       z     vdW  Elec       q    Type
REMARK                         _______ _______ _______ _____ _____    ______ ____
ROOT
ATOM      1  C   UNL     1       3.744   6.225  17.849  0.00  0.00    +0.000 C 
ATOM      2  O   UNL     1       4.225   6.435  16.736  0.00  0.00    +0.000 OA
ATOM      3  N   UNL     1       3.038   7.235  18.527  0.00  0.00    +0.000 N 
ATOM      4  C   UNL     1       2.484   7.119  19.877  0.00  0.00    +0.000 C 
ATOM      5  C   UNL     1       1.023   7.520  19.914  0.00  0.00    +0.000 C 
ATOM      6  C   UNL     1       0.821   8.954  19.410  0.00  0.00    +0.000 C 
ATOM      7  C   UNL     1       1.398   9.031  17.979  0.00  0.00    +0.000 C 
ATOM      8  C   UNL     1       2.853   8.540  17.879  0.00  0.00    +0.000 C 
ENDROOT
BRANCH   1  14
ATOM      9  C   UNL     1       4.942   4.285  19.036  0.00  0.00    +0.000 A 
ATOM     10  S   UNL     1       4.419   2.768  19.686  0.00  0.00    +0.000 S 
ATOM     11  N   UNL     1       2.905   2.791  19.058  0.00  0.00    +0.000 NA
ATOM     12  C   UNL     1       2.734   3.926  18.374  0.00  0.00    +0.000 A 
ATOM     13  C   UNL     1       1.428   4.094  17.674  0.00  0.00    +0.000 C 
ATOM     14  C   UNL     1       3.830   4.878  18.428  0.00  0.00    +0.000 A 
BRANCH   9  16
ATOM     15  C   UNL     1       7.140   4.763  18.030  0.00  0.00    +0.000 C 
ATOM     16  N   UNL     1       6.219   4.756  19.150  0.00  0.00    +0.000 N 
ATOM     17  H   UNL     1       6.643   4.869  20.068  0.00  0.00    +0.000 HD
ENDBRANCH   9  16
ENDBRANCH   1  14
BRANCH   6  18
ATOM     18  C   UNL     1       1.444  10.028  20.330  0.00  0.00    +0.000 C 
BRANCH  18  19
ATOM     19  C   UNL     1       0.492  10.695  21.299  0.00  0.00    +0.000 A 
ATOM     20  C   UNL     1       0.213  12.066  21.187  0.00  0.00    +0.000 A 
ATOM     21  C   UNL     1      -0.696  12.683  22.050  0.00  0.00    +0.000 A 
ATOM     22  C   UNL     1      -1.338  11.937  23.034  0.00  0.00    +0.000 A 
ATOM     23  C   UNL     1      -1.065  10.577  23.161  0.00  0.00    +0.000 A 
ATOM     24  C   UNL     1      -0.156   9.958  22.299  0.00  0.00    +0.000 A 
ENDBRANCH  18  19
ENDBRANCH   6  18
TORSDOF 4
ENDMDL
MODEL 7
REMARK VINA RESULT:      -6.1      5.832      7.438
REMARK  Name = 
REMARK  6 active torsions:
REMARK  status: ('A' for Active; 'I' for Inactive)
REMARK    1  A    between atoms: C_1  and  N_2
REMARK    2  A    between atoms: N_2  and  C_3
REMARK    3  A    between atoms: C_6  and  C_7
REMARK    4  A    between atoms: C_8  and  C_9
REMARK    5  A    between atoms: C_14  and  C_15
REMARK    6  A    between atoms: C_15  and  C_16
REMARK                            x       y       z     vdW  Elec       q    Type
REMARK                         _______ _______ _______ _____ _____    ______ ____
ROOT
ATOM      1  C   UNL     1       0.621  10.044  20.381  0.00  0.00    +0.000 C 
ATOM      2  O   UNL     1       0.227   9.811  21.523  0.00  0.00    +0.000 OA
ATOM      3  N   UNL     1       1.456   9.132  19.710  0.00  0.00    +0.000 N 
ATOM      4  C   UNL     1       2.035   9.336  18.381  0.00  0.00    +0.000 C 
ATOM      5  C   UNL     1       1.765   8.155  17.470  0.00  0.00    +0.000 C 
ATOM      6  C   UNL     1       2.313   6.851  18.063  0.00  0.00    +0.000 C 
ATOM      7  C   UNL     1       1.665   6.661  19.452  0.00  0.00    +0.000 C 
ATOM      8  C   UNL     1       1.832   7.880  20.377  0.00  0.00    +0.000 C 
ENDROOT
BRANCH   1  14
ATOM      9  C   UNL     1       0.559  12.562  19.862  0.00  0.00    +0.000 A 
ATOM     10  S   UNL     1      -0.230  13.520  18.656  0.00  0.00    +0.000 S 
ATOM     11  N   UNL     1      -1.200  12.339  18.062  0.00  0.00    +0.000 NA
ATOM     12  C   UNL     1      -0.954  11.202  18.717  0.00  0.00    +0.000 A 
ATOM     13  C   UNL     1      -1.795  10.025  18.354  0.00  0.00    +0.000 C 
ATOM     14  C   UNL     1       0.133  11.240  19.682  0.00  0.00    +0.000 A 
BRANCH   9  16
ATOM     15  C   UNL     1       2.658  13.742  20.384  0.00  0.00    +0.000 C 
ATOM     16  N   UNL     1       1.435  13.070  20.779  0.00  0.00    +0.000 N 
ATOM     17  H   UNL     1       1.393  12.767  21.748  0.00  0.00    +0.000 HD
ENDBRANCH   9  16
ENDBRANCH   1  14
BRANCH   6  18
ATOM     18  C   UNL     1       3.856   6.810  18.149  0.00  0.00    +0.000 C 
BRANCH  18  19
ATOM     19  C   UNL     1       4.544   5.891  17.163  0.00  0.00    +0.000 A 
ATOM     20  C   UNL     1       4.545   4.503  17.372  0.00  0.00    +0.000 A 
ATOM     21  C   UNL     1       5.140   3.641  16.448  0.00  0.00    +0.000 A 
ATOM     22  C   UNL     1       5.740   4.157  15.302  0.00  0.00    +0.000 A 
ATOM     23  C   UNL     1       5.752   5.533  15.086  0.00  0.00    +0.000 A 
ATOM     24  C   UNL     1       5.158   6.396  16.009  0.00  0.00    +0.000 A 
ENDBRANCH  18  19
ENDBRANCH   6  18
TORSDOF 4
ENDMDL
MODEL 8
REMARK VINA RESULT:      -6.1      4.896      8.524
REMARK  Name = 
REMARK  6 active torsions:
REMARK  status: ('A' for Active; 'I' for Inactive)
REMARK    1  A    between atoms: C_1  and  N_2
REMARK    2  A    between atoms: N_2  and  C_3
REMARK    3  A    between atoms: C_6  and  C_7
REMARK    4  A    between atoms: C_8  and  C_9
REMARK    5  A    between atoms: C_14  and  C_15
REMARK    6  A    between atoms: C_15  and  C_16
REMARK                            x       y       z     vdW  Elec       q    Type
REMARK                         _______ _______ _______ _____ _____    ______ ____
ROOT
ATOM      1  C   UNL     1       3.825   6.191  17.809  0.00  0.00    +0.000 C 
ATOM      2  O   UNL     1       4.350   6.388  16.713  0.00  0.00    +0.000 OA
ATOM      3  N   UNL     1       3.105   7.212  18.454  0.00  0.00    +0.000 N 
ATOM      4  C   UNL     1       2.499   7.110  19.782  0.00  0.00    +0.000 C 
ATOM      5  C   UNL     1       1.041   7.527  19.761  0.00  0.00    +0.000 C 
ATOM      6  C   UNL     1       0.874   8.960  19.240  0.00  0.00    +0.000 C 
ATOM      7  C   UNL     1       1.505   9.021  17.832  0.00  0.00    +0.000 C 
ATOM      8  C   UNL     1       2.957   8.514  17.791  0.00  0.00    +0.000 C 
ENDROOT
BRANCH   1  14
ATOM      9  C   UNL     1       4.975   4.225  19.003  0.00  0.00    +0.000 A 
ATOM     10  S   UNL     1       4.412   2.731  19.671  0.00  0.00    +0.000 S 
ATOM     11  N   UNL     1       2.893   2.795  19.056  0.00  0.00    +0.000 NA
ATOM     12  C   UNL     1       2.750   3.928  18.364  0.00  0.00    +0.000 A 
ATOM     13  C   UNL     1       1.444   4.129  17.674  0.00  0.00    +0.000 C 
ATOM     14  C   UNL     1       3.875   4.847  18.400  0.00  0.00    +0.000 A 
BRANCH   9  16
ATOM     15  C   UNL     1       7.145   4.723  17.949  0.00  0.00    +0.000 C 
ATOM     16  N   UNL     1       6.266   4.658  19.101  0.00  0.00    +0.000 N 
ATOM     17  H   UNL     1       6.726   4.695  20.007  0.00  0.00    +0.000 HD
ENDBRANCH   9  16
ENDBRANCH   1  14
BRANCH   6  18
ATOM     18  C   UNL     1       1.473  10.033  20.176  0.00  0.00    +0.000 C 
BRANCH  18  19
ATOM     19  C   UNL     1       0.500  10.684  21.137  0.00  0.00    +0.000 A 
ATOM     20  C   UNL     1      -0.087   9.932  22.166  0.00  0.00    +0.000 A 
ATOM     21  C   UNL     1      -0.954  10.531  23.083  0.00  0.00    +0.000 A 
ATOM     22  C   UNL     1      -1.242  11.889  22.983  0.00  0.00    +0.000 A 
ATOM     23  C   UNL     1      -0.672  12.646  21.961  0.00  0.00    +0.000 A 
ATOM     24  C   UNL     1       0.195  12.048  21.043  0.00  0.00    +0.000 A 
ENDBRANCH  18  19
ENDBRANCH   6  18
TORSDOF 4
ENDMDL
MODEL 9
REMARK VINA RESULT:      -6.1      5.472      7.355
REMARK  Name = 
REMARK  6 active torsions:
REMARK  status: ('A' for Active; 'I' for Inactive)
REMARK    1  A    between atoms: C_1  and  N_2
REMARK    2  A    between atoms: N_2  and  C_3
REMARK    3  A    between atoms: C_6  and  C_7
REMARK    4  A    between atoms: C_8  and  C_9
REMARK    5  A    between atoms: C_14  and  C_15
REMARK    6  A    between atoms: C_15  and  C_16
REMARK                            x       y       z     vdW  Elec       q    Type
REMARK                         _______ _______ _______ _____ _____    ______ ____
ROOT
ATOM      1  C   UNL     1       0.453   9.624  20.366  0.00  0.00    +0.000 C 
ATOM      2  O   UNL     1      -0.004   9.364  21.479  0.00  0.00    +0.000 OA
ATOM      3  N   UNL     1       1.419   8.790  19.774  0.00  0.00    +0.000 N 
ATOM      4  C   UNL     1       2.077   9.038  18.491  0.00  0.00    +0.000 C 
ATOM      5  C   UNL     1       1.990   7.829  17.580  0.00  0.00    +0.000 C 
ATOM      6  C   UNL     1       2.611   6.588  18.232  0.00  0.00    +0.000 C 
ATOM      7  C   UNL     1       1.877   6.348  19.570  0.00  0.00    +0.000 C 
ATOM      8  C   UNL     1       1.858   7.584  20.486  0.00  0.00    +0.000 C 
ENDROOT
BRANCH   1  14
ATOM      9  C   UNL     1      -1.113  10.742  18.661  0.00  0.00    +0.000 A 
ATOM     10  S   UNL     1      -1.450  12.386  18.238  0.00  0.00    +0.000 S 
ATOM     11  N   UNL     1      -0.225  13.068  19.088  0.00  0.00    +0.000 NA
ATOM     12  C   UNL     1       0.450  12.109  19.726  0.00  0.00    +0.000 A 
ATOM     13  C   UNL     1       1.648  12.538  20.503  0.00  0.00    +0.000 C 
ATOM     14  C   UNL     1      -0.089  10.764  19.614  0.00  0.00    +0.000 A 
BRANCH   9  16
ATOM     15  C   UNL     1      -3.009   9.828  17.380  0.00  0.00    +0.000 C 
ATOM     16  N   UNL     1      -1.779   9.673  18.131  0.00  0.00    +0.000 N 
ATOM     17  H   UNL     1      -1.582   8.733  18.465  0.00  0.00    +0.000 HD
ENDBRANCH   9  16
ENDBRANCH   1  14
BRANCH   6  18
ATOM     18  C   UNL     1       4.139   6.694  18.435  0.00  0.00    +0.000 C 
BRANCH  18  19
ATOM     19  C   UNL     1       4.987   5.914  17.452  0.00  0.00    +0.000 A 
ATOM     20  C   UNL     1       6.305   6.315  17.182  0.00  0.00    +0.000 A 
ATOM     21  C   UNL     1       7.110   5.580  16.309  0.00  0.00    +0.000 A 
ATOM     22  C   UNL     1       6.609   4.435  15.697  0.00  0.00    +0.000 A 
ATOM     23  C   UNL     1       5.300   4.030  15.951  0.00  0.00    +0.000 A 
ATOM     24  C   UNL     1       4.493   4.764  16.824  0.00  0.00    +0.000 A 
ENDBRANCH  18  19
ENDBRANCH   6  18
TORSDOF 4
ENDMDL
