MODEL 1
REMARK VINA RESULT:      -7.9      0.000      0.000
REMARK  Name = 
REMARK  7 active torsions:
REMARK  status: ('A' for Active; 'I' for Inactive)
REMARK    1  A    between atoms: C_1  and  C_2
REMARK    2  A    between atoms: C_11  and  O_12
REMARK    3  A    between atoms: C_15  and  C_16
REMARK    4  A    between atoms: C_20  and  C_21
REMARK    5  A    between atoms: N_23  and  C_24
REMARK    6  A    between atoms: C_27  and  N_28
REMARK    7  A    between atoms: C_34  and  C_35
REMARK                            x       y       z     vdW  Elec       q    Type
REMARK                         _______ _______ _______ _____ _____    ______ ____
ROOT
ATOM      1  C   UNL     1      -0.069   9.270  18.422  0.00  0.00    +0.000 C 
ATOM      2  C   UNL     1       1.179   9.463  19.311  0.00  0.00    +0.000 C 
ATOM      3  C   UNL     1       2.471   9.325  18.486  0.00  0.00    +0.000 C 
ATOM      4  C   UNL     1       2.630   7.895  17.923  0.00  0.00    +0.000 C 
ATOM      5  C   UNL     1       2.477   6.756  18.972  0.00  0.00    +0.000 C 
ATOM      6  C   UNL     1       1.276   6.969  19.940  0.00  0.00    +0.000 C 
ATOM      7  C   UNL     1       1.347   5.954  21.093  0.00  0.00    +0.000 C 
ATOM      8  C   UNL     1       1.711   4.568  20.652  0.00  0.00    +0.000 C 
ATOM      9  C   UNL     1       2.201   4.250  19.441  0.00  0.00    +0.000 C 
ATOM     10  C   UNL     1       2.516   2.808  19.096  0.00  0.00    +0.000 C 
ATOM     11  C   UNL     1       3.920   2.646  18.508  0.00  0.00    +0.000 C 
ATOM     12  C   UNL     1       4.130   3.585  17.324  0.00  0.00    +0.000 C 
ATOM     13  C   UNL     1       3.878   5.038  17.728  0.00  0.00    +0.000 C 
ATOM     14  C   UNL     1       2.476   5.300  18.353  0.00  0.00    +0.000 C 
ATOM     15  C   UNL     1       1.388   5.145  17.264  0.00  0.00    +0.000 C 
ATOM     16  C   UNL     1       1.313   8.415  20.452  0.00  0.00    +0.000 C 
ATOM     17  C   UNL     1       0.335   8.876  21.532  0.00  0.00    +0.000 C 
ATOM     18  C   UNL     1       0.457  10.368  21.365  0.00  0.00    +0.000 C 
ATOM     19  C   UNL     1       0.960  10.699  20.165  0.00  0.00    +0.000 C 
ENDROOT
BRANCH  19  20
ATOM     20  C   UNL     1       1.254  12.008  19.684  0.00  0.00    +0.000 A 
ATOM     21  N   UNL     1       2.415  12.649  19.879  0.00  0.00    +0.000 NA
ATOM     22  N   UNL     1       2.285  13.837  19.226  0.00  0.00    +0.000 N 
ATOM     23  C   UNL     1       1.057  13.939  18.623  0.00  0.00    +0.000 A 
ATOM     24  C   UNL     1       0.378  12.768  18.870  0.00  0.00    +0.000 A 
BRANCH  22  25
ATOM     25  C   UNL     1       3.328  14.811  19.218  0.00  0.00    +0.000 A 
ATOM     26  C   UNL     1       3.254  15.920  20.073  0.00  0.00    +0.000 A 
ATOM     27  C   UNL     1       4.265  16.888  20.064  0.00  0.00    +0.000 A 
ATOM     28  C   UNL     1       5.358  16.745  19.200  0.00  0.00    +0.000 A 
ATOM     29  C   UNL     1       5.441  15.645  18.339  0.00  0.00    +0.000 A 
ATOM     30  C   UNL     1       4.431  14.678  18.354  0.00  0.00    +0.000 A 
BRANCH  28  31
ATOM     31  N   UNL     1       6.432  17.745  19.208  0.00  0.00    +0.000 N 
ATOM     32  O   UNL     1       7.309  17.656  18.336  0.00  0.00    +0.000 OA
ATOM     33  O   UNL     1       6.395  18.624  20.082  0.00  0.00    +0.000 OA
ENDBRANCH  28  31
ENDBRANCH  22  25
BRANCH  24  34
ATOM     34  C   UNL     1      -0.934  12.431  18.372  0.00  0.00    +0.000 C 
ATOM     35  O   UNL     1      -1.930  12.352  19.088  0.00  0.00    +0.000 OA
ENDBRANCH  24  34
ENDBRANCH  19  20
BRANCH  11  36
ATOM     36  O   UNL     1       4.126   1.299  18.086  0.00  0.00    +0.000 OA
ATOM     37  H   UNL     1       5.068   1.089  18.197  0.00  0.00    +0.000 HD
ENDBRANCH  11  36
TORSDOF 5
ENDMDL
MODEL 2
REMARK VINA RESULT:      -7.0      3.950      6.923
REMARK  Name = 
REMARK  7 active torsions:
REMARK  status: ('A' for Active; 'I' for Inactive)
REMARK    1  A    between atoms: C_1  and  C_2
REMARK    2  A    between atoms: C_11  and  O_12
REMARK    3  A    between atoms: C_15  and  C_16
REMARK    4  A    between atoms: C_20  and  C_21
REMARK    5  A    between atoms: N_23  and  C_24
REMARK    6  A    between atoms: C_27  and  N_28
REMARK    7  A    between atoms: C_34  and  C_35
REMARK                            x       y       z     vdW  Elec       q    Type
REMARK                         _______ _______ _______ _____ _____    ______ ____
ROOT
ATOM      1  C   UNL     1       2.130   9.948  21.459  0.00  0.00    +0.000 C 
ATOM      2  C   UNL     1       0.961   9.841  20.454  0.00  0.00    +0.000 C 
ATOM      3  C   UNL     1      -0.133   8.895  20.978  0.00  0.00    +0.000 C 
ATOM      4  C   UNL     1       0.386   7.446  21.104  0.00  0.00    +0.000 C 
ATOM      5  C   UNL     1       1.087   6.888  19.831  0.00  0.00    +0.000 C 
ATOM      6  C   UNL     1       2.070   7.902  19.175  0.00  0.00    +0.000 C 
ATOM      7  C   UNL     1       2.516   7.382  17.798  0.00  0.00    +0.000 C 
ATOM      8  C   UNL     1       2.837   5.918  17.784  0.00  0.00    +0.000 C 
ATOM      9  C   UNL     1       2.525   5.051  18.764  0.00  0.00    +0.000 C 
ATOM     10  C   UNL     1       2.919   3.593  18.653  0.00  0.00    +0.000 C 
ATOM     11  C   UNL     1       1.743   2.652  18.927  0.00  0.00    +0.000 C 
ATOM     12  C   UNL     1       1.084   2.974  20.265  0.00  0.00    +0.000 C 
ATOM     13  C   UNL     1       0.630   4.433  20.313  0.00  0.00    +0.000 C 
ATOM     14  C   UNL     1       1.759   5.469  20.030  0.00  0.00    +0.000 C 
ATOM     15  C   UNL     1       2.762   5.475  21.207  0.00  0.00    +0.000 C 
ATOM     16  C   UNL     1       1.368   9.262  19.069  0.00  0.00    +0.000 C 
ATOM     17  C   UNL     1       2.040  10.422  18.335  0.00  0.00    +0.000 C 
ATOM     18  C   UNL     1       1.224  11.569  18.870  0.00  0.00    +0.000 C 
ATOM     19  C   UNL     1       0.593  11.246  20.011  0.00  0.00    +0.000 C 
ENDROOT
BRANCH  19  20
ATOM     20  C   UNL     1      -0.296  12.064  20.767  0.00  0.00    +0.000 A 
ATOM     21  N   UNL     1      -1.536  11.708  21.130  0.00  0.00    +0.000 NA
ATOM     22  N   UNL     1      -2.011  12.753  21.862  0.00  0.00    +0.000 N 
ATOM     23  C   UNL     1      -1.078  13.754  21.962  0.00  0.00    +0.000 A 
ATOM     24  C   UNL     1       0.049  13.332  21.296  0.00  0.00    +0.000 A 
BRANCH  22  25
ATOM     25  C   UNL     1      -3.326  12.748  22.419  0.00  0.00    +0.000 A 
ATOM     26  C   UNL     1      -4.436  12.962  21.588  0.00  0.00    +0.000 A 
ATOM     27  C   UNL     1      -5.729  12.972  22.124  0.00  0.00    +0.000 A 
ATOM     28  C   UNL     1      -5.914  12.763  23.497  0.00  0.00    +0.000 A 
ATOM     29  C   UNL     1      -4.814  12.553  24.337  0.00  0.00    +0.000 A 
ATOM     30  C   UNL     1      -3.524  12.539  23.796  0.00  0.00    +0.000 A 
BRANCH  28  31
ATOM     31  N   UNL     1      -7.270  12.747  24.058  0.00  0.00    +0.000 N 
ATOM     32  O   UNL     1      -7.692  13.791  24.576  0.00  0.00    +0.000 OA
ATOM     33  O   UNL     1      -7.916  11.692  23.974  0.00  0.00    +0.000 OA
ENDBRANCH  28  31
ENDBRANCH  22  25
BRANCH  24  34
ATOM     34  C   UNL     1       1.294  14.057  21.199  0.00  0.00    +0.000 C 
ATOM     35  O   UNL     1       2.179  13.999  22.050  0.00  0.00    +0.000 OA
ENDBRANCH  24  34
ENDBRANCH  19  20
BRANCH  11  36
ATOM     36  O   UNL     1       2.186   1.296  18.933  0.00  0.00    +0.000 OA
ATOM     37  H   UNL     1       2.590   1.107  18.069  0.00  0.00    +0.000 HD
ENDBRANCH  11  36
TORSDOF 5
ENDMDL
MODEL 3
REMARK VINA RESULT:      -6.9      4.627     10.377
REMARK  Name = 
REMARK  7 active torsions:
REMARK  status: ('A' for Active; 'I' for Inactive)
REMARK    1  A    between atoms: C_1  and  C_2
REMARK    2  A    between atoms: C_11  and  O_12
REMARK    3  A    between atoms: C_15  and  C_16
REMARK    4  A    between atoms: C_20  and  C_21
REMARK    5  A    between atoms: N_23  and  C_24
REMARK    6  A    between atoms: C_27  and  N_28
REMARK    7  A    between atoms: C_34  and  C_35
REMARK                            x       y       z     vdW  Elec       q    Type
REMARK                         _______ _______ _______ _____ _____    ______ ____
ROOT
ATOM      1  C   UNL     1      -1.689  10.980  21.875  0.00  0.00    +0.000 C 
ATOM      2  C   UNL     1      -1.311  12.085  20.863  0.00  0.00    +0.000 C 
ATOM      3  C   UNL     1      -0.236  13.020  21.443  0.00  0.00    +0.000 C 
ATOM      4  C   UNL     1      -0.766  13.799  22.667  0.00  0.00    +0.000 C 
ATOM      5  C   UNL     1      -2.122  14.529  22.442  0.00  0.00    +0.000 C 
ATOM      6  C   UNL     1      -3.173  13.659  21.690  0.00  0.00    +0.000 C 
ATOM      7  C   UNL     1      -4.375  14.526  21.280  0.00  0.00    +0.000 C 
ATOM      8  C   UNL     1      -4.823  15.475  22.351  0.00  0.00    +0.000 C 
ATOM      9  C   UNL     1      -4.122  15.773  23.459  0.00  0.00    +0.000 C 
ATOM     10  C   UNL     1      -4.684  16.734  24.486  0.00  0.00    +0.000 C 
ATOM     11  C   UNL     1      -3.682  17.826  24.868  0.00  0.00    +0.000 C 
ATOM     12  C   UNL     1      -2.352  17.221  25.306  0.00  0.00    +0.000 C 
ATOM     13  C   UNL     1      -1.777  16.318  24.215  0.00  0.00    +0.000 C 
ATOM     14  C   UNL     1      -2.733  15.181  23.748  0.00  0.00    +0.000 C 
ATOM     15  C   UNL     1      -2.892  14.141  24.881  0.00  0.00    +0.000 C 
ATOM     16  C   UNL     1      -2.493  13.018  20.473  0.00  0.00    +0.000 C 
ATOM     17  C   UNL     1      -3.314  12.218  19.463  0.00  0.00    +0.000 C 
ATOM     18  C   UNL     1      -2.206  11.469  18.770  0.00  0.00    +0.000 C 
ATOM     19  C   UNL     1      -1.088  11.427  19.513  0.00  0.00    +0.000 C 
ENDROOT
BRANCH  19  20
ATOM     20  C   UNL     1       0.164  10.846  19.157  0.00  0.00    +0.000 A 
ATOM     21  N   UNL     1       0.451   9.540  19.249  0.00  0.00    +0.000 NA
ATOM     22  N   UNL     1       1.721   9.416  18.776  0.00  0.00    +0.000 N 
ATOM     23  C   UNL     1       2.226  10.631  18.385  0.00  0.00    +0.000 A 
ATOM     24  C   UNL     1       1.240  11.569  18.588  0.00  0.00    +0.000 A 
BRANCH  22  25
ATOM     25  C   UNL     1       2.388   8.155  18.727  0.00  0.00    +0.000 A 
ATOM     26  C   UNL     1       3.240   7.858  17.653  0.00  0.00    +0.000 A 
ATOM     27  C   UNL     1       3.889   6.619  17.588  0.00  0.00    +0.000 A 
ATOM     28  C   UNL     1       3.691   5.676  18.604  0.00  0.00    +0.000 A 
ATOM     29  C   UNL     1       2.841   5.959  19.679  0.00  0.00    +0.000 A 
ATOM     30  C   UNL     1       2.198   7.199  19.742  0.00  0.00    +0.000 A 
BRANCH  28  31
ATOM     31  N   UNL     1       4.392   4.387  18.551  0.00  0.00    +0.000 N 
ATOM     32  O   UNL     1       3.804   3.432  18.023  0.00  0.00    +0.000 OA
ATOM     33  O   UNL     1       5.533   4.331  19.032  0.00  0.00    +0.000 OA
ENDBRANCH  28  31
ENDBRANCH  22  25
BRANCH  24  34
ATOM     34  C   UNL     1       1.330  12.972  18.259  0.00  0.00    +0.000 C 
ATOM     35  O   UNL     1       2.361  13.510  17.861  0.00  0.00    +0.000 OA
ENDBRANCH  24  34
ENDBRANCH  19  20
BRANCH  11  36
ATOM     36  O   UNL     1      -4.206  18.630  25.924  0.00  0.00    +0.000 OA
ATOM     37  H   UNL     1      -5.176  18.576  25.891  0.00  0.00    +0.000 HD
ENDBRANCH  11  36
TORSDOF 5
ENDMDL
MODEL 4
REMARK VINA RESULT:      -6.9      4.402     10.601
REMARK  Name = 
REMARK  7 active torsions:
REMARK  status: ('A' for Active; 'I' for Inactive)
REMARK    1  A    between atoms: C_1  and  C_2
REMARK    2  A    between atoms: C_11  and  O_12
REMARK    3  A    between atoms: C_15  and  C_16
REMARK    4  A    between atoms: C_20  and  C_21
REMARK    5  A    between atoms: N_23  and  C_24
REMARK    6  A    between atoms: C_27  and  N_28
REMARK    7  A    between atoms: C_34  and  C_35
REMARK                            x       y       z     vdW  Elec       q    Type
REMARK                         _______ _______ _______ _____ _____    ______ ____
ROOT
ATOM      1  C   UNL     1      -1.844  11.856  19.173  0.00  0.00    +0.000 C 
ATOM      2  C   UNL     1      -1.048  12.118  20.471  0.00  0.00    +0.000 C 
ATOM      3  C   UNL     1      -1.831  11.639  21.706  0.00  0.00    +0.000 C 
ATOM      4  C   UNL     1      -3.134  12.447  21.896  0.00  0.00    +0.000 C 
ATOM      5  C   UNL     1      -2.956  13.993  21.875  0.00  0.00    +0.000 C 
ATOM      6  C   UNL     1      -2.015  14.489  20.738  0.00  0.00    +0.000 C 
ATOM      7  C   UNL     1      -1.686  15.977  20.942  0.00  0.00    +0.000 C 
ATOM      8  C   UNL     1      -2.870  16.805  21.343  0.00  0.00    +0.000 C 
ATOM      9  C   UNL     1      -4.049  16.310  21.761  0.00  0.00    +0.000 C 
ATOM     10  C   UNL     1      -5.186  17.243  22.122  0.00  0.00    +0.000 C 
ATOM     11  C   UNL     1      -5.796  16.913  23.487  0.00  0.00    +0.000 C 
ATOM     12  C   UNL     1      -6.203  15.444  23.564  0.00  0.00    +0.000 C 
ATOM     13  C   UNL     1      -5.013  14.532  23.269  0.00  0.00    +0.000 C 
ATOM     14  C   UNL     1      -4.315  14.803  21.903  0.00  0.00    +0.000 C 
ATOM     15  C   UNL     1      -5.253  14.380  20.749  0.00  0.00    +0.000 C 
ATOM     16  C   UNL     1      -0.750  13.621  20.738  0.00  0.00    +0.000 C 
ATOM     17  C   UNL     1       0.421  13.963  19.818  0.00  0.00    +0.000 C 
ATOM     18  C   UNL     1       1.164  12.654  19.853  0.00  0.00    +0.000 C 
ATOM     19  C   UNL     1       0.377  11.642  20.252  0.00  0.00    +0.000 C 
ENDROOT
BRANCH  19  20
ATOM     20  C   UNL     1       0.752  10.280  20.444  0.00  0.00    +0.000 A 
ATOM     21  N   UNL     1       1.356   9.519  19.520  0.00  0.00    +0.000 NA
ATOM     22  N   UNL     1       1.566   8.318  20.126  0.00  0.00    +0.000 N 
ATOM     23  C   UNL     1       1.104   8.325  21.417  0.00  0.00    +0.000 A 
ATOM     24  C   UNL     1       0.601   9.581  21.666  0.00  0.00    +0.000 A 
BRANCH  22  25
ATOM     25  C   UNL     1       2.186   7.228  19.444  0.00  0.00    +0.000 A 
ATOM     26  C   UNL     1       2.872   7.457  18.242  0.00  0.00    +0.000 A 
ATOM     27  C   UNL     1       3.473   6.394  17.557  0.00  0.00    +0.000 A 
ATOM     28  C   UNL     1       3.393   5.097  18.079  0.00  0.00    +0.000 A 
ATOM     29  C   UNL     1       2.708   4.854  19.275  0.00  0.00    +0.000 A 
ATOM     30  C   UNL     1       2.113   5.920  19.958  0.00  0.00    +0.000 A 
BRANCH  28  31
ATOM     31  N   UNL     1       4.046   3.985  17.376  0.00  0.00    +0.000 N 
ATOM     32  O   UNL     1       4.730   4.255  16.379  0.00  0.00    +0.000 OA
ATOM     33  O   UNL     1       3.878   2.842  17.826  0.00  0.00    +0.000 OA
ENDBRANCH  28  31
ENDBRANCH  22  25
BRANCH  24  34
ATOM     34  C   UNL     1       0.061  10.041  22.924  0.00  0.00    +0.000 C 
ATOM     35  O   UNL     1       0.440   9.623  24.016  0.00  0.00    +0.000 OA
ENDBRANCH  24  34
ENDBRANCH  19  20
BRANCH  11  36
ATOM     36  O   UNL     1      -6.938  17.733  23.730  0.00  0.00    +0.000 OA
ATOM     37  H   UNL     1      -6.976  18.410  23.033  0.00  0.00    +0.000 HD
ENDBRANCH  11  36
TORSDOF 5
ENDMDL
MODEL 5
REMARK VINA RESULT:      -6.8      4.924      9.350
REMARK  Name = 
REMARK  7 active torsions:
REMARK  status: ('A' for Active; 'I' for Inactive)
REMARK    1  A    between atoms: C_1  and  C_2
REMARK    2  A    between atoms: C_11  and  O_12
REMARK    3  A    between atoms: C_15  and  C_16
REMARK    4  A    between atoms: C_20  and  C_21
REMARK    5  A    between atoms: N_23  and  C_24
REMARK    6  A    between atoms: C_27  and  N_28
REMARK    7  A    between atoms: C_34  and  C_35
REMARK                            x       y       z     vdW  Elec       q    Type
REMARK                         _______ _______ _______ _____ _____    ______ ____
ROOT
ATOM      1  C   UNL     1       1.930  10.165  19.158  0.00  0.00    +0.000 C 
ATOM      2  C   UNL     1       0.978   9.093  19.735  0.00  0.00    +0.000 C 
ATOM      3  C   UNL     1      -0.139   8.752  18.733  0.00  0.00    +0.000 C 
ATOM      4  C   UNL     1      -1.057   9.967  18.476  0.00  0.00    +0.000 C 
ATOM      5  C   UNL     1      -1.606  10.658  19.758  0.00  0.00    +0.000 C 
ATOM      6  C   UNL     1      -0.526  10.851  20.864  0.00  0.00    +0.000 C 
ATOM      7  C   UNL     1      -1.194  11.293  22.176  0.00  0.00    +0.000 C 
ATOM      8  C   UNL     1      -2.260  12.330  21.988  0.00  0.00    +0.000 C 
ATOM      9  C   UNL     1      -2.804  12.669  20.806  0.00  0.00    +0.000 C 
ATOM     10  C   UNL     1      -3.864  13.749  20.732  0.00  0.00    +0.000 C 
ATOM     11  C   UNL     1      -5.096  13.300  19.941  0.00  0.00    +0.000 C 
ATOM     12  C   UNL     1      -4.702  12.777  18.563  0.00  0.00    +0.000 C 
ATOM     13  C   UNL     1      -3.690  11.638  18.680  0.00  0.00    +0.000 C 
ATOM     14  C   UNL     1      -2.404  11.996  19.483  0.00  0.00    +0.000 C 
ATOM     15  C   UNL     1      -1.557  13.009  18.678  0.00  0.00    +0.000 C 
ATOM     16  C   UNL     1       0.240   9.532  21.032  0.00  0.00    +0.000 C 
ATOM     17  C   UNL     1       1.272   9.376  22.148  0.00  0.00    +0.000 C 
ATOM     18  C   UNL     1       2.016   8.169  21.640  0.00  0.00    +0.000 C 
ATOM     19  C   UNL     1       1.826   7.980  20.324  0.00  0.00    +0.000 C 
ENDROOT
BRANCH  19  20
ATOM     20  C   UNL     1       2.336   6.918  19.522  0.00  0.00    +0.000 A 
ATOM     21  N   UNL     1       3.225   7.071  18.531  0.00  0.00    +0.000 NA
ATOM     22  N   UNL     1       3.463   5.815  18.064  0.00  0.00    +0.000 N 
ATOM     23  C   UNL     1       2.736   4.881  18.757  0.00  0.00    +0.000 A 
ATOM     24  C   UNL     1       2.022   5.552  19.723  0.00  0.00    +0.000 A 
BRANCH  22  25
ATOM     25  C   UNL     1       4.361   5.570  16.981  0.00  0.00    +0.000 A 
ATOM     26  C   UNL     1       4.918   6.650  16.280  0.00  0.00    +0.000 A 
ATOM     27  C   UNL     1       5.790   6.422  15.208  0.00  0.00    +0.000 A 
ATOM     28  C   UNL     1       6.111   5.110  14.839  0.00  0.00    +0.000 A 
ATOM     29  C   UNL     1       5.558   4.024  15.528  0.00  0.00    +0.000 A 
ATOM     30  C   UNL     1       4.691   4.256  16.601  0.00  0.00    +0.000 A 
BRANCH  28  31
ATOM     31  N   UNL     1       7.045   4.869  13.733  0.00  0.00    +0.000 N 
ATOM     32  O   UNL     1       8.065   5.571  13.676  0.00  0.00    +0.000 OA
ATOM     33  O   UNL     1       6.763   3.972  12.924  0.00  0.00    +0.000 OA
ENDBRANCH  28  31
ENDBRANCH  22  25
BRANCH  24  34
ATOM     34  C   UNL     1       1.164   4.945  20.714  0.00  0.00    +0.000 C 
ATOM     35  O   UNL     1       0.815   3.767  20.676  0.00  0.00    +0.000 OA
ENDBRANCH  24  34
ENDBRANCH  19  20
BRANCH  11  36
ATOM     36  O   UNL     1      -6.010  14.385  19.792  0.00  0.00    +0.000 OA
ATOM     37  H   UNL     1      -6.636  14.156  19.085  0.00  0.00    +0.000 HD
ENDBRANCH  11  36
TORSDOF 5
ENDMDL
MODEL 6
REMARK VINA RESULT:      -6.8      4.302     10.630
REMARK  Name = 
REMARK  7 active torsions:
REMARK  status: ('A' for Active; 'I' for Inactive)
REMARK    1  A    between atoms: C_1  and  C_2
REMARK    2  A    between atoms: C_11  and  O_12
REMARK    3  A    between atoms: C_15  and  C_16
REMARK    4  A    between atoms: C_20  and  C_21
REMARK    5  A    between atoms: N_23  and  C_24
REMARK    6  A    between atoms: C_27  and  N_28
REMARK    7  A    between atoms: C_34  and  C_35
REMARK                            x       y       z     vdW  Elec       q    Type
REMARK                         _______ _______ _______ _____ _____    ______ ____
ROOT
ATOM      1  C   UNL     1      -1.912  11.733  19.012  0.00  0.00    +0.000 C 
ATOM      2  C   UNL     1      -1.078  12.099  20.260  0.00  0.00    +0.000 C 
ATOM      3  C   UNL     1      -1.816  11.707  21.552  0.00  0.00    +0.000 C 
ATOM      4  C   UNL     1      -3.121  12.516  21.724  0.00  0.00    +0.000 C 
ATOM      5  C   UNL     1      -2.960  14.058  21.581  0.00  0.00    +0.000 C 
ATOM      6  C   UNL     1      -2.062  14.475  20.380  0.00  0.00    +0.000 C 
ATOM      7  C   UNL     1      -1.742  15.977  20.461  0.00  0.00    +0.000 C 
ATOM      8  C   UNL     1      -2.921  16.822  20.838  0.00  0.00    +0.000 C 
ATOM      9  C   UNL     1      -4.081  16.351  21.329  0.00  0.00    +0.000 C 
ATOM     10  C   UNL     1      -5.216  17.299  21.657  0.00  0.00    +0.000 C 
ATOM     11  C   UNL     1      -5.779  17.067  23.061  0.00  0.00    +0.000 C 
ATOM     12  C   UNL     1      -6.167  15.605  23.262  0.00  0.00    +0.000 C 
ATOM     13  C   UNL     1      -4.978  14.683  22.997  0.00  0.00    +0.000 C 
ATOM     14  C   UNL     1      -4.326  14.857  21.593  0.00  0.00    +0.000 C 
ATOM     15  C   UNL     1      -5.296  14.340  20.505  0.00  0.00    +0.000 C 
ATOM     16  C   UNL     1      -0.787  13.620  20.404  0.00  0.00    +0.000 C 
ATOM     17  C   UNL     1       0.350  13.902  19.424  0.00  0.00    +0.000 C 
ATOM     18  C   UNL     1       1.107  12.605  19.532  0.00  0.00    +0.000 C 
ATOM     19  C   UNL     1       0.344  11.619  20.031  0.00  0.00    +0.000 C 
ENDROOT
BRANCH  19  20
ATOM     20  C   UNL     1       0.740  10.279  20.312  0.00  0.00    +0.000 A 
ATOM     21  N   UNL     1       1.303   9.448  19.423  0.00  0.00    +0.000 NA
ATOM     22  N   UNL     1       1.553   8.301  20.112  0.00  0.00    +0.000 N 
ATOM     23  C   UNL     1       1.156   8.410  21.420  0.00  0.00    +0.000 A 
ATOM     24  C   UNL     1       0.656   9.680  21.593  0.00  0.00    +0.000 A 
BRANCH  22  25
ATOM     25  C   UNL     1       2.148   7.162  19.488  0.00  0.00    +0.000 A 
ATOM     26  C   UNL     1       2.051   5.903  20.100  0.00  0.00    +0.000 A 
ATOM     27  C   UNL     1       2.642   4.781  19.505  0.00  0.00    +0.000 A 
ATOM     28  C   UNL     1       3.327   4.918  18.291  0.00  0.00    +0.000 A 
ATOM     29  C   UNL     1       3.433   6.169  17.673  0.00  0.00    +0.000 A 
ATOM     30  C   UNL     1       2.838   7.286  18.269  0.00  0.00    +0.000 A 
BRANCH  28  31
ATOM     31  N   UNL     1       3.924   3.739  17.651  0.00  0.00    +0.000 N 
ATOM     32  O   UNL     1       3.825   2.653  18.240  0.00  0.00    +0.000 OA
ATOM     33  O   UNL     1       4.485   3.898  16.558  0.00  0.00    +0.000 OA
ENDBRANCH  28  31
ENDBRANCH  22  25
BRANCH  24  34
ATOM     34  C   UNL     1       0.176  10.237  22.836  0.00  0.00    +0.000 C 
ATOM     35  O   UNL     1       0.238   9.645  23.911  0.00  0.00    +0.000 OA
ENDBRANCH  24  34
ENDBRANCH  19  20
BRANCH  11  36
ATOM     36  O   UNL     1      -6.921  17.894  23.279  0.00  0.00    +0.000 OA
ATOM     37  H   UNL     1      -7.716  17.363  23.102  0.00  0.00    +0.000 HD
ENDBRANCH  11  36
TORSDOF 5
ENDMDL
MODEL 7
REMARK VINA RESULT:      -6.7      4.473     10.456
REMARK  Name = 
REMARK  7 active torsions:
REMARK  status: ('A' for Active; 'I' for Inactive)
REMARK    1  A    between atoms: C_1  and  C_2
REMARK    2  A    between atoms: C_11  and  O_12
REMARK    3  A    between atoms: C_15  and  C_16
REMARK    4  A    between atoms: C_20  and  C_21
REMARK    5  A    between atoms: N_23  and  C_24
REMARK    6  A    between atoms: C_27  and  N_28
REMARK    7  A    between atoms: C_34  and  C_35
REMARK                            x       y       z     vdW  Elec       q    Type
REMARK                         _______ _______ _______ _____ _____    ______ ____
ROOT
ATOM      1  C   UNL     1      -2.454  13.785  20.464  0.00  0.00    +0.000 C 
ATOM      2  C   UNL     1      -0.913  13.758  20.567  0.00  0.00    +0.000 C 
ATOM      3  C   UNL     1      -0.458  13.037  21.849  0.00  0.00    +0.000 C 
ATOM      4  C   UNL     1      -0.905  13.801  23.115  0.00  0.00    +0.000 C 
ATOM      5  C   UNL     1      -0.541  15.314  23.130  0.00  0.00    +0.000 C 
ATOM      6  C   UNL     1      -0.825  16.029  21.775  0.00  0.00    +0.000 C 
ATOM      7  C   UNL     1      -0.205  17.436  21.786  0.00  0.00    +0.000 C 
ATOM      8  C   UNL     1      -0.411  18.174  23.075  0.00  0.00    +0.000 C 
ATOM      9  C   UNL     1      -0.840  17.616  24.221  0.00  0.00    +0.000 C 
ATOM     10  C   UNL     1      -1.033  18.465  25.461  0.00  0.00    +0.000 C 
ATOM     11  C   UNL     1      -0.348  17.860  26.690  0.00  0.00    +0.000 C 
ATOM     12  C   UNL     1      -0.784  16.413  26.903  0.00  0.00    +0.000 C 
ATOM     13  C   UNL     1      -0.504  15.570  25.659  0.00  0.00    +0.000 C 
ATOM     14  C   UNL     1      -1.149  16.116  24.351  0.00  0.00    +0.000 C 
ATOM     15  C   UNL     1      -2.686  15.957  24.426  0.00  0.00    +0.000 C 
ATOM     16  C   UNL     1      -0.257  15.166  20.640  0.00  0.00    +0.000 C 
ATOM     17  C   UNL     1      -0.263  15.682  19.202  0.00  0.00    +0.000 C 
ATOM     18  C   UNL     1      -0.047  14.386  18.466  0.00  0.00    +0.000 C 
ATOM     19  C   UNL     1      -0.360  13.322  19.222  0.00  0.00    +0.000 C 
ENDROOT
BRANCH  19  20
ATOM     20  C   UNL     1      -0.236  11.946  18.870  0.00  0.00    +0.000 A 
ATOM     21  N   UNL     1       0.746  11.137  19.291  0.00  0.00    +0.000 NA
ATOM     22  N   UNL     1       0.461   9.918  18.756  0.00  0.00    +0.000 N 
ATOM     23  C   UNL     1      -0.690   9.958  18.012  0.00  0.00    +0.000 A 
ATOM     24  C   UNL     1      -1.183  11.240  18.087  0.00  0.00    +0.000 A 
BRANCH  22  25
ATOM     25  C   UNL     1       1.301   8.784  18.975  0.00  0.00    +0.000 A 
ATOM     26  C   UNL     1       2.053   8.258  17.914  0.00  0.00    +0.000 A 
ATOM     27  C   UNL     1       2.870   7.138  18.114  0.00  0.00    +0.000 A 
ATOM     28  C   UNL     1       2.939   6.545  19.381  0.00  0.00    +0.000 A 
ATOM     29  C   UNL     1       2.191   7.058  20.446  0.00  0.00    +0.000 A 
ATOM     30  C   UNL     1       1.379   8.179  20.243  0.00  0.00    +0.000 A 
BRANCH  28  31
ATOM     31  N   UNL     1       3.815   5.388  19.599  0.00  0.00    +0.000 N 
ATOM     32  O   UNL     1       3.329   4.394  20.158  0.00  0.00    +0.000 OA
ATOM     33  O   UNL     1       4.988   5.470  19.206  0.00  0.00    +0.000 OA
ENDBRANCH  28  31
ENDBRANCH  22  25
BRANCH  24  34
ATOM     34  C   UNL     1      -2.412  11.709  17.492  0.00  0.00    +0.000 C 
ATOM     35  O   UNL     1      -3.523  11.481  17.964  0.00  0.00    +0.000 OA
ENDBRANCH  24  34
ENDBRANCH  19  20
BRANCH  11  36
ATOM     36  O   UNL     1      -0.659  18.623  27.854  0.00  0.00    +0.000 OA
ATOM     37  H   UNL     1      -1.506  19.075  27.702  0.00  0.00    +0.000 HD
ENDBRANCH  11  36
TORSDOF 5
ENDMDL
MODEL 8
REMARK VINA RESULT:      -6.7      4.113     10.040
REMARK  Name = 
REMARK  7 active torsions:
REMARK  status: ('A' for Active; 'I' for Inactive)
REMARK    1  A    between atoms: C_1  and  C_2
REMARK    2  A    between atoms: C_11  and  O_12
REMARK    3  A    between atoms: C_15  and  C_16
REMARK    4  A    between atoms: C_20  and  C_21
REMARK    5  A    between atoms: N_23  and  C_24
REMARK    6  A    between atoms: C_27  and  N_28
REMARK    7  A    between atoms: C_34  and  C_35
REMARK                            x       y       z     vdW  Elec       q    Type
REMARK                         _______ _______ _______ _____ _____    ______ ____
ROOT
ATOM      1  C   UNL     1       0.395  12.697  21.246  0.00  0.00    +0.000 C 
ATOM      2  C   UNL     1      -0.530  11.480  21.024  0.00  0.00    +0.000 C 
ATOM      3  C   UNL     1      -1.417  11.680  19.783  0.00  0.00    +0.000 C 
ATOM      4  C   UNL     1      -2.393  12.863  19.972  0.00  0.00    +0.000 C 
ATOM      5  C   UNL     1      -3.222  12.824  21.288  0.00  0.00    +0.000 C 
ATOM      6  C   UNL     1      -2.375  12.443  22.538  0.00  0.00    +0.000 C 
ATOM      7  C   UNL     1      -3.301  12.174  23.736  0.00  0.00    +0.000 C 
ATOM      8  C   UNL     1      -4.417  13.166  23.867  0.00  0.00    +0.000 C 
ATOM      9  C   UNL     1      -4.780  14.048  22.918  0.00  0.00    +0.000 C 
ATOM     10  C   UNL     1      -5.913  15.021  23.169  0.00  0.00    +0.000 C 
ATOM     11  C   UNL     1      -6.938  15.023  22.031  0.00  0.00    +0.000 C 
ATOM     12  C   UNL     1      -6.261  15.255  20.684  0.00  0.00    +0.000 C 
ATOM     13  C   UNL     1      -5.175  14.209  20.431  0.00  0.00    +0.000 C 
ATOM     14  C   UNL     1      -4.091  14.122  21.546  0.00  0.00    +0.000 C 
ATOM     15  C   UNL     1      -3.222  15.401  21.524  0.00  0.00    +0.000 C 
ATOM     16  C   UNL     1      -1.522  11.216  22.193  0.00  0.00    +0.000 C 
ATOM     17  C   UNL     1      -0.689  10.526  23.272  0.00  0.00    +0.000 C 
ATOM     18  C   UNL     1       0.249   9.732  22.402  0.00  0.00    +0.000 C 
ATOM     19  C   UNL     1       0.310  10.222  21.153  0.00  0.00    +0.000 C 
ENDROOT
BRANCH  19  20
ATOM     20  C   UNL     1       1.055   9.699  20.056  0.00  0.00    +0.000 A 
ATOM     21  N   UNL     1       1.465   8.427  19.951  0.00  0.00    +0.000 NA
ATOM     22  N   UNL     1       2.098   8.351  18.748  0.00  0.00    +0.000 N 
ATOM     23  C   UNL     1       2.081   9.561  18.101  0.00  0.00    +0.000 A 
ATOM     24  C   UNL     1       1.392  10.444  18.899  0.00  0.00    +0.000 A 
BRANCH  22  25
ATOM     25  C   UNL     1       2.689   7.138  18.282  0.00  0.00    +0.000 A 
ATOM     26  C   UNL     1       2.092   5.907  18.593  0.00  0.00    +0.000 A 
ATOM     27  C   UNL     1       2.669   4.710  18.153  0.00  0.00    +0.000 A 
ATOM     28  C   UNL     1       3.846   4.744  17.394  0.00  0.00    +0.000 A 
ATOM     29  C   UNL     1       4.453   5.965  17.080  0.00  0.00    +0.000 A 
ATOM     30  C   UNL     1       3.870   7.159  17.518  0.00  0.00    +0.000 A 
BRANCH  28  31
ATOM     31  N   UNL     1       4.439   3.491  16.908  0.00  0.00    +0.000 N 
ATOM     32  O   UNL     1       5.354   3.572  16.077  0.00  0.00    +0.000 OA
ATOM     33  O   UNL     1       3.993   2.428  17.364  0.00  0.00    +0.000 OA
ENDBRANCH  28  31
ENDBRANCH  22  25
BRANCH  24  34
ATOM     34  C   UNL     1       1.091  11.819  18.575  0.00  0.00    +0.000 C 
ATOM     35  O   UNL     1       1.937  12.624  18.191  0.00  0.00    +0.000 OA
ENDBRANCH  24  34
ENDBRANCH  19  20
BRANCH  11  36
ATOM     36  O   UNL     1      -7.916  16.038  22.250  0.00  0.00    +0.000 OA
ATOM     37  H   UNL     1      -8.779  15.605  22.362  0.00  0.00    +0.000 HD
ENDBRANCH  11  36
TORSDOF 5
ENDMDL
MODEL 9
REMARK VINA RESULT:      -6.6      4.226      9.945
REMARK  Name = 
REMARK  7 active torsions:
REMARK  status: ('A' for Active; 'I' for Inactive)
REMARK    1  A    between atoms: C_1  and  C_2
REMARK    2  A    between atoms: C_11  and  O_12
REMARK    3  A    between atoms: C_15  and  C_16
REMARK    4  A    between atoms: C_20  and  C_21
REMARK    5  A    between atoms: N_23  and  C_24
REMARK    6  A    between atoms: C_27  and  N_28
REMARK    7  A    between atoms: C_34  and  C_35
REMARK                            x       y       z     vdW  Elec       q    Type
REMARK                         _______ _______ _______ _____ _____    ______ ____
ROOT
ATOM      1  C   UNL     1      -1.589   9.957  20.736  0.00  0.00    +0.000 C 
ATOM      2  C   UNL     1      -1.074  11.211  19.996  0.00  0.00    +0.000 C 
ATOM      3  C   UNL     1      -0.109  12.018  20.883  0.00  0.00    +0.000 C 
ATOM      4  C   UNL     1      -0.829  12.587  22.126  0.00  0.00    +0.000 C 
ATOM      5  C   UNL     1      -2.143  13.364  21.826  0.00  0.00    +0.000 C 
ATOM      6  C   UNL     1      -3.057  12.651  20.786  0.00  0.00    +0.000 C 
ATOM      7  C   UNL     1      -4.191  13.593  20.352  0.00  0.00    +0.000 C 
ATOM      8  C   UNL     1      -4.808  14.353  21.487  0.00  0.00    +0.000 C 
ATOM      9  C   UNL     1      -4.287  14.448  22.724  0.00  0.00    +0.000 C 
ATOM     10  C   UNL     1      -5.010  15.229  23.802  0.00  0.00    +0.000 C 
ATOM     11  C   UNL     1      -4.089  16.225  24.512  0.00  0.00    +0.000 C 
ATOM     12  C   UNL     1      -2.835  15.534  25.038  0.00  0.00    +0.000 C 
ATOM     13  C   UNL     1      -2.090  14.821  23.909  0.00  0.00    +0.000 C 
ATOM     14  C   UNL     1      -2.952  13.794  23.115  0.00  0.00    +0.000 C 
ATOM     15  C   UNL     1      -3.271  12.579  24.018  0.00  0.00    +0.000 C 
ATOM     16  C   UNL     1      -2.192  12.215  19.595  0.00  0.00    +0.000 C 
ATOM     17  C   UNL     1      -2.841  11.611  18.351  0.00  0.00    +0.000 C 
ATOM     18  C   UNL     1      -1.633  10.974  17.717  0.00  0.00    +0.000 C 
ATOM     19  C   UNL     1      -0.641  10.790  18.603  0.00  0.00    +0.000 C 
ENDROOT
BRANCH  19  20
ATOM     20  C   UNL     1       0.657  10.258  18.348  0.00  0.00    +0.000 A 
ATOM     21  N   UNL     1       0.930   8.954  18.196  0.00  0.00    +0.000 NA
ATOM     22  N   UNL     1       2.265   8.895  17.933  0.00  0.00    +0.000 N 
ATOM     23  C   UNL     1       2.824  10.147  17.915  0.00  0.00    +0.000 A 
ATOM     24  C   UNL     1       1.813  11.051  18.147  0.00  0.00    +0.000 A 
BRANCH  22  25
ATOM     25  C   UNL     1       2.936   7.653  17.721  0.00  0.00    +0.000 A 
ATOM     26  C   UNL     1       2.354   6.459  18.173  0.00  0.00    +0.000 A 
ATOM     27  C   UNL     1       3.009   5.237  17.982  0.00  0.00    +0.000 A 
ATOM     28  C   UNL     1       4.250   5.207  17.333  0.00  0.00    +0.000 A 
ATOM     29  C   UNL     1       4.843   6.391  16.882  0.00  0.00    +0.000 A 
ATOM     30  C   UNL     1       4.183   7.609  17.070  0.00  0.00    +0.000 A 
BRANCH  28  31
ATOM     31  N   UNL     1       4.927   3.923  17.109  0.00  0.00    +0.000 N 
ATOM     32  O   UNL     1       5.913   3.915  16.358  0.00  0.00    +0.000 OA
ATOM     33  O   UNL     1       4.475   2.924  17.687  0.00  0.00    +0.000 OA
ENDBRANCH  28  31
ENDBRANCH  22  25
BRANCH  24  34
ATOM     34  C   UNL     1       1.952  12.489  18.159  0.00  0.00    +0.000 C 
ATOM     35  O   UNL     1       2.934  13.070  18.617  0.00  0.00    +0.000 OA
ENDBRANCH  24  34
ENDBRANCH  19  20
BRANCH  11  36
ATOM     36  O   UNL     1      -4.777  16.846  25.597  0.00  0.00    +0.000 OA
ATOM     37  H   UNL     1      -4.631  16.309  26.394  0.00  0.00    +0.000 HD
ENDBRANCH  11  36
TORSDOF 5
ENDMDL
