MODEL 1
REMARK VINA RESULT:      -7.3      0.000      0.000
REMARK  Name = 
REMARK  6 active torsions:
REMARK  status: ('A' for Active; 'I' for Inactive)
REMARK    1  A    between atoms: C_2  and  C_3
REMARK    2  A    between atoms: C_2  and  O_12
REMARK    3  A    between atoms: C_3  and  C_4
REMARK    4  A    between atoms: O_12  and  C_13
REMARK    5  A    between atoms: C_13  and  C_14
REMARK    6  A    between atoms: C_14  and  C_16
REMARK                            x       y       z     vdW  Elec       q    Type
REMARK                         _______ _______ _______ _____ _____    ______ ____
ROOT
ATOM      1  O   UNL     1       4.700   6.769  16.078  0.00  0.00    +0.000 OA
ATOM      2  C   UNL     1       4.366   6.510  17.228  0.00  0.00    +0.000 C 
ENDROOT
BRANCH   2   3
ATOM      3  C   UNL     1       2.961   6.666  17.769  0.00  0.00    +0.000 C 
BRANCH   3   4
ATOM      4  C   UNL     1       2.573   5.585  18.756  0.00  0.00    +0.000 A 
ATOM      5  C   UNL     1       2.319   5.945  20.092  0.00  0.00    +0.000 A 
ATOM      6  C   UNL     1       1.953   4.981  21.035  0.00  0.00    +0.000 A 
ATOM      7  C   UNL     1       1.833   3.648  20.653  0.00  0.00    +0.000 A 
ATOM      8 CL   UNL     1       1.376   2.464  21.814  0.00  0.00    +0.000 Cl
ATOM      9  C   UNL     1       2.073   3.269  19.337  0.00  0.00    +0.000 A 
ATOM     10  C   UNL     1       2.437   4.235  18.390  0.00  0.00    +0.000 A 
ATOM     11 CL   UNL     1       2.714   3.697  16.772  0.00  0.00    +0.000 Cl
ENDBRANCH   3   4
ENDBRANCH   2   3
BRANCH   2  12
ATOM     12  O   UNL     1       5.208   6.057  18.197  0.00  0.00    +0.000 OA
BRANCH  12  13
ATOM     13  C   UNL     1       6.603   6.246  17.933  0.00  0.00    +0.000 C 
BRANCH  13  14
ATOM     14  C   UNL     1       7.273   5.004  17.335  0.00  0.00    +0.000 C 
ATOM     15  O   UNL     1       8.029   4.295  18.002  0.00  0.00    +0.000 OA
BRANCH  14  16
ATOM     16  C   UNL     1       6.941   4.663  15.959  0.00  0.00    +0.000 A 
ATOM     17  C   UNL     1       6.139   3.669  15.422  0.00  0.00    +0.000 A 
ATOM     18  C   UNL     1       6.196   3.777  14.008  0.00  0.00    +0.000 A 
ATOM     19  C   UNL     1       7.024   4.833  13.713  0.00  0.00    +0.000 A 
ATOM     20  N   UNL     1       7.459   5.370  14.894  0.00  0.00    +0.000 N 
ATOM     21  H   UNL     1       8.082   6.163  14.993  0.00  0.00    +0.000 HD
ENDBRANCH  14  16
ENDBRANCH  13  14
ENDBRANCH  12  13
ENDBRANCH   2  12
TORSDOF 6
ENDMDL
MODEL 2
REMARK VINA RESULT:      -7.1      2.206      3.708
REMARK  Name = 
REMARK  6 active torsions:
REMARK  status: ('A' for Active; 'I' for Inactive)
REMARK    1  A    between atoms: C_2  and  C_3
REMARK    2  A    between atoms: C_2  and  O_12
REMARK    3  A    between atoms: C_3  and  C_4
REMARK    4  A    between atoms: O_12  and  C_13
REMARK    5  A    between atoms: C_13  and  C_14
REMARK    6  A    between atoms: C_14  and  C_16
REMARK                            x       y       z     vdW  Elec       q    Type
REMARK                         _______ _______ _______ _____ _____    ______ ____
ROOT
ATOM      1  O   UNL     1       4.837   3.616  18.519  0.00  0.00    +0.000 OA
ATOM      2  C   UNL     1       4.135   3.850  17.543  0.00  0.00    +0.000 C 
ENDROOT
BRANCH   2   3
ATOM      3  C   UNL     1       2.665   4.207  17.608  0.00  0.00    +0.000 C 
BRANCH   3   4
ATOM      4  C   UNL     1       2.357   5.310  18.598  0.00  0.00    +0.000 A 
ATOM      5  C   UNL     1       2.528   6.648  18.199  0.00  0.00    +0.000 A 
ATOM      6  C   UNL     1       2.249   7.698  19.077  0.00  0.00    +0.000 A 
ATOM      7  C   UNL     1       1.795   7.423  20.364  0.00  0.00    +0.000 A 
ATOM      8 CL   UNL     1       1.448   8.717  21.443  0.00  0.00    +0.000 Cl
ATOM      9  C   UNL     1       1.614   6.108  20.780  0.00  0.00    +0.000 A 
ATOM     10  C   UNL     1       1.888   5.055  19.898  0.00  0.00    +0.000 A 
ATOM     11 CL   UNL     1       1.634   3.448  20.477  0.00  0.00    +0.000 Cl
ENDBRANCH   3   4
ENDBRANCH   2   3
BRANCH   2  12
ATOM     12  O   UNL     1       4.565   3.811  16.251  0.00  0.00    +0.000 OA
BRANCH  12  13
ATOM     13  C   UNL     1       5.888   4.313  16.032  0.00  0.00    +0.000 C 
BRANCH  13  14
ATOM     14  C   UNL     1       5.979   5.838  16.164  0.00  0.00    +0.000 C 
ATOM     15  O   UNL     1       5.302   6.588  15.459  0.00  0.00    +0.000 OA
BRANCH  14  16
ATOM     16  C   UNL     1       6.862   6.367  17.194  0.00  0.00    +0.000 A 
ATOM     17  C   UNL     1       7.482   7.597  17.335  0.00  0.00    +0.000 A 
ATOM     18  C   UNL     1       8.261   7.561  18.520  0.00  0.00    +0.000 A 
ATOM     19  C   UNL     1       8.098   6.316  19.078  0.00  0.00    +0.000 A 
ATOM     20  N   UNL     1       7.243   5.606  18.280  0.00  0.00    +0.000 N 
ATOM     21  H   UNL     1       6.933   4.654  18.439  0.00  0.00    +0.000 HD
ENDBRANCH  14  16
ENDBRANCH  13  14
ENDBRANCH  12  13
ENDBRANCH   2  12
TORSDOF 6
ENDMDL
MODEL 3
REMARK VINA RESULT:      -7.1      1.986      2.765
REMARK  Name = 
REMARK  6 active torsions:
REMARK  status: ('A' for Active; 'I' for Inactive)
REMARK    1  A    between atoms: C_2  and  C_3
REMARK    2  A    between atoms: C_2  and  O_12
REMARK    3  A    between atoms: C_3  and  C_4
REMARK    4  A    between atoms: O_12  and  C_13
REMARK    5  A    between atoms: C_13  and  C_14
REMARK    6  A    between atoms: C_14  and  C_16
REMARK                            x       y       z     vdW  Elec       q    Type
REMARK                         _______ _______ _______ _____ _____    ______ ____
ROOT
ATOM      1  O   UNL     1       7.214   5.239  19.430  0.00  0.00    +0.000 OA
ATOM      2  C   UNL     1       6.624   5.069  18.370  0.00  0.00    +0.000 C 
ENDROOT
BRANCH   2   3
ATOM      3  C   UNL     1       5.175   5.435  18.126  0.00  0.00    +0.000 C 
BRANCH   3   4
ATOM      4  C   UNL     1       4.211   4.721  19.048  0.00  0.00    +0.000 A 
ATOM      5  C   UNL     1       4.436   3.365  19.349  0.00  0.00    +0.000 A 
ATOM      6  C   UNL     1       3.574   2.668  20.200  0.00  0.00    +0.000 A 
ATOM      7  C   UNL     1       2.480   3.319  20.763  0.00  0.00    +0.000 A 
ATOM      8 CL   UNL     1       1.424   2.461  21.815  0.00  0.00    +0.000 Cl
ATOM      9  C   UNL     1       2.241   4.660  20.486  0.00  0.00    +0.000 A 
ATOM     10  C   UNL     1       3.106   5.361  19.636  0.00  0.00    +0.000 A 
ATOM     11 CL   UNL     1       2.753   7.025  19.340  0.00  0.00    +0.000 Cl
ENDBRANCH   3   4
ENDBRANCH   2   3
BRANCH   2  12
ATOM     12  O   UNL     1       7.175   4.513  17.256  0.00  0.00    +0.000 OA
BRANCH  12  13
ATOM     13  C   UNL     1       6.267   4.291  16.171  0.00  0.00    +0.000 C 
BRANCH  13  14
ATOM     14  C   UNL     1       6.869   4.648  14.806  0.00  0.00    +0.000 C 
ATOM     15  O   UNL     1       7.836   5.404  14.706  0.00  0.00    +0.000 OA
BRANCH  14  16
ATOM     16  C   UNL     1       6.282   4.017  13.633  0.00  0.00    +0.000 A 
ATOM     17  C   UNL     1       4.976   3.945  13.179  0.00  0.00    +0.000 A 
ATOM     18  C   UNL     1       4.967   3.174  11.988  0.00  0.00    +0.000 A 
ATOM     19  C   UNL     1       6.264   2.797  11.737  0.00  0.00    +0.000 A 
ATOM     20  N   UNL     1       7.053   3.320  12.726  0.00  0.00    +0.000 N 
ATOM     21  H   UNL     1       8.058   3.210  12.806  0.00  0.00    +0.000 HD
ENDBRANCH  14  16
ENDBRANCH  13  14
ENDBRANCH  12  13
ENDBRANCH   2  12
TORSDOF 6
ENDMDL
MODEL 4
REMARK VINA RESULT:      -7.0      2.207      2.896
REMARK  Name = 
REMARK  6 active torsions:
REMARK  status: ('A' for Active; 'I' for Inactive)
REMARK    1  A    between atoms: C_2  and  C_3
REMARK    2  A    between atoms: C_2  and  O_12
REMARK    3  A    between atoms: C_3  and  C_4
REMARK    4  A    between atoms: O_12  and  C_13
REMARK    5  A    between atoms: C_13  and  C_14
REMARK    6  A    between atoms: C_14  and  C_16
REMARK                            x       y       z     vdW  Elec       q    Type
REMARK                         _______ _______ _______ _____ _____    ______ ____
ROOT
ATOM      1  O   UNL     1       6.053   7.029  16.130  0.00  0.00    +0.000 OA
ATOM      2  C   UNL     1       5.764   5.978  16.689  0.00  0.00    +0.000 C 
ENDROOT
BRANCH   2   3
ATOM      3  C   UNL     1       5.799   5.765  18.187  0.00  0.00    +0.000 C 
BRANCH   3   4
ATOM      4  C   UNL     1       4.549   5.109  18.732  0.00  0.00    +0.000 A 
ATOM      5  C   UNL     1       4.638   3.808  19.259  0.00  0.00    +0.000 A 
ATOM      6  C   UNL     1       3.510   3.167  19.778  0.00  0.00    +0.000 A 
ATOM      7  C   UNL     1       2.281   3.820  19.778  0.00  0.00    +0.000 A 
ATOM      8 CL   UNL     1       0.895   3.031  20.422  0.00  0.00    +0.000 Cl
ATOM      9  C   UNL     1       2.169   5.108  19.267  0.00  0.00    +0.000 A 
ATOM     10  C   UNL     1       3.299   5.753  18.751  0.00  0.00    +0.000 A 
ATOM     11 CL   UNL     1       3.090   7.355  18.139  0.00  0.00    +0.000 Cl
ENDBRANCH   3   4
ENDBRANCH   2   3
BRANCH   2  12
ATOM     12  O   UNL     1       5.380   4.839  16.049  0.00  0.00    +0.000 OA
BRANCH  12  13
ATOM     13  C   UNL     1       6.447   4.058  15.497  0.00  0.00    +0.000 C 
BRANCH  13  14
ATOM     14  C   UNL     1       6.771   4.430  14.046  0.00  0.00    +0.000 C 
ATOM     15  O   UNL     1       7.635   5.264  13.771  0.00  0.00    +0.000 OA
BRANCH  14  16
ATOM     16  C   UNL     1       6.050   3.721  12.998  0.00  0.00    +0.000 A 
ATOM     17  C   UNL     1       4.768   3.872  12.494  0.00  0.00    +0.000 A 
ATOM     18  C   UNL     1       4.572   2.886  11.494  0.00  0.00    +0.000 A 
ATOM     19  C   UNL     1       5.734   2.159  11.404  0.00  0.00    +0.000 A 
ATOM     20  N   UNL     1       6.625   2.677  12.305  0.00  0.00    +0.000 N 
ATOM     21  H   UNL     1       7.570   2.346  12.464  0.00  0.00    +0.000 HD
ENDBRANCH  14  16
ENDBRANCH  13  14
ENDBRANCH  12  13
ENDBRANCH   2  12
TORSDOF 6
ENDMDL
MODEL 5
REMARK VINA RESULT:      -6.9      1.072      1.183
REMARK  Name = 
REMARK  6 active torsions:
REMARK  status: ('A' for Active; 'I' for Inactive)
REMARK    1  A    between atoms: C_2  and  C_3
REMARK    2  A    between atoms: C_2  and  O_12
REMARK    3  A    between atoms: C_3  and  C_4
REMARK    4  A    between atoms: O_12  and  C_13
REMARK    5  A    between atoms: C_13  and  C_14
REMARK    6  A    between atoms: C_14  and  C_16
REMARK                            x       y       z     vdW  Elec       q    Type
REMARK                         _______ _______ _______ _____ _____    ______ ____
ROOT
ATOM      1  O   UNL     1       3.731   7.458  17.976  0.00  0.00    +0.000 OA
ATOM      2  C   UNL     1       4.119   6.307  17.819  0.00  0.00    +0.000 C 
ENDROOT
BRANCH   2   3
ATOM      3  C   UNL     1       3.222   5.140  17.466  0.00  0.00    +0.000 C 
BRANCH   3   4
ATOM      4  C   UNL     1       2.690   4.403  18.677  0.00  0.00    +0.000 A 
ATOM      5  C   UNL     1       2.001   5.128  19.666  0.00  0.00    +0.000 A 
ATOM      6  C   UNL     1       1.488   4.486  20.796  0.00  0.00    +0.000 A 
ATOM      7  C   UNL     1       1.655   3.113  20.950  0.00  0.00    +0.000 A 
ATOM      8 CL   UNL     1       1.019   2.325  22.339  0.00  0.00    +0.000 Cl
ATOM      9  C   UNL     1       2.329   2.374  19.983  0.00  0.00    +0.000 A 
ATOM     10  C   UNL     1       2.839   3.015  18.848  0.00  0.00    +0.000 A 
ATOM     11 CL   UNL     1       3.658   2.037  17.683  0.00  0.00    +0.000 Cl
ENDBRANCH   3   4
ENDBRANCH   2   3
BRANCH   2  12
ATOM     12  O   UNL     1       5.411   5.899  17.951  0.00  0.00    +0.000 OA
BRANCH  12  13
ATOM     13  C   UNL     1       6.284   6.275  16.880  0.00  0.00    +0.000 C 
BRANCH  13  14
ATOM     14  C   UNL     1       7.122   5.104  16.353  0.00  0.00    +0.000 C 
ATOM     15  O   UNL     1       7.869   4.461  17.093  0.00  0.00    +0.000 OA
BRANCH  14  16
ATOM     16  C   UNL     1       6.964   4.748  14.950  0.00  0.00    +0.000 A 
ATOM     17  C   UNL     1       6.209   3.770  14.325  0.00  0.00    +0.000 A 
ATOM     18  C   UNL     1       6.456   3.850  12.931  0.00  0.00    +0.000 A 
ATOM     19  C   UNL     1       7.350   4.874  12.733  0.00  0.00    +0.000 A 
ATOM     20  N   UNL     1       7.642   5.420  13.954  0.00  0.00    +0.000 N 
ATOM     21  H   UNL     1       8.272   6.195  14.123  0.00  0.00    +0.000 HD
ENDBRANCH  14  16
ENDBRANCH  13  14
ENDBRANCH  12  13
ENDBRANCH   2  12
TORSDOF 6
ENDMDL
MODEL 6
REMARK VINA RESULT:      -6.9      2.464      3.766
REMARK  Name = 
REMARK  6 active torsions:
REMARK  status: ('A' for Active; 'I' for Inactive)
REMARK    1  A    between atoms: C_2  and  C_3
REMARK    2  A    between atoms: C_2  and  O_12
REMARK    3  A    between atoms: C_3  and  C_4
REMARK    4  A    between atoms: O_12  and  C_13
REMARK    5  A    between atoms: C_13  and  C_14
REMARK    6  A    between atoms: C_14  and  C_16
REMARK                            x       y       z     vdW  Elec       q    Type
REMARK                         _______ _______ _______ _____ _____    ______ ____
ROOT
ATOM      1  O   UNL     1       2.305   2.613  17.748  0.00  0.00    +0.000 OA
ATOM      2  C   UNL     1       3.453   3.006  17.917  0.00  0.00    +0.000 C 
ENDROOT
BRANCH   2   3
ATOM      3  C   UNL     1       3.957   3.665  19.183  0.00  0.00    +0.000 C 
BRANCH   3   4
ATOM      4  C   UNL     1       3.189   4.913  19.558  0.00  0.00    +0.000 A 
ATOM      5  C   UNL     1       3.400   6.090  18.817  0.00  0.00    +0.000 A 
ATOM      6  C   UNL     1       2.707   7.264  19.125  0.00  0.00    +0.000 A 
ATOM      7  C   UNL     1       1.794   7.274  20.175  0.00  0.00    +0.000 A 
ATOM      8 CL   UNL     1       0.939   8.719  20.549  0.00  0.00    +0.000 Cl
ATOM      9  C   UNL     1       1.564   6.122  20.919  0.00  0.00    +0.000 A 
ATOM     10  C   UNL     1       2.255   4.944  20.608  0.00  0.00    +0.000 A 
ATOM     11 CL   UNL     1       1.916   3.548  21.568  0.00  0.00    +0.000 Cl
ENDBRANCH   3   4
ENDBRANCH   2   3
BRANCH   2  12
ATOM     12  O   UNL     1       4.446   2.923  16.988  0.00  0.00    +0.000 OA
BRANCH  12  13
ATOM     13  C   UNL     1       4.741   4.143  16.298  0.00  0.00    +0.000 C 
BRANCH  13  14
ATOM     14  C   UNL     1       6.246   4.401  16.157  0.00  0.00    +0.000 C 
ATOM     15  O   UNL     1       6.890   3.952  15.207  0.00  0.00    +0.000 OA
BRANCH  14  16
ATOM     16  C   UNL     1       6.877   5.241  17.165  0.00  0.00    +0.000 A 
ATOM     17  C   UNL     1       7.254   6.573  17.153  0.00  0.00    +0.000 A 
ATOM     18  C   UNL     1       7.858   6.869  18.401  0.00  0.00    +0.000 A 
ATOM     19  C   UNL     1       7.833   5.717  19.150  0.00  0.00    +0.000 A 
ATOM     20  N   UNL     1       7.229   4.743  18.403  0.00  0.00    +0.000 N 
ATOM     21  H   UNL     1       7.067   3.786  18.693  0.00  0.00    +0.000 HD
ENDBRANCH  14  16
ENDBRANCH  13  14
ENDBRANCH  12  13
ENDBRANCH   2  12
TORSDOF 6
ENDMDL
MODEL 7
REMARK VINA RESULT:      -6.9      4.650      5.955
REMARK  Name = 
REMARK  6 active torsions:
REMARK  status: ('A' for Active; 'I' for Inactive)
REMARK    1  A    between atoms: C_2  and  C_3
REMARK    2  A    between atoms: C_2  and  O_12
REMARK    3  A    between atoms: C_3  and  C_4
REMARK    4  A    between atoms: O_12  and  C_13
REMARK    5  A    between atoms: C_13  and  C_14
REMARK    6  A    between atoms: C_14  and  C_16
REMARK                            x       y       z     vdW  Elec       q    Type
REMARK                         _______ _______ _______ _____ _____    ______ ____
ROOT
ATOM      1  O   UNL     1       6.786   7.740  16.828  0.00  0.00    +0.000 OA
ATOM      2  C   UNL     1       7.523   7.376  17.737  0.00  0.00    +0.000 C 
ENDROOT
BRANCH   2   3
ATOM      3  C   UNL     1       7.578   5.966  18.284  0.00  0.00    +0.000 C 
BRANCH   3   4
ATOM      4  C   UNL     1       6.295   5.190  18.078  0.00  0.00    +0.000 A 
ATOM      5  C   UNL     1       5.347   5.156  19.117  0.00  0.00    +0.000 A 
ATOM      6  C   UNL     1       4.146   4.458  18.967  0.00  0.00    +0.000 A 
ATOM      7  C   UNL     1       3.878   3.787  17.776  0.00  0.00    +0.000 A 
ATOM      8 CL   UNL     1       2.397   2.932  17.592  0.00  0.00    +0.000 Cl
ATOM      9  C   UNL     1       4.798   3.811  16.734  0.00  0.00    +0.000 A 
ATOM     10  C   UNL     1       6.000   4.514  16.881  0.00  0.00    +0.000 A 
ATOM     11 CL   UNL     1       7.093   4.508  15.544  0.00  0.00    +0.000 Cl
ENDBRANCH   3   4
ENDBRANCH   2   3
BRANCH   2  12
ATOM     12  O   UNL     1       8.392   8.186  18.402  0.00  0.00    +0.000 OA
BRANCH  12  13
ATOM     13  C   UNL     1       8.411   9.551  17.967  0.00  0.00    +0.000 C 
BRANCH  13  14
ATOM     14  C   UNL     1       9.220  10.463  18.897  0.00  0.00    +0.000 C 
ATOM     15  O   UNL     1       9.260  10.271  20.114  0.00  0.00    +0.000 OA
BRANCH  14  16
ATOM     16  C   UNL     1       9.982  11.538  18.280  0.00  0.00    +0.000 A 
ATOM     17  C   UNL     1       9.587  12.677  17.598  0.00  0.00    +0.000 A 
ATOM     18  C   UNL     1      10.755  13.366  17.181  0.00  0.00    +0.000 A 
ATOM     19  C   UNL     1      11.835  12.640  17.620  0.00  0.00    +0.000 A 
ATOM     20  N   UNL     1      11.362  11.546  18.293  0.00  0.00    +0.000 N 
ATOM     21  H   UNL     1      11.926  10.827  18.731  0.00  0.00    +0.000 HD
ENDBRANCH  14  16
ENDBRANCH  13  14
ENDBRANCH  12  13
ENDBRANCH   2  12
TORSDOF 6
ENDMDL
MODEL 8
REMARK VINA RESULT:      -6.8      3.358      6.399
REMARK  Name = 
REMARK  6 active torsions:
REMARK  status: ('A' for Active; 'I' for Inactive)
REMARK    1  A    between atoms: C_2  and  C_3
REMARK    2  A    between atoms: C_2  and  O_12
REMARK    3  A    between atoms: C_3  and  C_4
REMARK    4  A    between atoms: O_12  and  C_13
REMARK    5  A    between atoms: C_13  and  C_14
REMARK    6  A    between atoms: C_14  and  C_16
REMARK                            x       y       z     vdW  Elec       q    Type
REMARK                         _______ _______ _______ _____ _____    ______ ____
ROOT
ATOM      1  O   UNL     1       4.139   7.482  17.648  0.00  0.00    +0.000 OA
ATOM      2  C   UNL     1       4.000   6.346  18.086  0.00  0.00    +0.000 C 
ENDROOT
BRANCH   2   3
ATOM      3  C   UNL     1       5.073   5.279  18.060  0.00  0.00    +0.000 C 
BRANCH   3   4
ATOM      4  C   UNL     1       5.645   5.035  16.680  0.00  0.00    +0.000 A 
ATOM      5  C   UNL     1       4.975   4.155  15.811  0.00  0.00    +0.000 A 
ATOM      6  C   UNL     1       5.465   3.906  14.527  0.00  0.00    +0.000 A 
ATOM      7  C   UNL     1       6.628   4.536  14.094  0.00  0.00    +0.000 A 
ATOM      8 CL   UNL     1       7.227   4.232  12.511  0.00  0.00    +0.000 Cl
ATOM      9  C   UNL     1       7.305   5.415  14.933  0.00  0.00    +0.000 A 
ATOM     10  C   UNL     1       6.813   5.668  16.219  0.00  0.00    +0.000 A 
ATOM     11 CL   UNL     1       7.699   6.775  17.205  0.00  0.00    +0.000 Cl
ENDBRANCH   3   4
ENDBRANCH   2   3
BRANCH   2  12
ATOM     12  O   UNL     1       2.856   5.867  18.649  0.00  0.00    +0.000 OA
BRANCH  12  13
ATOM     13  C   UNL     1       2.002   5.130  17.767  0.00  0.00    +0.000 C 
BRANCH  13  14
ATOM     14  C   UNL     1       1.975   3.629  18.078  0.00  0.00    +0.000 C 
ATOM     15  O   UNL     1       2.027   2.784  17.182  0.00  0.00    +0.000 OA
BRANCH  14  16
ATOM     16  C   UNL     1       1.934   3.237  19.479  0.00  0.00    +0.000 A 
ATOM     17  C   UNL     1       0.877   2.986  20.338  0.00  0.00    +0.000 A 
ATOM     18  C   UNL     1       1.414   2.670  21.612  0.00  0.00    +0.000 A 
ATOM     19  C   UNL     1       2.782   2.730  21.506  0.00  0.00    +0.000 A 
ATOM     20  N   UNL     1       3.089   3.060  20.213  0.00  0.00    +0.000 N 
ATOM     21  H   UNL     1       4.022   3.176  19.835  0.00  0.00    +0.000 HD
ENDBRANCH  14  16
ENDBRANCH  13  14
ENDBRANCH  12  13
ENDBRANCH   2  12
TORSDOF 6
ENDMDL
MODEL 9
REMARK VINA RESULT:      -6.8      2.212      2.863
REMARK  Name = 
REMARK  6 active torsions:
REMARK  status: ('A' for Active; 'I' for Inactive)
REMARK    1  A    between atoms: C_2  and  C_3
REMARK    2  A    between atoms: C_2  and  O_12
REMARK    3  A    between atoms: C_3  and  C_4
REMARK    4  A    between atoms: O_12  and  C_13
REMARK    5  A    between atoms: C_13  and  C_14
REMARK    6  A    between atoms: C_14  and  C_16
REMARK                            x       y       z     vdW  Elec       q    Type
REMARK                         _______ _______ _______ _____ _____    ______ ____
ROOT
ATOM      1  O   UNL     1       5.464   3.527  19.779  0.00  0.00    +0.000 OA
ATOM      2  C   UNL     1       5.211   4.232  18.810  0.00  0.00    +0.000 C 
ENDROOT
BRANCH   2   3
ATOM      3  C   UNL     1       3.823   4.452  18.247  0.00  0.00    +0.000 C 
BRANCH   3   4
ATOM      4  C   UNL     1       3.015   5.471  19.021  0.00  0.00    +0.000 A 
ATOM      5  C   UNL     1       2.308   5.053  20.164  0.00  0.00    +0.000 A 
ATOM      6  C   UNL     1       1.555   5.962  20.911  0.00  0.00    +0.000 A 
ATOM      7  C   UNL     1       1.502   7.300  20.529  0.00  0.00    +0.000 A 
ATOM      8 CL   UNL     1       0.579   8.417  21.454  0.00  0.00    +0.000 Cl
ATOM      9  C   UNL     1       2.197   7.737  19.407  0.00  0.00    +0.000 A 
ATOM     10  C   UNL     1       2.956   6.828  18.659  0.00  0.00    +0.000 A 
ATOM     11 CL   UNL     1       3.799   7.441  17.282  0.00  0.00    +0.000 Cl
ENDBRANCH   3   4
ENDBRANCH   2   3
BRANCH   2  12
ATOM     12  O   UNL     1       6.139   4.913  18.082  0.00  0.00    +0.000 OA
BRANCH  12  13
ATOM     13  C   UNL     1       6.582   4.257  16.888  0.00  0.00    +0.000 C 
BRANCH  13  14
ATOM     14  C   UNL     1       6.992   5.239  15.784  0.00  0.00    +0.000 C 
ATOM     15  O   UNL     1       7.414   6.366  16.048  0.00  0.00    +0.000 OA
BRANCH  14  16
ATOM     16  C   UNL     1       6.910   4.769  14.409  0.00  0.00    +0.000 A 
ATOM     17  C   UNL     1       6.149   3.775  13.816  0.00  0.00    +0.000 A 
ATOM     18  C   UNL     1       6.493   3.721  12.441  0.00  0.00    +0.000 A 
ATOM     19  C   UNL     1       7.450   4.682  12.222  0.00  0.00    +0.000 A 
ATOM     20  N   UNL     1       7.687   5.318  13.410  0.00  0.00    +0.000 N 
ATOM     21  H   UNL     1       8.344   6.075  13.558  0.00  0.00    +0.000 HD
ENDBRANCH  14  16
ENDBRANCH  13  14
ENDBRANCH  12  13
ENDBRANCH   2  12
TORSDOF 6
ENDMDL
