MODEL 1
REMARK VINA RESULT:      -6.5      0.000      0.000
REMARK  Name = 
REMARK  7 active torsions:
REMARK  status: ('A' for Active; 'I' for Inactive)
REMARK    1  A    between atoms: C_1  and  C_2
REMARK    2  A    between atoms: C_2  and  O_3
REMARK    3  A    between atoms: O_3  and  C_4
REMARK    4  A    between atoms: C_8  and  C_9
REMARK    5  A    between atoms: N_14  and  C_15
REMARK    6  A    between atoms: C_15  and  C_16
REMARK    7  A    between atoms: C_16  and  N_17
REMARK                            x       y       z     vdW  Elec       q    Type
REMARK                         _______ _______ _______ _____ _____    ______ ____
ROOT
ATOM      1  C   UNL     1       2.700   7.531  17.846  0.00  0.00    +0.000 C 
ATOM      2  C   UNL     1       2.055   8.295  18.741  0.00  0.00    +0.000 C 
ATOM      3  S   UNL     1       1.603   7.881  20.349  0.00  0.00    +0.000 S 
ATOM      4  C   UNL     1       0.755   9.397  20.595  0.00  0.00    +0.000 C 
ATOM      5  O   UNL     1       0.222   9.680  21.653  0.00  0.00    +0.000 OA
ATOM      6  N   UNL     1       0.827  10.161  19.458  0.00  0.00    +0.000 N 
ATOM      7  C   UNL     1       1.578   9.664  18.419  0.00  0.00    +0.000 C 
ATOM      8  O   UNL     1       1.825  10.237  17.367  0.00  0.00    +0.000 OA
ENDROOT
BRANCH   1  13
ATOM      9  C   UNL     1       4.880   4.562  18.589  0.00  0.00    +0.000 A 
ATOM     10  C   UNL     1       3.970   3.517  18.412  0.00  0.00    +0.000 A 
ATOM     11  C   UNL     1       2.634   3.782  18.098  0.00  0.00    +0.000 A 
ATOM     12  C   UNL     1       2.202   5.098  17.945  0.00  0.00    +0.000 A 
ATOM     13  C   UNL     1       3.106   6.149  18.111  0.00  0.00    +0.000 A 
ATOM     14  C   UNL     1       4.437   5.879  18.453  0.00  0.00    +0.000 A 
BRANCH   9  15
ATOM     15  O   UNL     1       6.165   4.176  18.863  0.00  0.00    +0.000 OA
BRANCH  15  17
ATOM     16  C   UNL     1       7.930   5.772  19.108  0.00  0.00    +0.000 C 
ATOM     17  C   UNL     1       7.200   4.851  18.148  0.00  0.00    +0.000 C 
ENDBRANCH  15  17
ENDBRANCH   9  15
ENDBRANCH   1  13
BRANCH   6  18
ATOM     18  C   UNL     1       0.239  11.492  19.403  0.00  0.00    +0.000 C 
BRANCH  18  19
ATOM     19  C   UNL     1      -1.115  11.539  18.669  0.00  0.00    +0.000 C 
BRANCH  19  20
ATOM     20  N   UNL     1      -1.167  12.569  17.630  0.00  0.00    +0.000 NA
ATOM     21  H   UNL     1      -1.810  13.309  17.908  0.00  0.00    +0.000 HD
ATOM     22  H   UNL     1      -1.562  12.165  16.781  0.00  0.00    +0.000 HD
ENDBRANCH  19  20
ENDBRANCH  18  19
ENDBRANCH   6  18
TORSDOF 6
ENDMDL
MODEL 2
REMARK VINA RESULT:      -6.5      3.739      7.397
REMARK  Name = 
REMARK  7 active torsions:
REMARK  status: ('A' for Active; 'I' for Inactive)
REMARK    1  A    between atoms: C_1  and  C_2
REMARK    2  A    between atoms: C_2  and  O_3
REMARK    3  A    between atoms: O_3  and  C_4
REMARK    4  A    between atoms: C_8  and  C_9
REMARK    5  A    between atoms: N_14  and  C_15
REMARK    6  A    between atoms: C_15  and  C_16
REMARK    7  A    between atoms: C_16  and  N_17
REMARK                            x       y       z     vdW  Elec       q    Type
REMARK                         _______ _______ _______ _____ _____    ______ ____
ROOT
ATOM      1  C   UNL     1       2.861   6.009  17.923  0.00  0.00    +0.000 C 
ATOM      2  C   UNL     1       4.118   5.917  17.462  0.00  0.00    +0.000 C 
ATOM      3  S   UNL     1       5.357   7.108  17.538  0.00  0.00    +0.000 S 
ATOM      4  C   UNL     1       6.476   6.131  16.603  0.00  0.00    +0.000 C 
ATOM      5  O   UNL     1       7.611   6.498  16.357  0.00  0.00    +0.000 OA
ATOM      6  N   UNL     1       5.879   4.946  16.254  0.00  0.00    +0.000 N 
ATOM      7  C   UNL     1       4.614   4.718  16.741  0.00  0.00    +0.000 C 
ATOM      8  O   UNL     1       3.962   3.691  16.606  0.00  0.00    +0.000 OA
ENDROOT
BRANCH   1  13
ATOM      9  C   UNL     1       1.468   8.295  20.560  0.00  0.00    +0.000 A 
ATOM     10  C   UNL     1       1.102   9.397  19.785  0.00  0.00    +0.000 A 
ATOM     11  C   UNL     1       1.353   9.416  18.410  0.00  0.00    +0.000 A 
ATOM     12  C   UNL     1       1.961   8.322  17.798  0.00  0.00    +0.000 A 
ATOM     13  C   UNL     1       2.323   7.211  18.562  0.00  0.00    +0.000 A 
ATOM     14  C   UNL     1       2.094   7.209  19.945  0.00  0.00    +0.000 A 
BRANCH   9  15
ATOM     15  O   UNL     1       1.143   8.381  21.887  0.00  0.00    +0.000 OA
BRANCH  15  17
ATOM     16  C   UNL     1      -0.393   9.670  23.192  0.00  0.00    +0.000 C 
ATOM     17  C   UNL     1       0.901   9.691  22.401  0.00  0.00    +0.000 C 
ENDBRANCH  15  17
ENDBRANCH   9  15
ENDBRANCH   1  13
BRANCH   6  18
ATOM     18  C   UNL     1       6.602   3.928  15.506  0.00  0.00    +0.000 C 
BRANCH  18  19
ATOM     19  C   UNL     1       6.564   4.137  13.981  0.00  0.00    +0.000 C 
BRANCH  19  20
ATOM     20  N   UNL     1       7.463   5.200  13.527  0.00  0.00    +0.000 NA
ATOM     21  H   UNL     1       8.103   5.455  14.277  0.00  0.00    +0.000 HD
ATOM     22  H   UNL     1       6.915   6.038  13.334  0.00  0.00    +0.000 HD
ENDBRANCH  19  20
ENDBRANCH  18  19
ENDBRANCH   6  18
TORSDOF 6
ENDMDL
MODEL 3
REMARK VINA RESULT:      -6.4      4.222      5.718
REMARK  Name = 
REMARK  7 active torsions:
REMARK  status: ('A' for Active; 'I' for Inactive)
REMARK    1  A    between atoms: C_1  and  C_2
REMARK    2  A    between atoms: C_2  and  O_3
REMARK    3  A    between atoms: O_3  and  C_4
REMARK    4  A    between atoms: C_8  and  C_9
REMARK    5  A    between atoms: N_14  and  C_15
REMARK    6  A    between atoms: C_15  and  C_16
REMARK    7  A    between atoms: C_16  and  N_17
REMARK                            x       y       z     vdW  Elec       q    Type
REMARK                         _______ _______ _______ _____ _____    ______ ____
ROOT
ATOM      1  C   UNL     1       4.123   3.349  16.814  0.00  0.00    +0.000 C 
ATOM      2  C   UNL     1       3.402   3.999  17.740  0.00  0.00    +0.000 C 
ATOM      3  S   UNL     1       3.571   5.633  18.252  0.00  0.00    +0.000 S 
ATOM      4  C   UNL     1       2.346   5.463  19.497  0.00  0.00    +0.000 C 
ATOM      5  O   UNL     1       2.007   6.392  20.207  0.00  0.00    +0.000 OA
ATOM      6  N   UNL     1       1.857   4.181  19.497  0.00  0.00    +0.000 N 
ATOM      7  C   UNL     1       2.330   3.333  18.523  0.00  0.00    +0.000 C 
ATOM      8  O   UNL     1       1.951   2.189  18.315  0.00  0.00    +0.000 OA
ENDROOT
BRANCH   1  13
ATOM      9  C   UNL     1       6.991   5.638  16.004  0.00  0.00    +0.000 A 
ATOM     10  C   UNL     1       7.233   5.294  14.672  0.00  0.00    +0.000 A 
ATOM     11  C   UNL     1       6.494   4.283  14.052  0.00  0.00    +0.000 A 
ATOM     12  C   UNL     1       5.495   3.617  14.759  0.00  0.00    +0.000 A 
ATOM     13  C   UNL     1       5.239   3.959  16.089  0.00  0.00    +0.000 A 
ATOM     14  C   UNL     1       6.002   4.954  16.714  0.00  0.00    +0.000 A 
BRANCH   9  15
ATOM     15  O   UNL     1       7.758   6.663  16.491  0.00  0.00    +0.000 OA
BRANCH  15  17
ATOM     16  C   UNL     1       8.158   8.552  17.903  0.00  0.00    +0.000 C 
ATOM     17  C   UNL     1       7.150   7.505  17.470  0.00  0.00    +0.000 C 
ENDBRANCH  15  17
ENDBRANCH   9  15
ENDBRANCH   1  13
BRANCH   6  18
ATOM     18  C   UNL     1       0.796   3.777  20.407  0.00  0.00    +0.000 C 
BRANCH  18  19
ATOM     19  C   UNL     1       1.240   2.735  21.451  0.00  0.00    +0.000 C 
BRANCH  19  20
ATOM     20  N   UNL     1       2.458   3.124  22.165  0.00  0.00    +0.000 NA
ATOM     21  H   UNL     1       2.893   2.303  22.582  0.00  0.00    +0.000 HD
ATOM     22  H   UNL     1       2.205   3.729  22.947  0.00  0.00    +0.000 HD
ENDBRANCH  19  20
ENDBRANCH  18  19
ENDBRANCH   6  18
TORSDOF 6
ENDMDL
MODEL 4
REMARK VINA RESULT:      -6.4      1.371      2.734
REMARK  Name = 
REMARK  7 active torsions:
REMARK  status: ('A' for Active; 'I' for Inactive)
REMARK    1  A    between atoms: C_1  and  C_2
REMARK    2  A    between atoms: C_2  and  O_3
REMARK    3  A    between atoms: O_3  and  C_4
REMARK    4  A    between atoms: C_8  and  C_9
REMARK    5  A    between atoms: N_14  and  C_15
REMARK    6  A    between atoms: C_15  and  C_16
REMARK    7  A    between atoms: C_16  and  N_17
REMARK                            x       y       z     vdW  Elec       q    Type
REMARK                         _______ _______ _______ _____ _____    ______ ____
ROOT
ATOM      1  C   UNL     1       2.984   7.251  17.839  0.00  0.00    +0.000 C 
ATOM      2  C   UNL     1       2.285   7.963  18.736  0.00  0.00    +0.000 C 
ATOM      3  S   UNL     1       1.833   7.496  20.329  0.00  0.00    +0.000 S 
ATOM      4  C   UNL     1       0.899   8.959  20.587  0.00  0.00    +0.000 C 
ATOM      5  O   UNL     1       0.336   9.193  21.642  0.00  0.00    +0.000 OA
ATOM      6  N   UNL     1       0.946   9.746  19.465  0.00  0.00    +0.000 N 
ATOM      7  C   UNL     1       1.739   9.309  18.430  0.00  0.00    +0.000 C 
ATOM      8  O   UNL     1       1.969   9.913  17.391  0.00  0.00    +0.000 OA
ENDROOT
BRANCH   1  13
ATOM      9  C   UNL     1       2.969   3.520  18.283  0.00  0.00    +0.000 A 
ATOM     10  C   UNL     1       4.267   3.306  18.753  0.00  0.00    +0.000 A 
ATOM     11  C   UNL     1       5.163   4.371  18.879  0.00  0.00    +0.000 A 
ATOM     12  C   UNL     1       4.759   5.663  18.548  0.00  0.00    +0.000 A 
ATOM     13  C   UNL     1       3.461   5.889  18.086  0.00  0.00    +0.000 A 
ATOM     14  C   UNL     1       2.576   4.813  17.935  0.00  0.00    +0.000 A 
BRANCH   9  15
ATOM     15  O   UNL     1       2.176   2.405  18.233  0.00  0.00    +0.000 OA
BRANCH  15  17
ATOM     16  C   UNL     1       1.098   2.767  20.338  0.00  0.00    +0.000 C 
ATOM     17  C   UNL     1       0.896   2.503  18.858  0.00  0.00    +0.000 C 
ENDBRANCH  15  17
ENDBRANCH   9  15
ENDBRANCH   1  13
BRANCH   6  18
ATOM     18  C   UNL     1       0.286  11.043  19.423  0.00  0.00    +0.000 C 
BRANCH  18  19
ATOM     19  C   UNL     1      -1.098  11.011  18.747  0.00  0.00    +0.000 C 
BRANCH  19  20
ATOM     20  N   UNL     1      -1.213  11.956  17.634  0.00  0.00    +0.000 NA
ATOM     21  H   UNL     1      -1.150  12.910  17.983  0.00  0.00    +0.000 HD
ATOM     22  H   UNL     1      -2.143  11.873  17.224  0.00  0.00    +0.000 HD
ENDBRANCH  19  20
ENDBRANCH  18  19
ENDBRANCH   6  18
TORSDOF 6
ENDMDL
MODEL 5
REMARK VINA RESULT:      -6.3      1.682      2.970
REMARK  Name = 
REMARK  7 active torsions:
REMARK  status: ('A' for Active; 'I' for Inactive)
REMARK    1  A    between atoms: C_1  and  C_2
REMARK    2  A    between atoms: C_2  and  O_3
REMARK    3  A    between atoms: O_3  and  C_4
REMARK    4  A    between atoms: C_8  and  C_9
REMARK    5  A    between atoms: N_14  and  C_15
REMARK    6  A    between atoms: C_15  and  C_16
REMARK    7  A    between atoms: C_16  and  N_17
REMARK                            x       y       z     vdW  Elec       q    Type
REMARK                         _______ _______ _______ _____ _____    ______ ____
ROOT
ATOM      1  C   UNL     1       2.972   7.246  17.808  0.00  0.00    +0.000 C 
ATOM      2  C   UNL     1       2.295   7.954  18.724  0.00  0.00    +0.000 C 
ATOM      3  S   UNL     1       1.871   7.476  20.322  0.00  0.00    +0.000 S 
ATOM      4  C   UNL     1       0.953   8.943  20.611  0.00  0.00    +0.000 C 
ATOM      5  O   UNL     1       0.412   9.172  21.678  0.00  0.00    +0.000 OA
ATOM      6  N   UNL     1       0.983   9.740  19.495  0.00  0.00    +0.000 N 
ATOM      7  C   UNL     1       1.753   9.306  18.441  0.00  0.00    +0.000 C 
ATOM      8  O   UNL     1       1.967   9.918  17.403  0.00  0.00    +0.000 OA
ENDROOT
BRANCH   1  13
ATOM      9  C   UNL     1       2.939   3.511  18.224  0.00  0.00    +0.000 A 
ATOM     10  C   UNL     1       4.245   3.284  18.663  0.00  0.00    +0.000 A 
ATOM     11  C   UNL     1       5.152   4.341  18.776  0.00  0.00    +0.000 A 
ATOM     12  C   UNL     1       4.751   5.639  18.464  0.00  0.00    +0.000 A 
ATOM     13  C   UNL     1       3.445   5.878  18.034  0.00  0.00    +0.000 A 
ATOM     14  C   UNL     1       2.548   4.810  17.895  0.00  0.00    +0.000 A 
BRANCH   9  15
ATOM     15  O   UNL     1       2.136   2.402  18.184  0.00  0.00    +0.000 OA
BRANCH  15  17
ATOM     16  C   UNL     1       1.072   2.765  20.295  0.00  0.00    +0.000 C 
ATOM     17  C   UNL     1       0.860   2.514  18.814  0.00  0.00    +0.000 C 
ENDBRANCH  15  17
ENDBRANCH   9  15
ENDBRANCH   1  13
BRANCH   6  18
ATOM     18  C   UNL     1       0.332  11.041  19.477  0.00  0.00    +0.000 C 
BRANCH  18  19
ATOM     19  C   UNL     1       1.140  12.146  20.185  0.00  0.00    +0.000 C 
BRANCH  19  20
ATOM     20  N   UNL     1       0.683  12.400  21.553  0.00  0.00    +0.000 NA
ATOM     21  H   UNL     1       0.501  13.394  21.678  0.00  0.00    +0.000 HD
ATOM     22  H   UNL     1       1.437  12.174  22.202  0.00  0.00    +0.000 HD
ENDBRANCH  19  20
ENDBRANCH  18  19
ENDBRANCH   6  18
TORSDOF 6
ENDMDL
MODEL 6
REMARK VINA RESULT:      -6.3      1.050      1.384
REMARK  Name = 
REMARK  7 active torsions:
REMARK  status: ('A' for Active; 'I' for Inactive)
REMARK    1  A    between atoms: C_1  and  C_2
REMARK    2  A    between atoms: C_2  and  O_3
REMARK    3  A    between atoms: O_3  and  C_4
REMARK    4  A    between atoms: C_8  and  C_9
REMARK    5  A    between atoms: N_14  and  C_15
REMARK    6  A    between atoms: C_15  and  C_16
REMARK    7  A    between atoms: C_16  and  N_17
REMARK                            x       y       z     vdW  Elec       q    Type
REMARK                         _______ _______ _______ _____ _____    ______ ____
ROOT
ATOM      1  C   UNL     1       2.810   7.394  17.816  0.00  0.00    +0.000 C 
ATOM      2  C   UNL     1       2.152   8.098  18.749  0.00  0.00    +0.000 C 
ATOM      3  S   UNL     1       1.738   7.605  20.345  0.00  0.00    +0.000 S 
ATOM      4  C   UNL     1       0.842   9.079  20.663  0.00  0.00    +0.000 C 
ATOM      5  O   UNL     1       0.315   9.300  21.738  0.00  0.00    +0.000 OA
ATOM      6  N   UNL     1       0.872   9.890  19.557  0.00  0.00    +0.000 N 
ATOM      7  C   UNL     1       1.625   9.461  18.489  0.00  0.00    +0.000 C 
ATOM      8  O   UNL     1       1.837  10.084  17.458  0.00  0.00    +0.000 OA
ENDROOT
BRANCH   1  13
ATOM      9  C   UNL     1       5.102   4.473  18.400  0.00  0.00    +0.000 A 
ATOM     10  C   UNL     1       4.223   3.406  18.201  0.00  0.00    +0.000 A 
ATOM     11  C   UNL     1       2.873   3.637  17.926  0.00  0.00    +0.000 A 
ATOM     12  C   UNL     1       2.395   4.943  17.831  0.00  0.00    +0.000 A 
ATOM     13  C   UNL     1       3.267   6.017  18.019  0.00  0.00    +0.000 A 
ATOM     14  C   UNL     1       4.614   5.779  18.323  0.00  0.00    +0.000 A 
BRANCH   9  15
ATOM     15  O   UNL     1       6.404   4.120  18.633  0.00  0.00    +0.000 OA
BRANCH  15  17
ATOM     16  C   UNL     1       7.176   4.468  16.395  0.00  0.00    +0.000 C 
ATOM     17  C   UNL     1       7.396   4.796  17.860  0.00  0.00    +0.000 C 
ENDBRANCH  15  17
ENDBRANCH   9  15
ENDBRANCH   1  13
BRANCH   6  18
ATOM     18  C   UNL     1       0.238  11.200  19.563  0.00  0.00    +0.000 C 
BRANCH  18  19
ATOM     19  C   UNL     1       1.057  12.280  20.295  0.00  0.00    +0.000 C 
BRANCH  19  20
ATOM     20  N   UNL     1       0.583  12.532  21.657  0.00  0.00    +0.000 NA
ATOM     21  H   UNL     1       1.377  12.685  22.277  0.00  0.00    +0.000 HD
ATOM     22  H   UNL     1       0.118  11.694  22.007  0.00  0.00    +0.000 HD
ENDBRANCH  19  20
ENDBRANCH  18  19
ENDBRANCH   6  18
TORSDOF 6
ENDMDL
MODEL 7
REMARK VINA RESULT:      -6.3      4.378      6.396
REMARK  Name = 
REMARK  7 active torsions:
REMARK  status: ('A' for Active; 'I' for Inactive)
REMARK    1  A    between atoms: C_1  and  C_2
REMARK    2  A    between atoms: C_2  and  O_3
REMARK    3  A    between atoms: O_3  and  C_4
REMARK    4  A    between atoms: C_8  and  C_9
REMARK    5  A    between atoms: N_14  and  C_15
REMARK    6  A    between atoms: C_15  and  C_16
REMARK    7  A    between atoms: C_16  and  N_17
REMARK                            x       y       z     vdW  Elec       q    Type
REMARK                         _______ _______ _______ _____ _____    ______ ____
ROOT
ATOM      1  C   UNL     1       4.214   3.219  17.045  0.00  0.00    +0.000 C 
ATOM      2  C   UNL     1       3.450   3.849  17.950  0.00  0.00    +0.000 C 
ATOM      3  S   UNL     1       3.483   5.514  18.381  0.00  0.00    +0.000 S 
ATOM      4  C   UNL     1       2.291   5.300  19.651  0.00  0.00    +0.000 C 
ATOM      5  O   UNL     1       1.881   6.230  20.322  0.00  0.00    +0.000 OA
ATOM      6  N   UNL     1       1.915   3.982  19.720  0.00  0.00    +0.000 N 
ATOM      7  C   UNL     1       2.449   3.132  18.780  0.00  0.00    +0.000 C 
ATOM      8  O   UNL     1       2.167   1.951  18.632  0.00  0.00    +0.000 OA
ENDROOT
BRANCH   1  13
ATOM      9  C   UNL     1       6.319   4.304  14.128  0.00  0.00    +0.000 A 
ATOM     10  C   UNL     1       7.363   4.958  14.786  0.00  0.00    +0.000 A 
ATOM     11  C   UNL     1       7.357   5.089  16.177  0.00  0.00    +0.000 A 
ATOM     12  C   UNL     1       6.310   4.550  16.922  0.00  0.00    +0.000 A 
ATOM     13  C   UNL     1       5.266   3.887  16.275  0.00  0.00    +0.000 A 
ATOM     14  C   UNL     1       5.263   3.783  14.877  0.00  0.00    +0.000 A 
BRANCH   9  15
ATOM     15  O   UNL     1       6.453   4.213  12.768  0.00  0.00    +0.000 OA
BRANCH  15  17
ATOM     16  C   UNL     1       4.610   3.308  11.539  0.00  0.00    +0.000 C 
ATOM     17  C   UNL     1       5.965   3.018  12.157  0.00  0.00    +0.000 C 
ENDBRANCH  15  17
ENDBRANCH   9  15
ENDBRANCH   1  13
BRANCH   6  18
ATOM     18  C   UNL     1       0.903   3.533  20.664  0.00  0.00    +0.000 C 
BRANCH  18  19
ATOM     19  C   UNL     1       1.484   2.821  21.900  0.00  0.00    +0.000 C 
BRANCH  19  20
ATOM     20  N   UNL     1       2.909   2.513  21.766  0.00  0.00    +0.000 NA
ATOM     21  H   UNL     1       3.449   3.085  22.413  0.00  0.00    +0.000 HD
ATOM     22  H   UNL     1       3.220   2.784  20.833  0.00  0.00    +0.000 HD
ENDBRANCH  19  20
ENDBRANCH  18  19
ENDBRANCH   6  18
TORSDOF 6
ENDMDL
MODEL 8
REMARK VINA RESULT:      -6.1      3.237      7.407
REMARK  Name = 
REMARK  7 active torsions:
REMARK  status: ('A' for Active; 'I' for Inactive)
REMARK    1  A    between atoms: C_1  and  C_2
REMARK    2  A    between atoms: C_2  and  O_3
REMARK    3  A    between atoms: O_3  and  C_4
REMARK    4  A    between atoms: C_8  and  C_9
REMARK    5  A    between atoms: N_14  and  C_15
REMARK    6  A    between atoms: C_15  and  C_16
REMARK    7  A    between atoms: C_16  and  N_17
REMARK                            x       y       z     vdW  Elec       q    Type
REMARK                         _______ _______ _______ _____ _____    ______ ____
ROOT
ATOM      1  C   UNL     1       2.919   7.979  17.834  0.00  0.00    +0.000 C 
ATOM      2  C   UNL     1       3.205   6.675  17.701  0.00  0.00    +0.000 C 
ATOM      3  S   UNL     1       2.427   5.343  18.463  0.00  0.00    +0.000 S 
ATOM      4  C   UNL     1       3.557   4.183  17.786  0.00  0.00    +0.000 C 
ATOM      5  O   UNL     1       3.457   2.986  17.986  0.00  0.00    +0.000 OA
ATOM      6  N   UNL     1       4.490   4.834  17.019  0.00  0.00    +0.000 N 
ATOM      7  C   UNL     1       4.330   6.191  16.862  0.00  0.00    +0.000 C 
ATOM      8  O   UNL     1       5.008   6.920  16.151  0.00  0.00    +0.000 OA
ENDROOT
BRANCH   1  13
ATOM      9  C   UNL     1      -0.026   9.967  19.056  0.00  0.00    +0.000 A 
ATOM     10  C   UNL     1      -0.014   9.645  20.416  0.00  0.00    +0.000 A 
ATOM     11  C   UNL     1       0.923   8.743  20.925  0.00  0.00    +0.000 A 
ATOM     12  C   UNL     1       1.867   8.166  20.078  0.00  0.00    +0.000 A 
ATOM     13  C   UNL     1       1.869   8.488  18.719  0.00  0.00    +0.000 A 
ATOM     14  C   UNL     1       0.909   9.372  18.209  0.00  0.00    +0.000 A 
BRANCH   9  15
ATOM     15  O   UNL     1      -0.971  10.885  18.683  0.00  0.00    +0.000 OA
BRANCH  15  17
ATOM     16  C   UNL     1      -2.862   9.776  17.725  0.00  0.00    +0.000 C 
ATOM     17  C   UNL     1      -1.646  10.640  17.449  0.00  0.00    +0.000 C 
ENDBRANCH  15  17
ENDBRANCH   9  15
ENDBRANCH   1  13
BRANCH   6  18
ATOM     18  C   UNL     1       5.525   4.102  16.304  0.00  0.00    +0.000 C 
BRANCH  18  19
ATOM     19  C   UNL     1       6.956   4.539  16.670  0.00  0.00    +0.000 C 
BRANCH  19  20
ATOM     20  N   UNL     1       7.570   5.394  15.653  0.00  0.00    +0.000 NA
ATOM     21  H   UNL     1       8.557   5.528  15.864  0.00  0.00    +0.000 HD
ATOM     22  H   UNL     1       7.149   6.322  15.700  0.00  0.00    +0.000 HD
ENDBRANCH  19  20
ENDBRANCH  18  19
ENDBRANCH   6  18
TORSDOF 6
ENDMDL
MODEL 9
REMARK VINA RESULT:      -6.1      3.646      7.332
REMARK  Name = 
REMARK  7 active torsions:
REMARK  status: ('A' for Active; 'I' for Inactive)
REMARK    1  A    between atoms: C_1  and  C_2
REMARK    2  A    between atoms: C_2  and  O_3
REMARK    3  A    between atoms: O_3  and  C_4
REMARK    4  A    between atoms: C_8  and  C_9
REMARK    5  A    between atoms: N_14  and  C_15
REMARK    6  A    between atoms: C_15  and  C_16
REMARK    7  A    between atoms: C_16  and  N_17
REMARK                            x       y       z     vdW  Elec       q    Type
REMARK                         _______ _______ _______ _____ _____    ______ ____
ROOT
ATOM      1  C   UNL     1       2.926   5.821  17.948  0.00  0.00    +0.000 C 
ATOM      2  C   UNL     1       4.194   5.848  17.509  0.00  0.00    +0.000 C 
ATOM      3  S   UNL     1       5.351   7.105  17.707  0.00  0.00    +0.000 S 
ATOM      4  C   UNL     1       6.546   6.279  16.722  0.00  0.00    +0.000 C 
ATOM      5  O   UNL     1       7.659   6.736  16.531  0.00  0.00    +0.000 OA
ATOM      6  N   UNL     1       6.034   5.091  16.267  0.00  0.00    +0.000 N 
ATOM      7  C   UNL     1       4.778   4.744  16.707  0.00  0.00    +0.000 C 
ATOM      8  O   UNL     1       4.197   3.692  16.476  0.00  0.00    +0.000 OA
ENDROOT
BRANCH   1  13
ATOM      9  C   UNL     1       1.535   9.236  18.674  0.00  0.00    +0.000 A 
ATOM     10  C   UNL     1       1.309   9.141  20.049  0.00  0.00    +0.000 A 
ATOM     11  C   UNL     1       1.563   7.948  20.731  0.00  0.00    +0.000 A 
ATOM     12  C   UNL     1       2.062   6.844  20.042  0.00  0.00    +0.000 A 
ATOM     13  C   UNL     1       2.300   6.932  18.669  0.00  0.00    +0.000 A 
ATOM     14  C   UNL     1       2.016   8.121  17.985  0.00  0.00    +0.000 A 
BRANCH   9  15
ATOM     15  O   UNL     1       1.277  10.464  18.124  0.00  0.00    +0.000 OA
BRANCH  15  17
ATOM     16  C   UNL     1       2.222  12.615  18.573  0.00  0.00    +0.000 C 
ATOM     17  C   UNL     1       1.222  11.568  19.027  0.00  0.00    +0.000 C 
ENDBRANCH  15  17
ENDBRANCH   9  15
ENDBRANCH   1  13
BRANCH   6  18
ATOM     18  C   UNL     1       6.834   4.184  15.457  0.00  0.00    +0.000 C 
BRANCH  18  19
ATOM     19  C   UNL     1       6.883   4.566  13.966  0.00  0.00    +0.000 C 
BRANCH  19  20
ATOM     20  N   UNL     1       7.928   5.546  13.661  0.00  0.00    +0.000 NA
ATOM     21  H   UNL     1       7.649   6.112  12.862  0.00  0.00    +0.000 HD
ATOM     22  H   UNL     1       8.771   5.051  13.367  0.00  0.00    +0.000 HD
ENDBRANCH  19  20
ENDBRANCH  18  19
ENDBRANCH   6  18
TORSDOF 6
ENDMDL
