MODEL 1
REMARK VINA RESULT:      -8.0      0.000      0.000
REMARK  Name = 
REMARK  3 active torsions:
REMARK  status: ('A' for Active; 'I' for Inactive)
REMARK    1  A    between atoms: C_13  and  O_14
REMARK    2  A    between atoms: O_14  and  C_15
REMARK    3  A    between atoms: C_15  and  C_16
REMARK                            x       y       z     vdW  Elec       q    Type
REMARK                         _______ _______ _______ _____ _____    ______ ____
ROOT
ATOM      1  O   UNL     1       3.295   1.163  18.262  0.00  0.00    +0.000 OA
ATOM      2  C   UNL     1       3.603   2.342  18.402  0.00  0.00    +0.000 A 
ATOM      3  N   UNL     1       4.687   2.905  17.777  0.00  0.00    +0.000 NA
ATOM      4  C   UNL     1       5.038   4.116  18.052  0.00  0.00    +0.000 A 
ATOM      5  N   UNL     1       6.107   4.784  17.519  0.00  0.00    +0.000 N 
ATOM      6  C   UNL     1       6.858   5.811  18.258  0.00  0.00    +0.000 C 
ATOM      7  C   UNL     1       7.187   6.985  17.325  0.00  0.00    +0.000 C 
ATOM      8  O   UNL     1       7.878   6.533  16.151  0.00  0.00    +0.000 OA
ATOM      9  C   UNL     1       7.085   5.569  15.434  0.00  0.00    +0.000 C 
ATOM     10  C   UNL     1       6.781   4.336  16.300  0.00  0.00    +0.000 C 
ATOM     11  O   UNL     1       4.331   4.942  18.896  0.00  0.00    +0.000 OA
ATOM     12  C   UNL     1       3.094   4.518  19.362  0.00  0.00    +0.000 A 
ATOM     13  C   UNL     1       2.258   5.445  19.990  0.00  0.00    +0.000 A 
ATOM     14  C   UNL     1       1.134   4.972  20.668  0.00  0.00    +0.000 A 
ATOM     15  C   UNL     1       0.811   3.609  20.631  0.00  0.00    +0.000 A 
ATOM     16  C   UNL     1       1.594   2.720  19.888  0.00  0.00    +0.000 A 
ATOM     17  C   UNL     1       2.742   3.189  19.247  0.00  0.00    +0.000 A 
ENDROOT
BRANCH  13  18
ATOM     18  O   UNL     1       2.439   6.808  19.986  0.00  0.00    +0.000 OA
BRANCH  18  19
ATOM     19  C   UNL     1       1.531   7.532  20.832  0.00  0.00    +0.000 C 
BRANCH  19  20
ATOM     20  C   UNL     1       1.193   8.889  20.289  0.00  0.00    +0.000 A 
ATOM     21  C   UNL     1       1.345   9.222  18.944  0.00  0.00    +0.000 A 
ATOM     22  C   UNL     1       0.995  10.496  18.513  0.00  0.00    +0.000 A 
ATOM     23  C   UNL     1       0.481  11.389  19.439  0.00  0.00    +0.000 A 
ATOM     24  N   UNL     1       0.273  11.087  20.737  0.00  0.00    +0.000 NA
ATOM     25  C   UNL     1       0.628   9.847  21.130  0.00  0.00    +0.000 A 
ENDBRANCH  19  20
ENDBRANCH  18  19
ENDBRANCH  13  18
TORSDOF 3
ENDMDL
MODEL 2
REMARK VINA RESULT:      -8.0      0.938      1.283
REMARK  Name = 
REMARK  3 active torsions:
REMARK  status: ('A' for Active; 'I' for Inactive)
REMARK    1  A    between atoms: C_13  and  O_14
REMARK    2  A    between atoms: O_14  and  C_15
REMARK    3  A    between atoms: C_15  and  C_16
REMARK                            x       y       z     vdW  Elec       q    Type
REMARK                         _______ _______ _______ _____ _____    ______ ____
ROOT
ATOM      1  O   UNL     1       2.355   1.377  17.792  0.00  0.00    +0.000 OA
ATOM      2  C   UNL     1       2.913   2.459  17.942  0.00  0.00    +0.000 A 
ATOM      3  N   UNL     1       4.019   2.830  17.221  0.00  0.00    +0.000 NA
ATOM      4  C   UNL     1       4.641   3.925  17.501  0.00  0.00    +0.000 A 
ATOM      5  N   UNL     1       5.764   4.396  16.877  0.00  0.00    +0.000 N 
ATOM      6  C   UNL     1       6.783   5.203  17.566  0.00  0.00    +0.000 C 
ATOM      7  C   UNL     1       7.250   6.341  16.648  0.00  0.00    +0.000 C 
ATOM      8  O   UNL     1       7.708   5.833  15.386  0.00  0.00    +0.000 OA
ATOM      9  C   UNL     1       6.663   5.094  14.726  0.00  0.00    +0.000 C 
ATOM     10  C   UNL     1       6.201   3.897  15.574  0.00  0.00    +0.000 C 
ATOM     11  O   UNL     1       4.210   4.824  18.451  0.00  0.00    +0.000 OA
ATOM     12  C   UNL     1       2.967   4.630  19.037  0.00  0.00    +0.000 A 
ATOM     13  C   UNL     1       2.410   5.666  19.792  0.00  0.00    +0.000 A 
ATOM     14  C   UNL     1       1.289   5.388  20.574  0.00  0.00    +0.000 A 
ATOM     15  C   UNL     1       0.689   4.124  20.521  0.00  0.00    +0.000 A 
ATOM     16  C   UNL     1       1.190   3.142  19.660  0.00  0.00    +0.000 A 
ATOM     17  C   UNL     1       2.338   3.408  18.911  0.00  0.00    +0.000 A 
ENDROOT
BRANCH  13  18
ATOM     18  O   UNL     1       2.868   6.963  19.820  0.00  0.00    +0.000 OA
BRANCH  18  19
ATOM     19  C   UNL     1       2.422   7.775  18.722  0.00  0.00    +0.000 C 
BRANCH  19  20
ATOM     20  C   UNL     1       1.424   8.814  19.141  0.00  0.00    +0.000 A 
ATOM     21  C   UNL     1       1.082   9.036  20.473  0.00  0.00    +0.000 A 
ATOM     22  C   UNL     1       0.161  10.029  20.785  0.00  0.00    +0.000 A 
ATOM     23  C   UNL     1      -0.371  10.785  19.753  0.00  0.00    +0.000 A 
ATOM     24  N   UNL     1      -0.027  10.632  18.458  0.00  0.00    +0.000 NA
ATOM     25  C   UNL     1       0.864   9.657  18.182  0.00  0.00    +0.000 A 
ENDBRANCH  19  20
ENDBRANCH  18  19
ENDBRANCH  13  18
TORSDOF 3
ENDMDL
MODEL 3
REMARK VINA RESULT:      -7.5      0.723      1.274
REMARK  Name = 
REMARK  3 active torsions:
REMARK  status: ('A' for Active; 'I' for Inactive)
REMARK    1  A    between atoms: C_13  and  O_14
REMARK    2  A    between atoms: O_14  and  C_15
REMARK    3  A    between atoms: C_15  and  C_16
REMARK                            x       y       z     vdW  Elec       q    Type
REMARK                         _______ _______ _______ _____ _____    ______ ____
ROOT
ATOM      1  O   UNL     1       3.045   1.379  18.102  0.00  0.00    +0.000 OA
ATOM      2  C   UNL     1       3.428   2.528  18.294  0.00  0.00    +0.000 A 
ATOM      3  N   UNL     1       4.534   3.055  17.674  0.00  0.00    +0.000 NA
ATOM      4  C   UNL     1       4.966   4.225  18.002  0.00  0.00    +0.000 A 
ATOM      5  N   UNL     1       6.064   4.853  17.480  0.00  0.00    +0.000 N 
ATOM      6  C   UNL     1       6.892   5.792  18.253  0.00  0.00    +0.000 C 
ATOM      7  C   UNL     1       7.276   6.990  17.372  0.00  0.00    +0.000 C 
ATOM      8  O   UNL     1       7.915   6.557  16.162  0.00  0.00    +0.000 OA
ATOM      9  C   UNL     1       7.050   5.682  15.415  0.00  0.00    +0.000 C 
ATOM     10  C   UNL     1       6.685   4.428  16.226  0.00  0.00    +0.000 C 
ATOM     11  O   UNL     1       4.328   5.049  18.901  0.00  0.00    +0.000 OA
ATOM     12  C   UNL     1       3.075   4.679  19.373  0.00  0.00    +0.000 A 
ATOM     13  C   UNL     1       2.312   5.623  20.065  0.00  0.00    +0.000 A 
ATOM     14  C   UNL     1       1.174   5.186  20.743  0.00  0.00    +0.000 A 
ATOM     15  C   UNL     1       0.765   3.849  20.645  0.00  0.00    +0.000 A 
ATOM     16  C   UNL     1       1.476   2.953  19.841  0.00  0.00    +0.000 A 
ATOM     17  C   UNL     1       2.639   3.382  19.199  0.00  0.00    +0.000 A 
ENDROOT
BRANCH  13  18
ATOM     18  O   UNL     1       2.578   6.971  20.125  0.00  0.00    +0.000 OA
BRANCH  18  19
ATOM     19  C   UNL     1       1.569   7.804  19.530  0.00  0.00    +0.000 C 
BRANCH  19  20
ATOM     20  C   UNL     1       0.969   8.770  20.508  0.00  0.00    +0.000 A 
ATOM     21  C   UNL     1       0.225   8.360  21.613  0.00  0.00    +0.000 A 
ATOM     22  C   UNL     1      -0.285   9.315  22.484  0.00  0.00    +0.000 A 
ATOM     23  C   UNL     1      -0.014  10.651  22.233  0.00  0.00    +0.000 A 
ATOM     24  N   UNL     1       0.742  11.082  21.204  0.00  0.00    +0.000 NA
ATOM     25  C   UNL     1       1.219  10.135  20.369  0.00  0.00    +0.000 A 
ENDBRANCH  19  20
ENDBRANCH  18  19
ENDBRANCH  13  18
TORSDOF 3
ENDMDL
MODEL 4
REMARK VINA RESULT:      -7.5      2.097      5.486
REMARK  Name = 
REMARK  3 active torsions:
REMARK  status: ('A' for Active; 'I' for Inactive)
REMARK    1  A    between atoms: C_13  and  O_14
REMARK    2  A    between atoms: O_14  and  C_15
REMARK    3  A    between atoms: C_15  and  C_16
REMARK                            x       y       z     vdW  Elec       q    Type
REMARK                         _______ _______ _______ _____ _____    ______ ____
ROOT
ATOM      1  O   UNL     1       2.210  10.180  17.562  0.00  0.00    +0.000 OA
ATOM      2  C   UNL     1       2.505   9.036  17.890  0.00  0.00    +0.000 A 
ATOM      3  N   UNL     1       3.438   8.288  17.217  0.00  0.00    +0.000 NA
ATOM      4  C   UNL     1       3.623   7.049  17.527  0.00  0.00    +0.000 A 
ATOM      5  N   UNL     1       4.502   6.191  16.922  0.00  0.00    +0.000 N 
ATOM      6  C   UNL     1       4.256   4.745  16.807  0.00  0.00    +0.000 C 
ATOM      7  C   UNL     1       5.556   3.976  17.085  0.00  0.00    +0.000 C 
ATOM      8  O   UNL     1       6.616   4.426  16.228  0.00  0.00    +0.000 OA
ATOM      9  C   UNL     1       6.854   5.834  16.412  0.00  0.00    +0.000 C 
ATOM     10  C   UNL     1       5.602   6.663  16.081  0.00  0.00    +0.000 C 
ATOM     11  O   UNL     1       2.990   6.423  18.576  0.00  0.00    +0.000 OA
ATOM     12  C   UNL     1       2.226   7.188  19.447  0.00  0.00    +0.000 A 
ATOM     13  C   UNL     1       1.806   6.618  20.651  0.00  0.00    +0.000 A 
ATOM     14  C   UNL     1       0.846   7.294  21.405  0.00  0.00    +0.000 A 
ATOM     15  C   UNL     1       0.394   8.556  21.001  0.00  0.00    +0.000 A 
ATOM     16  C   UNL     1       0.925   9.162  19.858  0.00  0.00    +0.000 A 
ATOM     17  C   UNL     1       1.853   8.466  19.082  0.00  0.00    +0.000 A 
ENDROOT
BRANCH  13  18
ATOM     18  O   UNL     1       2.275   5.437  21.177  0.00  0.00    +0.000 OA
BRANCH  18  19
ATOM     19  C   UNL     1       1.443   4.295  20.910  0.00  0.00    +0.000 C 
BRANCH  19  20
ATOM     20  C   UNL     1       2.106   3.298  20.005  0.00  0.00    +0.000 A 
ATOM     21  C   UNL     1       1.554   2.901  18.789  0.00  0.00    +0.000 A 
ATOM     22  C   UNL     1       2.235   1.985  17.996  0.00  0.00    +0.000 A 
ATOM     23  C   UNL     1       3.461   1.513  18.438  0.00  0.00    +0.000 A 
ATOM     24  N   UNL     1       4.049   1.912  19.584  0.00  0.00    +0.000 NA
ATOM     25  C   UNL     1       3.363   2.796  20.337  0.00  0.00    +0.000 A 
ENDBRANCH  19  20
ENDBRANCH  18  19
ENDBRANCH  13  18
TORSDOF 3
ENDMDL
MODEL 5
REMARK VINA RESULT:      -7.4      1.204      1.572
REMARK  Name = 
REMARK  3 active torsions:
REMARK  status: ('A' for Active; 'I' for Inactive)
REMARK    1  A    between atoms: C_13  and  O_14
REMARK    2  A    between atoms: O_14  and  C_15
REMARK    3  A    between atoms: C_15  and  C_16
REMARK                            x       y       z     vdW  Elec       q    Type
REMARK                         _______ _______ _______ _____ _____    ______ ____
ROOT
ATOM      1  O   UNL     1       4.853   1.362  20.596  0.00  0.00    +0.000 OA
ATOM      2  C   UNL     1       4.685   2.470  20.097  0.00  0.00    +0.000 A 
ATOM      3  N   UNL     1       5.621   3.070  19.291  0.00  0.00    +0.000 NA
ATOM      4  C   UNL     1       5.450   4.284  18.891  0.00  0.00    +0.000 A 
ATOM      5  N   UNL     1       6.312   5.003  18.108  0.00  0.00    +0.000 N 
ATOM      6  C   UNL     1       6.455   6.463  18.207  0.00  0.00    +0.000 C 
ATOM      7  C   UNL     1       6.567   7.069  16.801  0.00  0.00    +0.000 C 
ATOM      8  O   UNL     1       7.634   6.459  16.059  0.00  0.00    +0.000 OA
ATOM      9  C   UNL     1       7.426   5.039  15.944  0.00  0.00    +0.000 C 
ATOM     10  C   UNL     1       7.372   4.367  17.326  0.00  0.00    +0.000 C 
ATOM     11  O   UNL     1       4.317   5.021  19.154  0.00  0.00    +0.000 OA
ATOM     12  C   UNL     1       3.233   4.389  19.747  0.00  0.00    +0.000 A 
ATOM     13  C   UNL     1       2.001   5.048  19.771  0.00  0.00    +0.000 A 
ATOM     14  C   UNL     1       0.985   4.526  20.572  0.00  0.00    +0.000 A 
ATOM     15  C   UNL     1       1.178   3.318  21.256  0.00  0.00    +0.000 A 
ATOM     16  C   UNL     1       2.376   2.612  21.114  0.00  0.00    +0.000 A 
ATOM     17  C   UNL     1       3.407   3.158  20.346  0.00  0.00    +0.000 A 
ENDROOT
BRANCH  13  18
ATOM     18  O   UNL     1       1.689   6.176  19.049  0.00  0.00    +0.000 OA
BRANCH  18  19
ATOM     19  C   UNL     1       2.352   7.371  19.497  0.00  0.00    +0.000 C 
BRANCH  19  20
ATOM     20  C   UNL     1       1.417   8.332  20.169  0.00  0.00    +0.000 A 
ATOM     21  C   UNL     1       0.982   8.166  21.482  0.00  0.00    +0.000 A 
ATOM     22  C   UNL     1       0.128   9.109  22.043  0.00  0.00    +0.000 A 
ATOM     23  C   UNL     1      -0.246  10.201  21.275  0.00  0.00    +0.000 A 
ATOM     24  N   UNL     1       0.194  10.420  20.019  0.00  0.00    +0.000 NA
ATOM     25  C   UNL     1       1.016   9.486  19.498  0.00  0.00    +0.000 A 
ENDBRANCH  19  20
ENDBRANCH  18  19
ENDBRANCH  13  18
TORSDOF 3
ENDMDL
MODEL 6
REMARK VINA RESULT:      -7.2      7.089     10.804
REMARK  Name = 
REMARK  3 active torsions:
REMARK  status: ('A' for Active; 'I' for Inactive)
REMARK    1  A    between atoms: C_13  and  O_14
REMARK    2  A    between atoms: O_14  and  C_15
REMARK    3  A    between atoms: C_15  and  C_16
REMARK                            x       y       z     vdW  Elec       q    Type
REMARK                         _______ _______ _______ _____ _____    ______ ____
ROOT
ATOM      1  O   UNL     1      -6.881  11.501  18.339  0.00  0.00    +0.000 OA
ATOM      2  C   UNL     1      -5.819  11.812  18.868  0.00  0.00    +0.000 A 
ATOM      3  N   UNL     1      -5.741  12.280  20.155  0.00  0.00    +0.000 NA
ATOM      4  C   UNL     1      -4.618  12.707  20.624  0.00  0.00    +0.000 A 
ATOM      5  N   UNL     1      -4.410  13.218  21.876  0.00  0.00    +0.000 N 
ATOM      6  C   UNL     1      -3.399  14.248  22.162  0.00  0.00    +0.000 C 
ATOM      7  C   UNL     1      -2.685  13.920  23.482  0.00  0.00    +0.000 C 
ATOM      8  O   UNL     1      -3.627  13.759  24.552  0.00  0.00    +0.000 OA
ATOM      9  C   UNL     1      -4.564  12.708  24.250  0.00  0.00    +0.000 C 
ATOM     10  C   UNL     1      -5.359  13.015  22.971  0.00  0.00    +0.000 C 
ATOM     11  O   UNL     1      -3.431  12.649  19.929  0.00  0.00    +0.000 OA
ATOM     12  C   UNL     1      -3.396  11.960  18.724  0.00  0.00    +0.000 A 
ATOM     13  C   UNL     1      -2.155  11.667  18.152  0.00  0.00    +0.000 A 
ATOM     14  C   UNL     1      -2.125  11.199  16.839  0.00  0.00    +0.000 A 
ATOM     15  C   UNL     1      -3.320  10.941  16.155  0.00  0.00    +0.000 A 
ATOM     16  C   UNL     1      -4.550  11.122  16.794  0.00  0.00    +0.000 A 
ATOM     17  C   UNL     1      -4.579  11.632  18.094  0.00  0.00    +0.000 A 
ENDROOT
BRANCH  13  18
ATOM     18  O   UNL     1      -0.940  11.787  18.786  0.00  0.00    +0.000 OA
BRANCH  18  19
ATOM     19  C   UNL     1      -0.320  10.535  19.123  0.00  0.00    +0.000 C 
BRANCH  19  20
ATOM     20  C   UNL     1      -0.353  10.254  20.597  0.00  0.00    +0.000 A 
ATOM     21  C   UNL     1      -0.230   8.969  21.122  0.00  0.00    +0.000 A 
ATOM     22  C   UNL     1      -0.253   8.790  22.500  0.00  0.00    +0.000 A 
ATOM     23  C   UNL     1      -0.376   9.907  23.310  0.00  0.00    +0.000 A 
ATOM     24  N   UNL     1      -0.447  11.170  22.840  0.00  0.00    +0.000 NA
ATOM     25  C   UNL     1      -0.429  11.315  21.499  0.00  0.00    +0.000 A 
ENDBRANCH  19  20
ENDBRANCH  18  19
ENDBRANCH  13  18
TORSDOF 3
ENDMDL
MODEL 7
REMARK VINA RESULT:      -7.1      1.200      1.250
REMARK  Name = 
REMARK  3 active torsions:
REMARK  status: ('A' for Active; 'I' for Inactive)
REMARK    1  A    between atoms: C_13  and  O_14
REMARK    2  A    between atoms: O_14  and  C_15
REMARK    3  A    between atoms: C_15  and  C_16
REMARK                            x       y       z     vdW  Elec       q    Type
REMARK                         _______ _______ _______ _____ _____    ______ ____
ROOT
ATOM      1  O   UNL     1       4.891   1.291  20.619  0.00  0.00    +0.000 OA
ATOM      2  C   UNL     1       4.691   2.385  20.103  0.00  0.00    +0.000 A 
ATOM      3  N   UNL     1       5.613   3.004  19.297  0.00  0.00    +0.000 NA
ATOM      4  C   UNL     1       5.405   4.207  18.878  0.00  0.00    +0.000 A 
ATOM      5  N   UNL     1       6.250   4.942  18.091  0.00  0.00    +0.000 N 
ATOM      6  C   UNL     1       6.344   6.408  18.171  0.00  0.00    +0.000 C 
ATOM      7  C   UNL     1       6.448   6.998  16.757  0.00  0.00    +0.000 C 
ATOM      8  O   UNL     1       7.540   6.413  16.033  0.00  0.00    +0.000 OA
ATOM      9  C   UNL     1       7.380   4.986  15.937  0.00  0.00    +0.000 C 
ATOM     10  C   UNL     1       7.337   4.331  17.327  0.00  0.00    +0.000 C 
ATOM     11  O   UNL     1       4.247   4.910  19.121  0.00  0.00    +0.000 OA
ATOM     12  C   UNL     1       3.179   4.250  19.715  0.00  0.00    +0.000 A 
ATOM     13  C   UNL     1       1.926   4.868  19.720  0.00  0.00    +0.000 A 
ATOM     14  C   UNL     1       0.921   4.324  20.521  0.00  0.00    +0.000 A 
ATOM     15  C   UNL     1       1.148   3.134  21.223  0.00  0.00    +0.000 A 
ATOM     16  C   UNL     1       2.370   2.465  21.100  0.00  0.00    +0.000 A 
ATOM     17  C   UNL     1       3.389   3.034  20.333  0.00  0.00    +0.000 A 
ENDROOT
BRANCH  13  18
ATOM     18  O   UNL     1       1.584   5.976  18.979  0.00  0.00    +0.000 OA
BRANCH  18  19
ATOM     19  C   UNL     1       2.494   7.081  19.106  0.00  0.00    +0.000 C 
BRANCH  19  20
ATOM     20  C   UNL     1       1.789   8.388  19.318  0.00  0.00    +0.000 A 
ATOM     21  C   UNL     1       1.650   9.341  18.312  0.00  0.00    +0.000 A 
ATOM     22  C   UNL     1       0.968  10.523  18.580  0.00  0.00    +0.000 A 
ATOM     23  C   UNL     1       0.427  10.701  19.843  0.00  0.00    +0.000 A 
ATOM     24  N   UNL     1       0.499   9.780  20.826  0.00  0.00    +0.000 NA
ATOM     25  C   UNL     1       1.172   8.646  20.541  0.00  0.00    +0.000 A 
ENDBRANCH  19  20
ENDBRANCH  18  19
ENDBRANCH  13  18
TORSDOF 3
ENDMDL
MODEL 8
REMARK VINA RESULT:      -7.0      1.389      1.723
REMARK  Name = 
REMARK  3 active torsions:
REMARK  status: ('A' for Active; 'I' for Inactive)
REMARK    1  A    between atoms: C_13  and  O_14
REMARK    2  A    between atoms: O_14  and  C_15
REMARK    3  A    between atoms: C_15  and  C_16
REMARK                            x       y       z     vdW  Elec       q    Type
REMARK                         _______ _______ _______ _____ _____    ______ ____
ROOT
ATOM      1  O   UNL     1       2.631   1.943  19.269  0.00  0.00    +0.000 OA
ATOM      2  C   UNL     1       3.121   3.010  18.915  0.00  0.00    +0.000 A 
ATOM      3  N   UNL     1       4.134   3.091  17.992  0.00  0.00    +0.000 NA
ATOM      4  C   UNL     1       4.697   4.225  17.743  0.00  0.00    +0.000 A 
ATOM      5  N   UNL     1       5.727   4.437  16.868  0.00  0.00    +0.000 N 
ATOM      6  C   UNL     1       6.740   5.485  17.064  0.00  0.00    +0.000 C 
ATOM      7  C   UNL     1       7.046   6.168  15.723  0.00  0.00    +0.000 C 
ATOM      8  O   UNL     1       7.430   5.207  14.730  0.00  0.00    +0.000 OA
ATOM      9  C   UNL     1       6.389   4.232  14.535  0.00  0.00    +0.000 C 
ATOM     10  C   UNL     1       6.087   3.467  15.834  0.00  0.00    +0.000 C 
ATOM     11  O   UNL     1       4.285   5.417  18.295  0.00  0.00    +0.000 OA
ATOM     12  C   UNL     1       3.113   5.439  19.038  0.00  0.00    +0.000 A 
ATOM     13  C   UNL     1       2.550   6.674  19.370  0.00  0.00    +0.000 A 
ATOM     14  C   UNL     1       1.522   6.702  20.312  0.00  0.00    +0.000 A 
ATOM     15  C   UNL     1       1.011   5.506  20.833  0.00  0.00    +0.000 A 
ATOM     16  C   UNL     1       1.506   4.276  20.388  0.00  0.00    +0.000 A 
ATOM     17  C   UNL     1       2.564   4.252  19.478  0.00  0.00    +0.000 A 
ENDROOT
BRANCH  13  18
ATOM     18  O   UNL     1       2.915   7.884  18.829  0.00  0.00    +0.000 OA
BRANCH  18  19
ATOM     19  C   UNL     1       2.051   8.353  17.781  0.00  0.00    +0.000 C 
BRANCH  19  20
ATOM     20  C   UNL     1       1.399   9.663  18.113  0.00  0.00    +0.000 A 
ATOM     21  C   UNL     1       0.019   9.809  18.234  0.00  0.00    +0.000 A 
ATOM     22  C   UNL     1      -0.509  11.053  18.562  0.00  0.00    +0.000 A 
ATOM     23  C   UNL     1       0.365  12.106  18.779  0.00  0.00    +0.000 A 
ATOM     24  N   UNL     1       1.707  11.990  18.720  0.00  0.00    +0.000 NA
ATOM     25  C   UNL     1       2.193  10.775  18.393  0.00  0.00    +0.000 A 
ENDBRANCH  19  20
ENDBRANCH  18  19
ENDBRANCH  13  18
TORSDOF 3
ENDMDL
MODEL 9
REMARK VINA RESULT:      -6.9      7.003     10.885
REMARK  Name = 
REMARK  3 active torsions:
REMARK  status: ('A' for Active; 'I' for Inactive)
REMARK    1  A    between atoms: C_13  and  O_14
REMARK    2  A    between atoms: O_14  and  C_15
REMARK    3  A    between atoms: C_15  and  C_16
REMARK                            x       y       z     vdW  Elec       q    Type
REMARK                         _______ _______ _______ _____ _____    ______ ____
ROOT
ATOM      1  O   UNL     1      -6.985  11.218  18.880  0.00  0.00    +0.000 OA
ATOM      2  C   UNL     1      -5.917  11.643  19.309  0.00  0.00    +0.000 A 
ATOM      3  N   UNL     1      -5.774  12.144  20.578  0.00  0.00    +0.000 NA
ATOM      4  C   UNL     1      -4.662  12.690  20.940  0.00  0.00    +0.000 A 
ATOM      5  N   UNL     1      -4.398  13.245  22.162  0.00  0.00    +0.000 N 
ATOM      6  C   UNL     1      -3.473  14.375  22.345  0.00  0.00    +0.000 C 
ATOM      7  C   UNL     1      -2.618  14.147  23.599  0.00  0.00    +0.000 C 
ATOM      8  O   UNL     1      -3.443  13.916  24.751  0.00  0.00    +0.000 OA
ATOM      9  C   UNL     1      -4.293  12.772  24.547  0.00  0.00    +0.000 C 
ATOM     10  C   UNL     1      -5.222  12.973  23.339  0.00  0.00    +0.000 C 
ATOM     11  O   UNL     1      -3.540  12.733  20.143  0.00  0.00    +0.000 OA
ATOM     12  C   UNL     1      -3.542  12.026  18.948  0.00  0.00    +0.000 A 
ATOM     13  C   UNL     1      -2.333  11.844  18.272  0.00  0.00    +0.000 A 
ATOM     14  C   UNL     1      -2.370  11.353  16.967  0.00  0.00    +0.000 A 
ATOM     15  C   UNL     1      -3.589  10.965  16.396  0.00  0.00    +0.000 A 
ATOM     16  C   UNL     1      -4.771  11.037  17.140  0.00  0.00    +0.000 A 
ATOM     17  C   UNL     1      -4.737  11.570  18.430  0.00  0.00    +0.000 A 
ENDROOT
BRANCH  13  18
ATOM     18  O   UNL     1      -1.086  12.096  18.794  0.00  0.00    +0.000 OA
BRANCH  18  19
ATOM     19  C   UNL     1      -0.321  10.918  19.102  0.00  0.00    +0.000 C 
BRANCH  19  20
ATOM     20  C   UNL     1      -0.396  10.544  20.553  0.00  0.00    +0.000 A 
ATOM     21  C   UNL     1      -0.750  11.453  21.548  0.00  0.00    +0.000 A 
ATOM     22  C   UNL     1      -0.815  11.026  22.869  0.00  0.00    +0.000 A 
ATOM     23  C   UNL     1      -0.544   9.697  23.149  0.00  0.00    +0.000 A 
ATOM     24  N   UNL     1      -0.248   8.778  22.207  0.00  0.00    +0.000 NA
ATOM     25  C   UNL     1      -0.185   9.220  20.934  0.00  0.00    +0.000 A 
ENDBRANCH  19  20
ENDBRANCH  18  19
ENDBRANCH  13  18
TORSDOF 3
ENDMDL
