MODEL 1
REMARK VINA RESULT:      -7.8      0.000      0.000
REMARK  Name = 
REMARK  14 active torsions:
REMARK  status: ('A' for Active; 'I' for Inactive)
REMARK    1  A    between atoms: C_1  and  C_2
REMARK    2  A    between atoms: C_2  and  C_3
REMARK    3  A    between atoms: C_3  and  C_4
REMARK    4  A    between atoms: C_4  and  C_5
REMARK    5  A    between atoms: C_5  and  C_6
REMARK    6  A    between atoms: C_6  and  C_7
REMARK    7  A    between atoms: C_6  and  C_12
REMARK    8  A    between atoms: C_7  and  N_8
REMARK    9  A    between atoms: N_8  and  O_9
REMARK   10  A    between atoms: N_14  and  C_15
REMARK   11  A    between atoms: C_15  and  N_16
REMARK   12  A    between atoms: C_17  and  C_19
REMARK   13  A    between atoms: C_23  and  C_24
REMARK   14  A    between atoms: C_28  and  O_29
REMARK                            x       y       z     vdW  Elec       q    Type
REMARK                         _______ _______ _______ _____ _____    ______ ____
ROOT
ATOM      1  N   UNL     1       1.962   8.156  19.509  0.00  0.00    +0.000 N 
ATOM      2  C   UNL     1       1.242   8.686  20.562  0.00  0.00    +0.000 C 
ATOM      3  O   UNL     1       1.252   8.195  21.684  0.00  0.00    +0.000 OA
ATOM      4  H   UNL     1       2.000   8.613  18.614  0.00  0.00    +0.000 HD
ENDROOT
BRANCH   2   5
ATOM      5  C   UNL     1       0.452   9.921  20.310  0.00  0.00    +0.000 A 
ATOM      6  C   UNL     1       0.632  10.990  21.194  0.00  0.00    +0.000 A 
ATOM      7  C   UNL     1      -0.121  12.149  21.052  0.00  0.00    +0.000 A 
ATOM      8  C   UNL     1      -1.079  12.231  20.042  0.00  0.00    +0.000 A 
ATOM      9  C   UNL     1      -1.305  11.171  19.141  0.00  0.00    +0.000 A 
ATOM     10  C   UNL     1      -0.505  10.016  19.287  0.00  0.00    +0.000 A 
BRANCH   9  11
ATOM     11  C   UNL     1      -2.395  11.257  18.137  0.00  0.00    +0.000 A 
ATOM     12  C   UNL     1      -3.685  11.711  18.485  0.00  0.00    +0.000 A 
ATOM     13  C   UNL     1      -4.743  11.694  17.569  0.00  0.00    +0.000 A 
ATOM     14  C   UNL     1      -4.533  11.245  16.270  0.00  0.00    +0.000 A 
ATOM     15  C   UNL     1      -3.260  10.825  15.901  0.00  0.00    +0.000 A 
ATOM     16  C   UNL     1      -2.209  10.828  16.812  0.00  0.00    +0.000 A 
BRANCH  15  17
ATOM     17  O   UNL     1      -3.002  10.379  14.637  0.00  0.00    +0.000 OA
ATOM     18  H   UNL     1      -2.492   9.552  14.691  0.00  0.00    +0.000 HD
ENDBRANCH  15  17
ENDBRANCH   9  11
ENDBRANCH   2   5
BRANCH   1  19
ATOM     19  C   UNL     1       2.723   6.963  19.735  0.00  0.00    +0.000 C 
BRANCH  19  22
ATOM     20  C   UNL     1       3.743   5.174  18.466  0.00  0.00    +0.000 C 
ATOM     21  O   UNL     1       4.539   4.935  19.371  0.00  0.00    +0.000 OA
ATOM     22  N   UNL     1       2.766   6.145  18.555  0.00  0.00    +0.000 N 
ATOM     23  H   UNL     1       2.407   6.547  17.702  0.00  0.00    +0.000 HD
BRANCH  20  24
ATOM     24  C   UNL     1       3.760   4.391  17.153  0.00  0.00    +0.000 C 
BRANCH  24  25
ATOM     25  C   UNL     1       2.613   3.357  17.123  0.00  0.00    +0.000 C 
BRANCH  25  26
ATOM     26  C   UNL     1       2.955   2.096  17.929  0.00  0.00    +0.000 C 
BRANCH  26  27
ATOM     27  C   UNL     1       1.958   1.827  19.060  0.00  0.00    +0.000 C 
BRANCH  27  29
ATOM     28  C   UNL     1       0.981   3.679  20.489  0.00  0.00    +0.000 C 
ATOM     29  C   UNL     1       0.942   2.970  19.146  0.00  0.00    +0.000 C 
ENDBRANCH  27  29
ENDBRANCH  26  27
ENDBRANCH  25  26
ENDBRANCH  24  25
BRANCH  24  30
ATOM     30  C   UNL     1       5.151   3.763  16.960  0.00  0.00    +0.000 C 
BRANCH  30  31
ATOM     31  N   UNL     1       6.254   4.702  17.136  0.00  0.00    +0.000 N 
ATOM     32  C   UNL     1       6.800   5.404  16.082  0.00  0.00    +0.000 C 
ATOM     33  O   UNL     1       6.307   5.524  14.966  0.00  0.00    +0.000 OA
BRANCH  31  34
ATOM     34  O   UNL     1       7.214   4.255  18.073  0.00  0.00    +0.000 OA
ATOM     35  H   UNL     1       6.651   4.021  18.836  0.00  0.00    +0.000 HD
ENDBRANCH  31  34
ENDBRANCH  30  31
ENDBRANCH  24  30
ENDBRANCH  20  24
ENDBRANCH  19  22
ENDBRANCH   1  19
TORSDOF 13
ENDMDL
MODEL 2
REMARK VINA RESULT:      -7.8      1.155      1.470
REMARK  Name = 
REMARK  14 active torsions:
REMARK  status: ('A' for Active; 'I' for Inactive)
REMARK    1  A    between atoms: C_1  and  C_2
REMARK    2  A    between atoms: C_2  and  C_3
REMARK    3  A    between atoms: C_3  and  C_4
REMARK    4  A    between atoms: C_4  and  C_5
REMARK    5  A    between atoms: C_5  and  C_6
REMARK    6  A    between atoms: C_6  and  C_7
REMARK    7  A    between atoms: C_6  and  C_12
REMARK    8  A    between atoms: C_7  and  N_8
REMARK    9  A    between atoms: N_8  and  O_9
REMARK   10  A    between atoms: N_14  and  C_15
REMARK   11  A    between atoms: C_15  and  N_16
REMARK   12  A    between atoms: C_17  and  C_19
REMARK   13  A    between atoms: C_23  and  C_24
REMARK   14  A    between atoms: C_28  and  O_29
REMARK                            x       y       z     vdW  Elec       q    Type
REMARK                         _______ _______ _______ _____ _____    ______ ____
ROOT
ATOM      1  N   UNL     1       1.791   8.063  19.996  0.00  0.00    +0.000 N 
ATOM      2  C   UNL     1       1.181   8.895  20.914  0.00  0.00    +0.000 C 
ATOM      3  O   UNL     1       1.335   8.774  22.123  0.00  0.00    +0.000 OA
ATOM      4  H   UNL     1       1.712   8.221  19.006  0.00  0.00    +0.000 HD
ENDROOT
BRANCH   2   5
ATOM      5  C   UNL     1       0.330   9.998  20.391  0.00  0.00    +0.000 A 
ATOM      6  C   UNL     1       0.303  11.190  21.122  0.00  0.00    +0.000 A 
ATOM      7  C   UNL     1      -0.519  12.236  20.723  0.00  0.00    +0.000 A 
ATOM      8  C   UNL     1      -1.342  12.083  19.607  0.00  0.00    +0.000 A 
ATOM      9  C   UNL     1      -1.359  10.892  18.853  0.00  0.00    +0.000 A 
ATOM     10  C   UNL     1      -0.491   9.855  19.261  0.00  0.00    +0.000 A 
BRANCH   9  11
ATOM     11  C   UNL     1      -2.312  10.730  17.726  0.00  0.00    +0.000 A 
ATOM     12  C   UNL     1      -1.984   9.968  16.586  0.00  0.00    +0.000 A 
ATOM     13  C   UNL     1      -2.835   9.899  15.476  0.00  0.00    +0.000 A 
ATOM     14  C   UNL     1      -4.052  10.572  15.489  0.00  0.00    +0.000 A 
ATOM     15  C   UNL     1      -4.405  11.301  16.619  0.00  0.00    +0.000 A 
ATOM     16  C   UNL     1      -3.557  11.382  17.718  0.00  0.00    +0.000 A 
BRANCH  15  17
ATOM     17  O   UNL     1      -5.590  11.975  16.682  0.00  0.00    +0.000 OA
ATOM     18  H   UNL     1      -5.409  12.923  16.804  0.00  0.00    +0.000 HD
ENDBRANCH  15  17
ENDBRANCH   9  11
ENDBRANCH   2   5
BRANCH   1  19
ATOM     19  C   UNL     1       2.608   6.992  20.484  0.00  0.00    +0.000 C 
BRANCH  19  22
ATOM     20  C   UNL     1       3.313   6.012  18.389  0.00  0.00    +0.000 C 
ATOM     21  O   UNL     1       3.983   7.002  18.107  0.00  0.00    +0.000 OA
ATOM     22  N   UNL     1       2.612   5.884  19.571  0.00  0.00    +0.000 N 
ATOM     23  H   UNL     1       1.816   5.265  19.594  0.00  0.00    +0.000 HD
BRANCH  20  24
ATOM     24  C   UNL     1       3.213   4.814  17.444  0.00  0.00    +0.000 C 
BRANCH  24  25
ATOM     25  C   UNL     1       1.816   4.160  17.542  0.00  0.00    +0.000 C 
BRANCH  25  26
ATOM     26  C   UNL     1       1.896   2.702  18.013  0.00  0.00    +0.000 C 
BRANCH  26  27
ATOM     27  C   UNL     1       0.769   2.330  18.981  0.00  0.00    +0.000 C 
BRANCH  27  29
ATOM     28  C   UNL     1       1.499   2.755  21.372  0.00  0.00    +0.000 C 
ATOM     29  C   UNL     1       0.754   3.300  20.166  0.00  0.00    +0.000 C 
ENDBRANCH  27  29
ENDBRANCH  26  27
ENDBRANCH  25  26
ENDBRANCH  24  25
BRANCH  24  30
ATOM     30  C   UNL     1       4.364   3.838  17.746  0.00  0.00    +0.000 C 
BRANCH  30  31
ATOM     31  N   UNL     1       5.689   4.385  17.477  0.00  0.00    +0.000 N 
ATOM     32  C   UNL     1       6.310   4.247  16.254  0.00  0.00    +0.000 C 
ATOM     33  O   UNL     1       5.772   3.893  15.211  0.00  0.00    +0.000 OA
BRANCH  31  34
ATOM     34  O   UNL     1       6.572   4.254  18.575  0.00  0.00    +0.000 OA
ATOM     35  H   UNL     1       6.682   5.183  18.853  0.00  0.00    +0.000 HD
ENDBRANCH  31  34
ENDBRANCH  30  31
ENDBRANCH  24  30
ENDBRANCH  20  24
ENDBRANCH  19  22
ENDBRANCH   1  19
TORSDOF 13
ENDMDL
MODEL 3
REMARK VINA RESULT:      -7.7      1.120      1.681
REMARK  Name = 
REMARK  14 active torsions:
REMARK  status: ('A' for Active; 'I' for Inactive)
REMARK    1  A    between atoms: C_1  and  C_2
REMARK    2  A    between atoms: C_2  and  C_3
REMARK    3  A    between atoms: C_3  and  C_4
REMARK    4  A    between atoms: C_4  and  C_5
REMARK    5  A    between atoms: C_5  and  C_6
REMARK    6  A    between atoms: C_6  and  C_7
REMARK    7  A    between atoms: C_6  and  C_12
REMARK    8  A    between atoms: C_7  and  N_8
REMARK    9  A    between atoms: N_8  and  O_9
REMARK   10  A    between atoms: N_14  and  C_15
REMARK   11  A    between atoms: C_15  and  N_16
REMARK   12  A    between atoms: C_17  and  C_19
REMARK   13  A    between atoms: C_23  and  C_24
REMARK   14  A    between atoms: C_28  and  O_29
REMARK                            x       y       z     vdW  Elec       q    Type
REMARK                         _______ _______ _______ _____ _____    ______ ____
ROOT
ATOM      1  N   UNL     1       1.469   8.214  19.605  0.00  0.00    +0.000 N 
ATOM      2  C   UNL     1       1.064   8.990  20.673  0.00  0.00    +0.000 C 
ATOM      3  O   UNL     1       1.529   8.862  21.799  0.00  0.00    +0.000 OA
ATOM      4  H   UNL     1       1.130   8.381  18.672  0.00  0.00    +0.000 HD
ENDROOT
BRANCH   2   5
ATOM      5  C   UNL     1       0.040  10.039  20.419  0.00  0.00    +0.000 A 
ATOM      6  C   UNL     1      -0.205  10.959  21.443  0.00  0.00    +0.000 A 
ATOM      7  C   UNL     1      -1.191  11.925  21.295  0.00  0.00    +0.000 A 
ATOM      8  C   UNL     1      -1.959  11.956  20.131  0.00  0.00    +0.000 A 
ATOM      9  C   UNL     1      -1.757  11.037  19.081  0.00  0.00    +0.000 A 
ATOM     10  C   UNL     1      -0.727  10.084  19.244  0.00  0.00    +0.000 A 
BRANCH   9  11
ATOM     11  C   UNL     1      -2.652  11.041  17.896  0.00  0.00    +0.000 A 
ATOM     12  C   UNL     1      -2.191  10.653  16.621  0.00  0.00    +0.000 A 
ATOM     13  C   UNL     1      -2.999  10.756  15.483  0.00  0.00    +0.000 A 
ATOM     14  C   UNL     1      -4.302  11.228  15.594  0.00  0.00    +0.000 A 
ATOM     15  C   UNL     1      -4.783  11.584  16.849  0.00  0.00    +0.000 A 
ATOM     16  C   UNL     1      -3.980  11.495  17.980  0.00  0.00    +0.000 A 
BRANCH  15  17
ATOM     17  O   UNL     1      -6.056  12.049  17.011  0.00  0.00    +0.000 OA
ATOM     18  H   UNL     1      -6.647  11.573  16.401  0.00  0.00    +0.000 HD
ENDBRANCH  15  17
ENDBRANCH   9  11
ENDBRANCH   2   5
BRANCH   1  19
ATOM     19  C   UNL     1       2.450   7.195  19.835  0.00  0.00    +0.000 C 
BRANCH  19  22
ATOM     20  C   UNL     1       3.859   5.629  18.647  0.00  0.00    +0.000 C 
ATOM     21  O   UNL     1       4.327   5.195  19.697  0.00  0.00    +0.000 OA
ATOM     22  N   UNL     1       2.886   6.606  18.600  0.00  0.00    +0.000 N 
ATOM     23  H   UNL     1       2.813   7.173  17.769  0.00  0.00    +0.000 HD
BRANCH  20  24
ATOM     24  C   UNL     1       4.313   5.101  17.286  0.00  0.00    +0.000 C 
BRANCH  24  25
ATOM     25  C   UNL     1       4.320   3.556  17.278  0.00  0.00    +0.000 C 
BRANCH  25  26
ATOM     26  C   UNL     1       2.910   2.976  17.109  0.00  0.00    +0.000 C 
BRANCH  26  27
ATOM     27  C   UNL     1       2.384   2.313  18.386  0.00  0.00    +0.000 C 
BRANCH  27  29
ATOM     28  C   UNL     1       1.096   3.571  20.171  0.00  0.00    +0.000 C 
ATOM     29  C   UNL     1       1.047   2.940  18.791  0.00  0.00    +0.000 C 
ENDBRANCH  27  29
ENDBRANCH  26  27
ENDBRANCH  25  26
ENDBRANCH  24  25
BRANCH  24  30
ATOM     30  C   UNL     1       5.680   5.717  16.938  0.00  0.00    +0.000 C 
BRANCH  30  31
ATOM     31  N   UNL     1       6.773   4.752  16.907  0.00  0.00    +0.000 N 
ATOM     32  C   UNL     1       7.686   4.639  17.934  0.00  0.00    +0.000 C 
ATOM     33  O   UNL     1       7.570   5.121  19.055  0.00  0.00    +0.000 OA
BRANCH  31  34
ATOM     34  O   UNL     1       7.350   4.615  15.623  0.00  0.00    +0.000 OA
ATOM     35  H   UNL     1       7.924   3.835  15.746  0.00  0.00    +0.000 HD
ENDBRANCH  31  34
ENDBRANCH  30  31
ENDBRANCH  24  30
ENDBRANCH  20  24
ENDBRANCH  19  22
ENDBRANCH   1  19
TORSDOF 13
ENDMDL
MODEL 4
REMARK VINA RESULT:      -7.7      3.486      9.810
REMARK  Name = 
REMARK  14 active torsions:
REMARK  status: ('A' for Active; 'I' for Inactive)
REMARK    1  A    between atoms: C_1  and  C_2
REMARK    2  A    between atoms: C_2  and  C_3
REMARK    3  A    between atoms: C_3  and  C_4
REMARK    4  A    between atoms: C_4  and  C_5
REMARK    5  A    between atoms: C_5  and  C_6
REMARK    6  A    between atoms: C_6  and  C_7
REMARK    7  A    between atoms: C_6  and  C_12
REMARK    8  A    between atoms: C_7  and  N_8
REMARK    9  A    between atoms: N_8  and  O_9
REMARK   10  A    between atoms: N_14  and  C_15
REMARK   11  A    between atoms: C_15  and  N_16
REMARK   12  A    between atoms: C_17  and  C_19
REMARK   13  A    between atoms: C_23  and  C_24
REMARK   14  A    between atoms: C_28  and  O_29
REMARK                            x       y       z     vdW  Elec       q    Type
REMARK                         _______ _______ _______ _____ _____    ______ ____
ROOT
ATOM      1  N   UNL     1       0.773   9.598  22.292  0.00  0.00    +0.000 N 
ATOM      2  C   UNL     1       0.370   8.622  21.402  0.00  0.00    +0.000 C 
ATOM      3  O   UNL     1      -0.636   7.943  21.574  0.00  0.00    +0.000 OA
ATOM      4  H   UNL     1       1.559  10.195  22.099  0.00  0.00    +0.000 HD
ENDROOT
BRANCH   2   5
ATOM      5  C   UNL     1       1.187   8.422  20.175  0.00  0.00    +0.000 A 
ATOM      6  C   UNL     1       1.237   9.476  19.258  0.00  0.00    +0.000 A 
ATOM      7  C   UNL     1       1.931   9.332  18.063  0.00  0.00    +0.000 A 
ATOM      8  C   UNL     1       2.553   8.120  17.768  0.00  0.00    +0.000 A 
ATOM      9  C   UNL     1       2.513   7.026  18.656  0.00  0.00    +0.000 A 
ATOM     10  C   UNL     1       1.827   7.208  19.877  0.00  0.00    +0.000 A 
BRANCH   9  11
ATOM     11  C   UNL     1       3.108   5.722  18.269  0.00  0.00    +0.000 A 
ATOM     12  C   UNL     1       2.320   4.680  17.735  0.00  0.00    +0.000 A 
ATOM     13  C   UNL     1       2.855   3.415  17.469  0.00  0.00    +0.000 A 
ATOM     14  C   UNL     1       4.202   3.163  17.707  0.00  0.00    +0.000 A 
ATOM     15  C   UNL     1       5.000   4.189  18.202  0.00  0.00    +0.000 A 
ATOM     16  C   UNL     1       4.469   5.444  18.481  0.00  0.00    +0.000 A 
BRANCH  15  17
ATOM     17  O   UNL     1       6.328   3.994  18.449  0.00  0.00    +0.000 OA
ATOM     18  H   UNL     1       6.593   3.128  18.093  0.00  0.00    +0.000 HD
ENDBRANCH  15  17
ENDBRANCH   9  11
ENDBRANCH   2   5
BRANCH   1  19
ATOM     19  C   UNL     1      -0.001   9.798  23.482  0.00  0.00    +0.000 C 
BRANCH  19  22
ATOM     20  C   UNL     1      -1.218  11.723  22.669  0.00  0.00    +0.000 C 
ATOM     21  O   UNL     1      -0.177  12.313  22.392  0.00  0.00    +0.000 OA
ATOM     22  N   UNL     1      -1.249  10.444  23.187  0.00  0.00    +0.000 N 
ATOM     23  H   UNL     1      -2.052  10.163  23.727  0.00  0.00    +0.000 HD
BRANCH  20  24
ATOM     24  C   UNL     1      -2.589  12.363  22.444  0.00  0.00    +0.000 C 
BRANCH  24  25
ATOM     25  C   UNL     1      -2.588  13.205  21.148  0.00  0.00    +0.000 C 
BRANCH  25  26
ATOM     26  C   UNL     1      -3.059  12.391  19.936  0.00  0.00    +0.000 C 
BRANCH  26  27
ATOM     27  C   UNL     1      -1.898  11.869  19.084  0.00  0.00    +0.000 C 
BRANCH  27  29
ATOM     28  C   UNL     1      -1.855  10.101  17.267  0.00  0.00    +0.000 C 
ATOM     29  C   UNL     1      -2.409  11.446  17.704  0.00  0.00    +0.000 C 
ENDBRANCH  27  29
ENDBRANCH  26  27
ENDBRANCH  25  26
ENDBRANCH  24  25
BRANCH  24  30
ATOM     30  C   UNL     1      -2.977  13.172  23.694  0.00  0.00    +0.000 C 
BRANCH  30  31
ATOM     31  N   UNL     1      -2.845  14.616  23.529  0.00  0.00    +0.000 N 
ATOM     32  C   UNL     1      -1.801  15.328  24.081  0.00  0.00    +0.000 C 
ATOM     33  O   UNL     1      -0.770  14.852  24.542  0.00  0.00    +0.000 OA
BRANCH  31  34
ATOM     34  O   UNL     1      -4.085  15.293  23.592  0.00  0.00    +0.000 OA
ATOM     35  H   UNL     1      -4.280  15.260  24.548  0.00  0.00    +0.000 HD
ENDBRANCH  31  34
ENDBRANCH  30  31
ENDBRANCH  24  30
ENDBRANCH  20  24
ENDBRANCH  19  22
ENDBRANCH   1  19
TORSDOF 13
ENDMDL
MODEL 5
REMARK VINA RESULT:      -7.7      2.977      4.800
REMARK  Name = 
REMARK  14 active torsions:
REMARK  status: ('A' for Active; 'I' for Inactive)
REMARK    1  A    between atoms: C_1  and  C_2
REMARK    2  A    between atoms: C_2  and  C_3
REMARK    3  A    between atoms: C_3  and  C_4
REMARK    4  A    between atoms: C_4  and  C_5
REMARK    5  A    between atoms: C_5  and  C_6
REMARK    6  A    between atoms: C_6  and  C_7
REMARK    7  A    between atoms: C_6  and  C_12
REMARK    8  A    between atoms: C_7  and  N_8
REMARK    9  A    between atoms: N_8  and  O_9
REMARK   10  A    between atoms: N_14  and  C_15
REMARK   11  A    between atoms: C_15  and  N_16
REMARK   12  A    between atoms: C_17  and  C_19
REMARK   13  A    between atoms: C_23  and  C_24
REMARK   14  A    between atoms: C_28  and  O_29
REMARK                            x       y       z     vdW  Elec       q    Type
REMARK                         _______ _______ _______ _____ _____    ______ ____
ROOT
ATOM      1  N   UNL     1       2.019   8.206  19.048  0.00  0.00    +0.000 N 
ATOM      2  C   UNL     1       1.270   9.359  19.174  0.00  0.00    +0.000 C 
ATOM      3  O   UNL     1       1.029  10.098  18.228  0.00  0.00    +0.000 OA
ATOM      4  H   UNL     1       2.147   7.573  19.820  0.00  0.00    +0.000 HD
ENDROOT
BRANCH   2   5
ATOM      5  C   UNL     1       0.718   9.684  20.517  0.00  0.00    +0.000 A 
ATOM      6  C   UNL     1       1.137   8.894  21.592  0.00  0.00    +0.000 A 
ATOM      7  C   UNL     1       0.612   9.104  22.861  0.00  0.00    +0.000 A 
ATOM      8  C   UNL     1      -0.357  10.087  23.053  0.00  0.00    +0.000 A 
ATOM      9  C   UNL     1      -0.820  10.894  21.994  0.00  0.00    +0.000 A 
ATOM     10  C   UNL     1      -0.249  10.682  20.720  0.00  0.00    +0.000 A 
BRANCH   9  11
ATOM     11  C   UNL     1      -1.919  11.869  22.217  0.00  0.00    +0.000 A 
ATOM     12  C   UNL     1      -2.254  12.836  21.247  0.00  0.00    +0.000 A 
ATOM     13  C   UNL     1      -3.215  13.824  21.494  0.00  0.00    +0.000 A 
ATOM     14  C   UNL     1      -3.886  13.854  22.712  0.00  0.00    +0.000 A 
ATOM     15  C   UNL     1      -3.590  12.888  23.666  0.00  0.00    +0.000 A 
ATOM     16  C   UNL     1      -2.627  11.913  23.430  0.00  0.00    +0.000 A 
BRANCH  15  17
ATOM     17  O   UNL     1      -4.223  12.872  24.875  0.00  0.00    +0.000 OA
ATOM     18  H   UNL     1      -4.323  11.950  25.169  0.00  0.00    +0.000 HD
ENDBRANCH  15  17
ENDBRANCH   9  11
ENDBRANCH   2   5
BRANCH   1  19
ATOM     19  C   UNL     1       2.564   7.883  17.762  0.00  0.00    +0.000 C 
BRANCH  19  22
ATOM     20  C   UNL     1       2.976   5.502  17.875  0.00  0.00    +0.000 C 
ATOM     21  O   UNL     1       1.779   5.251  17.764  0.00  0.00    +0.000 OA
ATOM     22  N   UNL     1       3.485   6.785  17.850  0.00  0.00    +0.000 N 
ATOM     23  H   UNL     1       4.369   6.960  18.303  0.00  0.00    +0.000 HD
BRANCH  20  24
ATOM     24  C   UNL     1       4.018   4.395  18.035  0.00  0.00    +0.000 C 
BRANCH  24  25
ATOM     25  C   UNL     1       4.901   4.295  16.771  0.00  0.00    +0.000 C 
BRANCH  25  26
ATOM     26  C   UNL     1       6.319   4.828  17.017  0.00  0.00    +0.000 C 
BRANCH  26  27
ATOM     27  C   UNL     1       6.629   5.022  18.505  0.00  0.00    +0.000 C 
BRANCH  27  29
ATOM     28  C   UNL     1       7.532   7.192  17.554  0.00  0.00    +0.000 C 
ATOM     29  C   UNL     1       7.609   6.185  18.689  0.00  0.00    +0.000 C 
ENDBRANCH  27  29
ENDBRANCH  26  27
ENDBRANCH  25  26
ENDBRANCH  24  25
BRANCH  24  30
ATOM     30  C   UNL     1       3.302   3.078  18.383  0.00  0.00    +0.000 C 
BRANCH  30  31
ATOM     31  N   UNL     1       3.654   2.542  19.694  0.00  0.00    +0.000 N 
ATOM     32  C   UNL     1       3.044   2.971  20.853  0.00  0.00    +0.000 C 
ATOM     33  O   UNL     1       2.014   3.632  20.922  0.00  0.00    +0.000 OA
BRANCH  31  34
ATOM     34  O   UNL     1       5.042   2.311  19.839  0.00  0.00    +0.000 OA
ATOM     35  H   UNL     1       5.412   2.874  19.133  0.00  0.00    +0.000 HD
ENDBRANCH  31  34
ENDBRANCH  30  31
ENDBRANCH  24  30
ENDBRANCH  20  24
ENDBRANCH  19  22
ENDBRANCH   1  19
TORSDOF 13
ENDMDL
MODEL 6
REMARK VINA RESULT:      -7.7      2.535      4.835
REMARK  Name = 
REMARK  14 active torsions:
REMARK  status: ('A' for Active; 'I' for Inactive)
REMARK    1  A    between atoms: C_1  and  C_2
REMARK    2  A    between atoms: C_2  and  C_3
REMARK    3  A    between atoms: C_3  and  C_4
REMARK    4  A    between atoms: C_4  and  C_5
REMARK    5  A    between atoms: C_5  and  C_6
REMARK    6  A    between atoms: C_6  and  C_7
REMARK    7  A    between atoms: C_6  and  C_12
REMARK    8  A    between atoms: C_7  and  N_8
REMARK    9  A    between atoms: N_8  and  O_9
REMARK   10  A    between atoms: N_14  and  C_15
REMARK   11  A    between atoms: C_15  and  N_16
REMARK   12  A    between atoms: C_17  and  C_19
REMARK   13  A    between atoms: C_23  and  C_24
REMARK   14  A    between atoms: C_28  and  O_29
REMARK                            x       y       z     vdW  Elec       q    Type
REMARK                         _______ _______ _______ _____ _____    ______ ____
ROOT
ATOM      1  N   UNL     1       3.051   5.236  19.563  0.00  0.00    +0.000 N 
ATOM      2  C   UNL     1       2.629   6.337  18.845  0.00  0.00    +0.000 C 
ATOM      3  O   UNL     1       2.710   6.403  17.625  0.00  0.00    +0.000 OA
ATOM      4  H   UNL     1       2.910   5.168  20.557  0.00  0.00    +0.000 HD
ENDROOT
BRANCH   2   5
ATOM      5  C   UNL     1       2.025   7.468  19.601  0.00  0.00    +0.000 A 
ATOM      6  C   UNL     1       1.763   7.265  20.959  0.00  0.00    +0.000 A 
ATOM      7  C   UNL     1       1.144   8.257  21.708  0.00  0.00    +0.000 A 
ATOM      8  C   UNL     1       0.756   9.447  21.093  0.00  0.00    +0.000 A 
ATOM      9  C   UNL     1       0.986   9.685  19.722  0.00  0.00    +0.000 A 
ATOM     10  C   UNL     1       1.645   8.673  18.990  0.00  0.00    +0.000 A 
BRANCH   9  11
ATOM     11  C   UNL     1       0.479  10.925  19.080  0.00  0.00    +0.000 A 
ATOM     12  C   UNL     1       1.263  12.095  19.012  0.00  0.00    +0.000 A 
ATOM     13  C   UNL     1       0.753  13.295  18.505  0.00  0.00    +0.000 A 
ATOM     14  C   UNL     1      -0.552  13.351  18.027  0.00  0.00    +0.000 A 
ATOM     15  C   UNL     1      -1.328  12.197  18.056  0.00  0.00    +0.000 A 
ATOM     16  C   UNL     1      -0.829  11.006  18.572  0.00  0.00    +0.000 A 
BRANCH  15  17
ATOM     17  O   UNL     1      -2.613  12.199  17.595  0.00  0.00    +0.000 OA
ATOM     18  H   UNL     1      -3.201  12.530  18.297  0.00  0.00    +0.000 HD
ENDBRANCH  15  17
ENDBRANCH   9  11
ENDBRANCH   2   5
BRANCH   1  19
ATOM     19  C   UNL     1       3.641   4.141  18.850  0.00  0.00    +0.000 C 
BRANCH  19  22
ATOM     20  C   UNL     1       5.938   4.882  18.703  0.00  0.00    +0.000 C 
ATOM     21  O   UNL     1       6.102   4.739  19.912  0.00  0.00    +0.000 OA
ATOM     22  N   UNL     1       4.756   4.579  18.059  0.00  0.00    +0.000 N 
ATOM     23  H   UNL     1       4.549   5.045  17.188  0.00  0.00    +0.000 HD
BRANCH  20  24
ATOM     24  C   UNL     1       7.055   5.401  17.797  0.00  0.00    +0.000 C 
BRANCH  24  25
ATOM     25  C   UNL     1       7.857   6.514  18.508  0.00  0.00    +0.000 C 
BRANCH  25  26
ATOM     26  C   UNL     1       7.839   7.829  17.718  0.00  0.00    +0.000 C 
BRANCH  26  27
ATOM     27  C   UNL     1       8.622   8.948  18.413  0.00  0.00    +0.000 C 
BRANCH  27  29
ATOM     28  C   UNL     1       9.155  11.412  18.147  0.00  0.00    +0.000 C 
ATOM     29  C   UNL     1       8.131  10.313  17.922  0.00  0.00    +0.000 C 
ENDBRANCH  27  29
ENDBRANCH  26  27
ENDBRANCH  25  26
ENDBRANCH  24  25
BRANCH  24  30
ATOM     30  C   UNL     1       6.447   5.852  16.457  0.00  0.00    +0.000 C 
BRANCH  30  31
ATOM     31  N   UNL     1       6.381   4.795  15.452  0.00  0.00    +0.000 N 
ATOM     32  C   UNL     1       7.100   4.850  14.277  0.00  0.00    +0.000 C 
ATOM     33  O   UNL     1       8.027   5.615  14.036  0.00  0.00    +0.000 OA
BRANCH  31  34
ATOM     34  O   UNL     1       5.078   4.268  15.293  0.00  0.00    +0.000 OA
ATOM     35  H   UNL     1       4.525   5.009  15.604  0.00  0.00    +0.000 HD
ENDBRANCH  31  34
ENDBRANCH  30  31
ENDBRANCH  24  30
ENDBRANCH  20  24
ENDBRANCH  19  22
ENDBRANCH   1  19
TORSDOF 13
ENDMDL
MODEL 7
REMARK VINA RESULT:      -7.6      2.677      3.792
REMARK  Name = 
REMARK  14 active torsions:
REMARK  status: ('A' for Active; 'I' for Inactive)
REMARK    1  A    between atoms: C_1  and  C_2
REMARK    2  A    between atoms: C_2  and  C_3
REMARK    3  A    between atoms: C_3  and  C_4
REMARK    4  A    between atoms: C_4  and  C_5
REMARK    5  A    between atoms: C_5  and  C_6
REMARK    6  A    between atoms: C_6  and  C_7
REMARK    7  A    between atoms: C_6  and  C_12
REMARK    8  A    between atoms: C_7  and  N_8
REMARK    9  A    between atoms: N_8  and  O_9
REMARK   10  A    between atoms: N_14  and  C_15
REMARK   11  A    between atoms: C_15  and  N_16
REMARK   12  A    between atoms: C_17  and  C_19
REMARK   13  A    between atoms: C_23  and  C_24
REMARK   14  A    between atoms: C_28  and  O_29
REMARK                            x       y       z     vdW  Elec       q    Type
REMARK                         _______ _______ _______ _____ _____    ______ ____
ROOT
ATOM      1  N   UNL     1       1.956   8.555  19.128  0.00  0.00    +0.000 N 
ATOM      2  C   UNL     1       1.067   9.605  19.248  0.00  0.00    +0.000 C 
ATOM      3  O   UNL     1       0.715  10.286  18.293  0.00  0.00    +0.000 OA
ATOM      4  H   UNL     1       2.178   7.960  19.909  0.00  0.00    +0.000 HD
ENDROOT
BRANCH   2   5
ATOM      5  C   UNL     1       0.501   9.884  20.595  0.00  0.00    +0.000 A 
ATOM      6  C   UNL     1       0.893   9.045  21.643  0.00  0.00    +0.000 A 
ATOM      7  C   UNL     1       0.355   9.212  22.912  0.00  0.00    +0.000 A 
ATOM      8  C   UNL     1      -0.602  10.203  23.132  0.00  0.00    +0.000 A 
ATOM      9  C   UNL     1      -1.038  11.059  22.100  0.00  0.00    +0.000 A 
ATOM     10  C   UNL     1      -0.452  10.888  20.826  0.00  0.00    +0.000 A 
BRANCH   9  11
ATOM     11  C   UNL     1      -2.124  12.042  22.348  0.00  0.00    +0.000 A 
ATOM     12  C   UNL     1      -2.418  13.064  21.422  0.00  0.00    +0.000 A 
ATOM     13  C   UNL     1      -3.367  14.056  21.697  0.00  0.00    +0.000 A 
ATOM     14  C   UNL     1      -4.067  14.036  22.899  0.00  0.00    +0.000 A 
ATOM     15  C   UNL     1      -3.811  13.016  23.809  0.00  0.00    +0.000 A 
ATOM     16  C   UNL     1      -2.860  12.037  23.545  0.00  0.00    +0.000 A 
BRANCH  15  17
ATOM     17  O   UNL     1      -4.474  12.950  25.000  0.00  0.00    +0.000 OA
ATOM     18  H   UNL     1      -3.923  13.357  25.692  0.00  0.00    +0.000 HD
ENDBRANCH  15  17
ENDBRANCH   9  11
ENDBRANCH   2   5
BRANCH   1  19
ATOM     19  C   UNL     1       2.514   8.277  17.838  0.00  0.00    +0.000 C 
BRANCH  19  22
ATOM     20  C   UNL     1       2.925   5.897  17.965  0.00  0.00    +0.000 C 
ATOM     21  O   UNL     1       1.723   5.649  17.917  0.00  0.00    +0.000 OA
ATOM     22  N   UNL     1       3.435   7.177  17.897  0.00  0.00    +0.000 N 
ATOM     23  H   UNL     1       4.341   7.356  18.304  0.00  0.00    +0.000 HD
BRANCH  20  24
ATOM     24  C   UNL     1       3.970   4.788  18.091  0.00  0.00    +0.000 C 
BRANCH  24  25
ATOM     25  C   UNL     1       3.928   4.160  19.502  0.00  0.00    +0.000 C 
BRANCH  25  26
ATOM     26  C   UNL     1       3.526   2.680  19.460  0.00  0.00    +0.000 C 
BRANCH  26  27
ATOM     27  C   UNL     1       2.564   2.360  18.312  0.00  0.00    +0.000 C 
BRANCH  27  29
ATOM     28  C   UNL     1       0.818   3.082  20.002  0.00  0.00    +0.000 C 
ATOM     29  C   UNL     1       1.150   2.140  18.858  0.00  0.00    +0.000 C 
ENDBRANCH  27  29
ENDBRANCH  26  27
ENDBRANCH  25  26
ENDBRANCH  24  25
BRANCH  24  30
ATOM     30  C   UNL     1       5.352   5.355  17.719  0.00  0.00    +0.000 C 
BRANCH  30  31
ATOM     31  N   UNL     1       6.177   4.438  16.940  0.00  0.00    +0.000 N 
ATOM     32  C   UNL     1       7.084   4.880  16.000  0.00  0.00    +0.000 C 
ATOM     33  O   UNL     1       7.484   6.031  15.873  0.00  0.00    +0.000 OA
BRANCH  31  34
ATOM     34  O   UNL     1       5.481   3.271  16.547  0.00  0.00    +0.000 OA
ATOM     35  H   UNL     1       5.077   3.554  15.705  0.00  0.00    +0.000 HD
ENDBRANCH  31  34
ENDBRANCH  30  31
ENDBRANCH  24  30
ENDBRANCH  20  24
ENDBRANCH  19  22
ENDBRANCH   1  19
TORSDOF 13
ENDMDL
MODEL 8
REMARK VINA RESULT:      -7.6      3.161      4.519
REMARK  Name = 
REMARK  14 active torsions:
REMARK  status: ('A' for Active; 'I' for Inactive)
REMARK    1  A    between atoms: C_1  and  C_2
REMARK    2  A    between atoms: C_2  and  C_3
REMARK    3  A    between atoms: C_3  and  C_4
REMARK    4  A    between atoms: C_4  and  C_5
REMARK    5  A    between atoms: C_5  and  C_6
REMARK    6  A    between atoms: C_6  and  C_7
REMARK    7  A    between atoms: C_6  and  C_12
REMARK    8  A    between atoms: C_7  and  N_8
REMARK    9  A    between atoms: N_8  and  O_9
REMARK   10  A    between atoms: N_14  and  C_15
REMARK   11  A    between atoms: C_15  and  N_16
REMARK   12  A    between atoms: C_17  and  C_19
REMARK   13  A    between atoms: C_23  and  C_24
REMARK   14  A    between atoms: C_28  and  O_29
REMARK                            x       y       z     vdW  Elec       q    Type
REMARK                         _______ _______ _______ _____ _____    ______ ____
ROOT
ATOM      1  N   UNL     1       2.687   6.104  20.391  0.00  0.00    +0.000 N 
ATOM      2  C   UNL     1       2.150   7.106  19.608  0.00  0.00    +0.000 C 
ATOM      3  O   UNL     1       2.163   7.069  18.384  0.00  0.00    +0.000 OA
ATOM      4  H   UNL     1       2.604   6.115  21.394  0.00  0.00    +0.000 HD
ENDROOT
BRANCH   2   5
ATOM      5  C   UNL     1       1.507   8.256  20.299  0.00  0.00    +0.000 A 
ATOM      6  C   UNL     1       0.707   7.971  21.410  0.00  0.00    +0.000 A 
ATOM      7  C   UNL     1       0.028   8.992  22.063  0.00  0.00    +0.000 A 
ATOM      8  C   UNL     1       0.122  10.300  21.587  0.00  0.00    +0.000 A 
ATOM      9  C   UNL     1       0.903  10.627  20.460  0.00  0.00    +0.000 A 
ATOM     10  C   UNL     1       1.608   9.576  19.833  0.00  0.00    +0.000 A 
BRANCH   9  11
ATOM     11  C   UNL     1       0.907  12.013  19.926  0.00  0.00    +0.000 A 
ATOM     12  C   UNL     1      -0.118  12.929  20.242  0.00  0.00    +0.000 A 
ATOM     13  C   UNL     1      -0.175  14.200  19.658  0.00  0.00    +0.000 A 
ATOM     14  C   UNL     1       0.808  14.599  18.759  0.00  0.00    +0.000 A 
ATOM     15  C   UNL     1       1.844  13.720  18.462  0.00  0.00    +0.000 A 
ATOM     16  C   UNL     1       1.897  12.452  19.030  0.00  0.00    +0.000 A 
BRANCH  15  17
ATOM     17  O   UNL     1       2.835  14.066  17.590  0.00  0.00    +0.000 OA
ATOM     18  H   UNL     1       2.641  14.946  17.224  0.00  0.00    +0.000 HD
ENDBRANCH  15  17
ENDBRANCH   9  11
ENDBRANCH   2   5
BRANCH   1  19
ATOM     19  C   UNL     1       3.317   4.992  19.740  0.00  0.00    +0.000 C 
BRANCH  19  22
ATOM     20  C   UNL     1       4.430   4.637  17.623  0.00  0.00    +0.000 C 
ATOM     21  O   UNL     1       3.809   3.596  17.428  0.00  0.00    +0.000 OA
ATOM     22  N   UNL     1       4.237   5.436  18.731  0.00  0.00    +0.000 N 
ATOM     23  H   UNL     1       4.991   6.038  19.028  0.00  0.00    +0.000 HD
BRANCH  20  24
ATOM     24  C   UNL     1       5.473   5.149  16.629  0.00  0.00    +0.000 C 
BRANCH  24  25
ATOM     25  C   UNL     1       5.113   4.712  15.192  0.00  0.00    +0.000 C 
BRANCH  25  26
ATOM     26  C   UNL     1       6.166   3.766  14.598  0.00  0.00    +0.000 C 
BRANCH  26  27
ATOM     27  C   UNL     1       6.419   4.021  13.109  0.00  0.00    +0.000 C 
BRANCH  27  29
ATOM     28  C   UNL     1       5.720   2.118  11.586  0.00  0.00    +0.000 C 
ATOM     29  C   UNL     1       5.294   3.405  12.273  0.00  0.00    +0.000 C 
ENDBRANCH  27  29
ENDBRANCH  26  27
ENDBRANCH  25  26
ENDBRANCH  24  25
BRANCH  24  30
ATOM     30  C   UNL     1       6.868   4.678  17.077  0.00  0.00    +0.000 C 
BRANCH  30  31
ATOM     31  N   UNL     1       7.695   5.737  17.647  0.00  0.00    +0.000 N 
ATOM     32  C   UNL     1       7.683   6.038  18.992  0.00  0.00    +0.000 C 
ATOM     33  O   UNL     1       7.203   5.343  19.880  0.00  0.00    +0.000 OA
BRANCH  31  34
ATOM     34  O   UNL     1       7.780   6.877  16.814  0.00  0.00    +0.000 OA
ATOM     35  H   UNL     1       8.298   6.534  16.061  0.00  0.00    +0.000 HD
ENDBRANCH  31  34
ENDBRANCH  30  31
ENDBRANCH  24  30
ENDBRANCH  20  24
ENDBRANCH  19  22
ENDBRANCH   1  19
TORSDOF 13
ENDMDL
MODEL 9
REMARK VINA RESULT:      -7.6      1.716      3.502
REMARK  Name = 
REMARK  14 active torsions:
REMARK  status: ('A' for Active; 'I' for Inactive)
REMARK    1  A    between atoms: C_1  and  C_2
REMARK    2  A    between atoms: C_2  and  C_3
REMARK    3  A    between atoms: C_3  and  C_4
REMARK    4  A    between atoms: C_4  and  C_5
REMARK    5  A    between atoms: C_5  and  C_6
REMARK    6  A    between atoms: C_6  and  C_7
REMARK    7  A    between atoms: C_6  and  C_12
REMARK    8  A    between atoms: C_7  and  N_8
REMARK    9  A    between atoms: N_8  and  O_9
REMARK   10  A    between atoms: N_14  and  C_15
REMARK   11  A    between atoms: C_15  and  N_16
REMARK   12  A    between atoms: C_17  and  C_19
REMARK   13  A    between atoms: C_23  and  C_24
REMARK   14  A    between atoms: C_28  and  O_29
REMARK                            x       y       z     vdW  Elec       q    Type
REMARK                         _______ _______ _______ _____ _____    ______ ____
ROOT
ATOM      1  N   UNL     1       1.912   7.890  19.430  0.00  0.00    +0.000 N 
ATOM      2  C   UNL     1       1.348   8.702  20.393  0.00  0.00    +0.000 C 
ATOM      3  O   UNL     1       1.431   8.464  21.592  0.00  0.00    +0.000 OA
ATOM      4  H   UNL     1       1.897   8.138  18.455  0.00  0.00    +0.000 HD
ENDROOT
BRANCH   2   5
ATOM      5  C   UNL     1       0.638   9.928  19.938  0.00  0.00    +0.000 A 
ATOM      6  C   UNL     1       0.995  11.138  20.541  0.00  0.00    +0.000 A 
ATOM      7  C   UNL     1       0.328  12.310  20.207  0.00  0.00    +0.000 A 
ATOM      8  C   UNL     1      -0.721  12.270  19.288  0.00  0.00    +0.000 A 
ATOM      9  C   UNL     1      -1.124  11.069  18.670  0.00  0.00    +0.000 A 
ATOM     10  C   UNL     1      -0.409   9.897  19.004  0.00  0.00    +0.000 A 
BRANCH   9  11
ATOM     11  C   UNL     1      -2.302  11.048  17.766  0.00  0.00    +0.000 A 
ATOM     12  C   UNL     1      -2.202  10.598  16.433  0.00  0.00    +0.000 A 
ATOM     13  C   UNL     1      -3.282  10.675  15.547  0.00  0.00    +0.000 A 
ATOM     14  C   UNL     1      -4.503  11.183  15.978  0.00  0.00    +0.000 A 
ATOM     15  C   UNL     1      -4.628  11.601  17.299  0.00  0.00    +0.000 A 
ATOM     16  C   UNL     1      -3.553  11.538  18.179  0.00  0.00    +0.000 A 
BRANCH  15  17
ATOM     17  O   UNL     1      -5.805  12.103  17.772  0.00  0.00    +0.000 OA
ATOM     18  H   UNL     1      -6.177  11.480  18.420  0.00  0.00    +0.000 HD
ENDBRANCH  15  17
ENDBRANCH   9  11
ENDBRANCH   2   5
BRANCH   1  19
ATOM     19  C   UNL     1       2.594   6.702  19.853  0.00  0.00    +0.000 C 
BRANCH  19  22
ATOM     20  C   UNL     1       3.794   4.896  18.783  0.00  0.00    +0.000 C 
ATOM     21  O   UNL     1       4.607   4.841  19.702  0.00  0.00    +0.000 OA
ATOM     22  N   UNL     1       2.724   5.766  18.772  0.00  0.00    +0.000 N 
ATOM     23  H   UNL     1       2.329   6.032  17.882  0.00  0.00    +0.000 HD
BRANCH  20  24
ATOM     24  C   UNL     1       3.896   3.977  17.565  0.00  0.00    +0.000 C 
BRANCH  24  25
ATOM     25  C   UNL     1       4.525   4.728  16.370  0.00  0.00    +0.000 C 
BRANCH  25  26
ATOM     26  C   UNL     1       5.948   4.239  16.070  0.00  0.00    +0.000 C 
BRANCH  26  27
ATOM     27  C   UNL     1       7.024   5.231  16.521  0.00  0.00    +0.000 C 
BRANCH  27  29
ATOM     28  C   UNL     1       7.810   5.975  18.814  0.00  0.00    +0.000 C 
ATOM     29  C   UNL     1       7.601   4.802  17.872  0.00  0.00    +0.000 C 
ENDBRANCH  27  29
ENDBRANCH  26  27
ENDBRANCH  25  26
ENDBRANCH  24  25
BRANCH  24  30
ATOM     30  C   UNL     1       2.504   3.398  17.254  0.00  0.00    +0.000 C 
BRANCH  30  31
ATOM     31  N   UNL     1       2.143   2.252  18.081  0.00  0.00    +0.000 N 
ATOM     32  C   UNL     1       1.396   2.379  19.233  0.00  0.00    +0.000 C 
ATOM     33  O   UNL     1       0.757   3.370  19.569  0.00  0.00    +0.000 OA
BRANCH  31  34
ATOM     34  O   UNL     1       3.184   1.300  18.186  0.00  0.00    +0.000 OA
ATOM     35  H   UNL     1       2.695   0.503  18.467  0.00  0.00    +0.000 HD
ENDBRANCH  31  34
ENDBRANCH  30  31
ENDBRANCH  24  30
ENDBRANCH  20  24
ENDBRANCH  19  22
ENDBRANCH   1  19
TORSDOF 13
ENDMDL
