MODEL 1
REMARK VINA RESULT:      -8.7      0.000      0.000
REMARK  Name = 
REMARK  6 active torsions:
REMARK  status: ('A' for Active; 'I' for Inactive)
REMARK    1  A    between atoms: C_1  and  C_2
REMARK    2  A    between atoms: C_4  and  C_5
REMARK    3  A    between atoms: C_15  and  C_16
REMARK    4  A    between atoms: C_21  and  C_22
REMARK    5  A    between atoms: C_25  and  C_26
REMARK    6  A    between atoms: C_32  and  C_33
REMARK                            x       y       z     vdW  Elec       q    Type
REMARK                         _______ _______ _______ _____ _____    ______ ____
ROOT
ATOM      1  C   UNL     1       1.125   2.765  20.875  0.00  0.00    +0.000 C 
ATOM      2  C   UNL     1       1.962   3.973  20.535  0.00  0.00    +0.000 A 
ATOM      3  C   UNL     1       1.391   5.247  20.696  0.00  0.00    +0.000 A 
ATOM      4  C   UNL     1       2.079   6.400  20.313  0.00  0.00    +0.000 A 
ATOM      5  C   UNL     1       3.359   6.264  19.777  0.00  0.00    +0.000 A 
ATOM      6  C   UNL     1       3.999   5.018  19.697  0.00  0.00    +0.000 A 
ATOM      7  C   UNL     1       3.286   3.844  20.041  0.00  0.00    +0.000 A 
ATOM      8  C   UNL     1       3.855   2.455  19.873  0.00  0.00    +0.000 C 
ENDROOT
BRANCH   4   9
ATOM      9  C   UNL     1       1.515   7.740  20.458  0.00  0.00    +0.000 A 
ATOM     10  N   UNL     1       1.454   8.670  19.514  0.00  0.00    +0.000 NA
ATOM     11  C   UNL     1       0.863   9.751  20.105  0.00  0.00    +0.000 A 
ATOM     12  C   UNL     1       0.531   9.479  21.404  0.00  0.00    +0.000 A 
ATOM     13  N   UNL     1       0.940   8.199  21.627  0.00  0.00    +0.000 N 
ATOM     14  C   UNL     1      -0.116  10.413  22.337  0.00  0.00    +0.000 C 
ATOM     15  O   UNL     1       0.197  11.742  21.878  0.00  0.00    +0.000 OA
ATOM     16  C   UNL     1      -0.147  11.968  20.493  0.00  0.00    +0.000 C 
ATOM     17  C   UNL     1       0.648  11.084  19.504  0.00  0.00    +0.000 C 
ATOM     18  H   UNL     1       0.842   7.675  22.479  0.00  0.00    +0.000 HD
ENDBRANCH   4   9
BRANCH   6  19
ATOM     19  C   UNL     1       5.384   4.995  19.139  0.00  0.00    +0.000 C 
ATOM     20  O   UNL     1       6.307   4.771  19.924  0.00  0.00    +0.000 OA
ATOM     21  N   UNL     1       5.608   5.187  17.766  0.00  0.00    +0.000 N 
ATOM     22  C   UNL     1       6.936   4.864  17.257  0.00  0.00    +0.000 C 
ATOM     23  C   UNL     1       7.420   5.902  16.247  0.00  0.00    +0.000 C 
ATOM     24  C   UNL     1       6.424   6.108  15.090  0.00  0.00    +0.000 C 
ATOM     25  C   UNL     1       5.059   6.469  15.710  0.00  0.00    +0.000 C 
ATOM     26  C   UNL     1       4.590   5.444  16.738  0.00  0.00    +0.000 C 
BRANCH  24  27
ATOM     27  C   UNL     1       6.356   4.988  14.051  0.00  0.00    +0.000 A 
ATOM     28  C   UNL     1       5.315   4.046  14.009  0.00  0.00    +0.000 A 
ATOM     29  C   UNL     1       5.300   3.015  13.065  0.00  0.00    +0.000 A 
ATOM     30  C   UNL     1       6.344   2.889  12.154  0.00  0.00    +0.000 A 
ATOM     31  C   UNL     1       7.403   3.798  12.188  0.00  0.00    +0.000 A 
ATOM     32  C   UNL     1       7.409   4.831  13.131  0.00  0.00    +0.000 A 
BRANCH  30  33
ATOM     33  C   UNL     1       6.342   1.832  11.197  0.00  0.00    +0.000 C 
ATOM     34  N   UNL     1       6.331   0.971  10.416  0.00  0.00    +0.000 NA
ENDBRANCH  30  33
ENDBRANCH  24  27
ENDBRANCH   6  19
TORSDOF 4
ENDMDL
MODEL 2
REMARK VINA RESULT:      -8.6      0.413      1.354
REMARK  Name = 
REMARK  6 active torsions:
REMARK  status: ('A' for Active; 'I' for Inactive)
REMARK    1  A    between atoms: C_1  and  C_2
REMARK    2  A    between atoms: C_4  and  C_5
REMARK    3  A    between atoms: C_15  and  C_16
REMARK    4  A    between atoms: C_21  and  C_22
REMARK    5  A    between atoms: C_25  and  C_26
REMARK    6  A    between atoms: C_32  and  C_33
REMARK                            x       y       z     vdW  Elec       q    Type
REMARK                         _______ _______ _______ _____ _____    ______ ____
ROOT
ATOM      1  C   UNL     1       1.129   2.662  20.774  0.00  0.00    +0.000 C 
ATOM      2  C   UNL     1       1.946   3.897  20.489  0.00  0.00    +0.000 A 
ATOM      3  C   UNL     1       1.347   5.154  20.687  0.00  0.00    +0.000 A 
ATOM      4  C   UNL     1       2.017   6.333  20.355  0.00  0.00    +0.000 A 
ATOM      5  C   UNL     1       3.306   6.241  19.833  0.00  0.00    +0.000 A 
ATOM      6  C   UNL     1       3.972   5.011  19.718  0.00  0.00    +0.000 A 
ATOM      7  C   UNL     1       3.279   3.812  20.010  0.00  0.00    +0.000 A 
ATOM      8  C   UNL     1       3.877   2.441  19.801  0.00  0.00    +0.000 C 
ENDROOT
BRANCH   4   9
ATOM      9  C   UNL     1       1.424   7.655  20.540  0.00  0.00    +0.000 A 
ATOM     10  N   UNL     1       0.836   8.102  21.642  0.00  0.00    +0.000 NA
ATOM     11  C   UNL     1       0.428   9.372  21.347  0.00  0.00    +0.000 A 
ATOM     12  C   UNL     1       0.791   9.722  20.076  0.00  0.00    +0.000 A 
ATOM     13  N   UNL     1       1.430   8.634  19.564  0.00  0.00    +0.000 N 
ATOM     14  C   UNL     1       0.512  11.012  19.429  0.00  0.00    +0.000 C 
ATOM     15  O   UNL     1      -0.645  11.564  20.084  0.00  0.00    +0.000 OA
ATOM     16  C   UNL     1      -0.508  11.649  21.520  0.00  0.00    +0.000 C 
ATOM     17  C   UNL     1      -0.364  10.273  22.211  0.00  0.00    +0.000 C 
ATOM     18  H   UNL     1       1.837   8.548  18.649  0.00  0.00    +0.000 HD
ENDBRANCH   4   9
BRANCH   6  19
ATOM     19  C   UNL     1       5.364   5.035  19.180  0.00  0.00    +0.000 C 
ATOM     20  O   UNL     1       6.285   4.865  19.980  0.00  0.00    +0.000 OA
ATOM     21  N   UNL     1       5.600   5.209  17.805  0.00  0.00    +0.000 N 
ATOM     22  C   UNL     1       6.948   4.932  17.321  0.00  0.00    +0.000 C 
ATOM     23  C   UNL     1       7.402   5.970  16.297  0.00  0.00    +0.000 C 
ATOM     24  C   UNL     1       6.415   6.111  15.123  0.00  0.00    +0.000 C 
ATOM     25  C   UNL     1       5.028   6.426  15.717  0.00  0.00    +0.000 C 
ATOM     26  C   UNL     1       4.587   5.403  16.759  0.00  0.00    +0.000 C 
BRANCH  24  27
ATOM     27  C   UNL     1       6.408   4.968  14.105  0.00  0.00    +0.000 A 
ATOM     28  C   UNL     1       7.402   4.812  13.126  0.00  0.00    +0.000 A 
ATOM     29  C   UNL     1       7.349   3.774  12.190  0.00  0.00    +0.000 A 
ATOM     30  C   UNL     1       6.281   2.882  12.199  0.00  0.00    +0.000 A 
ATOM     31  C   UNL     1       5.268   3.029  13.146  0.00  0.00    +0.000 A 
ATOM     32  C   UNL     1       5.330   4.065  14.085  0.00  0.00    +0.000 A 
BRANCH  30  33
ATOM     33  C   UNL     1       6.214   1.830  11.238  0.00  0.00    +0.000 C 
ATOM     34  N   UNL     1       6.162   0.968  10.461  0.00  0.00    +0.000 NA
ENDBRANCH  30  33
ENDBRANCH  24  27
ENDBRANCH   6  19
TORSDOF 4
ENDMDL
MODEL 3
REMARK VINA RESULT:      -8.1      4.858      9.732
REMARK  Name = 
REMARK  6 active torsions:
REMARK  status: ('A' for Active; 'I' for Inactive)
REMARK    1  A    between atoms: C_1  and  C_2
REMARK    2  A    between atoms: C_4  and  C_5
REMARK    3  A    between atoms: C_15  and  C_16
REMARK    4  A    between atoms: C_21  and  C_22
REMARK    5  A    between atoms: C_25  and  C_26
REMARK    6  A    between atoms: C_32  and  C_33
REMARK                            x       y       z     vdW  Elec       q    Type
REMARK                         _______ _______ _______ _____ _____    ______ ____
ROOT
ATOM      1  C   UNL     1      -2.073  10.339  17.230  0.00  0.00    +0.000 C 
ATOM      2  C   UNL     1      -0.735  10.380  17.925  0.00  0.00    +0.000 A 
ATOM      3  C   UNL     1       0.104   9.257  17.826  0.00  0.00    +0.000 A 
ATOM      4  C   UNL     1       1.314   9.196  18.521  0.00  0.00    +0.000 A 
ATOM      5  C   UNL     1       1.684  10.284  19.309  0.00  0.00    +0.000 A 
ATOM      6  C   UNL     1       0.921  11.461  19.350  0.00  0.00    +0.000 A 
ATOM      7  C   UNL     1      -0.328  11.508  18.685  0.00  0.00    +0.000 A 
ATOM      8  C   UNL     1      -1.266  12.688  18.774  0.00  0.00    +0.000 C 
ENDROOT
BRANCH   4   9
ATOM      9  C   UNL     1       2.208   8.043  18.447  0.00  0.00    +0.000 A 
ATOM     10  N   UNL     1       3.076   7.786  17.477  0.00  0.00    +0.000 NA
ATOM     11  C   UNL     1       3.674   6.608  17.826  0.00  0.00    +0.000 A 
ATOM     12  C   UNL     1       3.199   6.153  19.025  0.00  0.00    +0.000 A 
ATOM     13  N   UNL     1       2.271   7.067  19.424  0.00  0.00    +0.000 N 
ATOM     14  C   UNL     1       3.617   4.916  19.699  0.00  0.00    +0.000 C 
ATOM     15  O   UNL     1       4.113   4.032  18.676  0.00  0.00    +0.000 OA
ATOM     16  C   UNL     1       5.142   4.625  17.852  0.00  0.00    +0.000 C 
ATOM     17  C   UNL     1       4.653   5.840  17.029  0.00  0.00    +0.000 C 
ATOM     18  H   UNL     1       1.731   7.049  20.270  0.00  0.00    +0.000 HD
ENDBRANCH   4   9
BRANCH   6  19
ATOM     19  C   UNL     1       1.431  12.578  20.200  0.00  0.00    +0.000 C 
ATOM     20  O   UNL     1       1.114  12.576  21.391  0.00  0.00    +0.000 OA
ATOM     21  N   UNL     1       2.269  13.567  19.658  0.00  0.00    +0.000 N 
ATOM     22  C   UNL     1       2.955  14.446  20.599  0.00  0.00    +0.000 C 
ATOM     23  C   UNL     1       2.955  15.895  20.117  0.00  0.00    +0.000 C 
ATOM     24  C   UNL     1       3.540  16.044  18.699  0.00  0.00    +0.000 C 
ATOM     25  C   UNL     1       2.748  15.106  17.768  0.00  0.00    +0.000 C 
ATOM     26  C   UNL     1       2.726  13.664  18.265  0.00  0.00    +0.000 C 
BRANCH  24  27
ATOM     27  C   UNL     1       5.058  15.902  18.577  0.00  0.00    +0.000 A 
ATOM     28  C   UNL     1       5.958  16.868  19.058  0.00  0.00    +0.000 A 
ATOM     29  C   UNL     1       7.339  16.721  18.900  0.00  0.00    +0.000 A 
ATOM     30  C   UNL     1       7.852  15.613  18.234  0.00  0.00    +0.000 A 
ATOM     31  C   UNL     1       6.979  14.650  17.726  0.00  0.00    +0.000 A 
ATOM     32  C   UNL     1       5.598  14.798  17.892  0.00  0.00    +0.000 A 
BRANCH  30  33
ATOM     33  C   UNL     1       9.259  15.465  18.059  0.00  0.00    +0.000 C 
ATOM     34  N   UNL     1      10.407  15.353  17.917  0.00  0.00    +0.000 NA
ENDBRANCH  30  33
ENDBRANCH  24  27
ENDBRANCH   6  19
TORSDOF 4
ENDMDL
MODEL 4
REMARK VINA RESULT:      -8.1      4.900      9.799
REMARK  Name = 
REMARK  6 active torsions:
REMARK  status: ('A' for Active; 'I' for Inactive)
REMARK    1  A    between atoms: C_1  and  C_2
REMARK    2  A    between atoms: C_4  and  C_5
REMARK    3  A    between atoms: C_15  and  C_16
REMARK    4  A    between atoms: C_21  and  C_22
REMARK    5  A    between atoms: C_25  and  C_26
REMARK    6  A    between atoms: C_32  and  C_33
REMARK                            x       y       z     vdW  Elec       q    Type
REMARK                         _______ _______ _______ _____ _____    ______ ____
ROOT
ATOM      1  C   UNL     1      -2.014  10.307  17.359  0.00  0.00    +0.000 C 
ATOM      2  C   UNL     1      -0.660  10.359  18.022  0.00  0.00    +0.000 A 
ATOM      3  C   UNL     1       0.178   9.235  17.917  0.00  0.00    +0.000 A 
ATOM      4  C   UNL     1       1.404   9.185  18.584  0.00  0.00    +0.000 A 
ATOM      5  C   UNL     1       1.791  10.283  19.349  0.00  0.00    +0.000 A 
ATOM      6  C   UNL     1       1.028  11.460  19.393  0.00  0.00    +0.000 A 
ATOM      7  C   UNL     1      -0.236  11.497  18.756  0.00  0.00    +0.000 A 
ATOM      8  C   UNL     1      -1.174  12.677  18.852  0.00  0.00    +0.000 C 
ENDROOT
BRANCH   4   9
ATOM      9  C   UNL     1       2.297   8.031  18.505  0.00  0.00    +0.000 A 
ATOM     10  N   UNL     1       2.384   7.046  19.390  0.00  0.00    +0.000 NA
ATOM     11  C   UNL     1       3.351   6.209  18.908  0.00  0.00    +0.000 A 
ATOM     12  C   UNL     1       3.840   6.660  17.713  0.00  0.00    +0.000 A 
ATOM     13  N   UNL     1       3.167   7.815  17.453  0.00  0.00    +0.000 N 
ATOM     14  C   UNL     1       4.890   6.009  16.917  0.00  0.00    +0.000 C 
ATOM     15  O   UNL     1       5.679   5.225  17.831  0.00  0.00    +0.000 OA
ATOM     16  C   UNL     1       4.896   4.306  18.625  0.00  0.00    +0.000 C 
ATOM     17  C   UNL     1       3.893   5.006  19.573  0.00  0.00    +0.000 C 
ATOM     18  H   UNL     1       3.271   8.405  16.647  0.00  0.00    +0.000 HD
ENDBRANCH   4   9
BRANCH   6  19
ATOM     19  C   UNL     1       1.556  12.588  20.216  0.00  0.00    +0.000 C 
ATOM     20  O   UNL     1       1.282  12.592  21.417  0.00  0.00    +0.000 OA
ATOM     21  N   UNL     1       2.364  13.582  19.638  0.00  0.00    +0.000 N 
ATOM     22  C   UNL     1       3.073  14.475  20.547  0.00  0.00    +0.000 C 
ATOM     23  C   UNL     1       3.041  15.921  20.054  0.00  0.00    +0.000 C 
ATOM     24  C   UNL     1       3.572  16.065  18.615  0.00  0.00    +0.000 C 
ATOM     25  C   UNL     1       2.757  15.111  17.720  0.00  0.00    +0.000 C 
ATOM     26  C   UNL     1       2.769  13.673  18.228  0.00  0.00    +0.000 C 
BRANCH  24  27
ATOM     27  C   UNL     1       5.087  15.938  18.439  0.00  0.00    +0.000 A 
ATOM     28  C   UNL     1       5.697  14.814  17.857  0.00  0.00    +0.000 A 
ATOM     29  C   UNL     1       7.086  14.717  17.741  0.00  0.00    +0.000 A 
ATOM     30  C   UNL     1       7.900  15.733  18.229  0.00  0.00    +0.000 A 
ATOM     31  C   UNL     1       7.322  16.850  18.833  0.00  0.00    +0.000 A 
ATOM     32  C   UNL     1       5.930  16.946  18.941  0.00  0.00    +0.000 A 
BRANCH  30  33
ATOM     33  C   UNL     1       9.319  15.632  18.125  0.00  0.00    +0.000 C 
ATOM     34  N   UNL     1      10.475  15.542  18.041  0.00  0.00    +0.000 NA
ENDBRANCH  30  33
ENDBRANCH  24  27
ENDBRANCH   6  19
TORSDOF 4
ENDMDL
MODEL 5
REMARK VINA RESULT:      -7.7      4.601     10.577
REMARK  Name = 
REMARK  6 active torsions:
REMARK  status: ('A' for Active; 'I' for Inactive)
REMARK    1  A    between atoms: C_1  and  C_2
REMARK    2  A    between atoms: C_4  and  C_5
REMARK    3  A    between atoms: C_15  and  C_16
REMARK    4  A    between atoms: C_21  and  C_22
REMARK    5  A    between atoms: C_25  and  C_26
REMARK    6  A    between atoms: C_32  and  C_33
REMARK                            x       y       z     vdW  Elec       q    Type
REMARK                         _______ _______ _______ _____ _____    ______ ____
ROOT
ATOM      1  C   UNL     1      -2.558  10.302  17.393  0.00  0.00    +0.000 C 
ATOM      2  C   UNL     1      -1.256  10.417  18.145  0.00  0.00    +0.000 A 
ATOM      3  C   UNL     1      -0.264   9.448  17.914  0.00  0.00    +0.000 A 
ATOM      4  C   UNL     1       0.926   9.445  18.644  0.00  0.00    +0.000 A 
ATOM      5  C   UNL     1       1.120  10.436  19.604  0.00  0.00    +0.000 A 
ATOM      6  C   UNL     1       0.198  11.477  19.790  0.00  0.00    +0.000 A 
ATOM      7  C   UNL     1      -1.029  11.456  19.084  0.00  0.00    +0.000 A 
ATOM      8  C   UNL     1      -2.128  12.469  19.310  0.00  0.00    +0.000 C 
ENDROOT
BRANCH   4   9
ATOM      9  C   UNL     1       1.976   8.450  18.437  0.00  0.00    +0.000 A 
ATOM     10  N   UNL     1       2.856   8.436  17.444  0.00  0.00    +0.000 NA
ATOM     11  C   UNL     1       3.623   7.325  17.653  0.00  0.00    +0.000 A 
ATOM     12  C   UNL     1       3.238   6.669  18.789  0.00  0.00    +0.000 A 
ATOM     13  N   UNL     1       2.195   7.387  19.292  0.00  0.00    +0.000 N 
ATOM     14  C   UNL     1       3.842   5.436  19.314  0.00  0.00    +0.000 C 
ATOM     15  O   UNL     1       4.443   4.759  18.194  0.00  0.00    +0.000 OA
ATOM     16  C   UNL     1       5.362   5.586  17.447  0.00  0.00    +0.000 C 
ATOM     17  C   UNL     1       4.690   6.805  16.772  0.00  0.00    +0.000 C 
ATOM     18  H   UNL     1       1.677   7.191  20.130  0.00  0.00    +0.000 HD
ENDBRANCH   4   9
BRANCH   6  19
ATOM     19  C   UNL     1       0.525  12.506  20.821  0.00  0.00    +0.000 C 
ATOM     20  O   UNL     1       0.293  12.224  21.998  0.00  0.00    +0.000 OA
ATOM     21  N   UNL     1       1.108  13.730  20.454  0.00  0.00    +0.000 N 
ATOM     22  C   UNL     1       1.660  14.552  21.525  0.00  0.00    +0.000 C 
ATOM     23  C   UNL     1       1.335  16.031  21.324  0.00  0.00    +0.000 C 
ATOM     24  C   UNL     1       1.783  16.551  19.945  0.00  0.00    +0.000 C 
ATOM     25  C   UNL     1       1.139  15.648  18.875  0.00  0.00    +0.000 C 
ATOM     26  C   UNL     1       1.443  14.169  19.092  0.00  0.00    +0.000 C 
BRANCH  24  27
ATOM     27  C   UNL     1       3.287  16.758  19.758  0.00  0.00    +0.000 A 
ATOM     28  C   UNL     1       4.081  17.472  20.671  0.00  0.00    +0.000 A 
ATOM     29  C   UNL     1       5.447  17.670  20.452  0.00  0.00    +0.000 A 
ATOM     30  C   UNL     1       6.047  17.176  19.299  0.00  0.00    +0.000 A 
ATOM     31  C   UNL     1       5.278  16.482  18.364  0.00  0.00    +0.000 A 
ATOM     32  C   UNL     1       3.913  16.282  18.591  0.00  0.00    +0.000 A 
BRANCH  30  33
ATOM     33  C   UNL     1       7.438  17.386  19.065  0.00  0.00    +0.000 C 
ATOM     34  N   UNL     1       8.570  17.560  18.866  0.00  0.00    +0.000 NA
ENDBRANCH  30  33
ENDBRANCH  24  27
ENDBRANCH   6  19
TORSDOF 4
ENDMDL
MODEL 6
REMARK VINA RESULT:      -7.5      6.875     12.008
REMARK  Name = 
REMARK  6 active torsions:
REMARK  status: ('A' for Active; 'I' for Inactive)
REMARK    1  A    between atoms: C_1  and  C_2
REMARK    2  A    between atoms: C_4  and  C_5
REMARK    3  A    between atoms: C_15  and  C_16
REMARK    4  A    between atoms: C_21  and  C_22
REMARK    5  A    between atoms: C_25  and  C_26
REMARK    6  A    between atoms: C_32  and  C_33
REMARK                            x       y       z     vdW  Elec       q    Type
REMARK                         _______ _______ _______ _____ _____    ______ ____
ROOT
ATOM      1  C   UNL     1      12.139  12.725  17.170  0.00  0.00    +0.000 C 
ATOM      2  C   UNL     1      10.860  12.384  17.892  0.00  0.00    +0.000 A 
ATOM      3  C   UNL     1      10.349  11.080  17.766  0.00  0.00    +0.000 A 
ATOM      4  C   UNL     1       9.123  10.728  18.334  0.00  0.00    +0.000 A 
ATOM      5  C   UNL     1       8.417  11.696  19.046  0.00  0.00    +0.000 A 
ATOM      6  C   UNL     1       8.944  12.975  19.278  0.00  0.00    +0.000 A 
ATOM      7  C   UNL     1      10.164  13.350  18.665  0.00  0.00    +0.000 A 
ATOM      8  C   UNL     1      10.744  14.741  18.763  0.00  0.00    +0.000 C 
ENDROOT
BRANCH   4   9
ATOM      9  C   UNL     1       8.557   9.386  18.218  0.00  0.00    +0.000 A 
ATOM     10  N   UNL     1       7.725   8.967  17.273  0.00  0.00    +0.000 NA
ATOM     11  C   UNL     1       7.458   7.662  17.576  0.00  0.00    +0.000 A 
ATOM     12  C   UNL     1       8.148   7.265  18.688  0.00  0.00    +0.000 A 
ATOM     13  N   UNL     1       8.852   8.359  19.093  0.00  0.00    +0.000 N 
ATOM     14  C   UNL     1       8.097   5.928  19.298  0.00  0.00    +0.000 C 
ATOM     15  O   UNL     1       6.834   5.349  18.921  0.00  0.00    +0.000 OA
ATOM     16  C   UNL     1       6.603   5.349  17.494  0.00  0.00    +0.000 C 
ATOM     17  C   UNL     1       6.509   6.766  16.882  0.00  0.00    +0.000 C 
ATOM     18  H   UNL     1       9.475   8.418  19.878  0.00  0.00    +0.000 HD
ENDBRANCH   4   9
BRANCH   6  19
ATOM     19  C   UNL     1       8.116  13.921  20.086  0.00  0.00    +0.000 C 
ATOM     20  O   UNL     1       7.508  14.803  19.478  0.00  0.00    +0.000 OA
ATOM     21  N   UNL     1       8.016  13.775  21.479  0.00  0.00    +0.000 N 
ATOM     22  C   UNL     1       6.974  14.542  22.154  0.00  0.00    +0.000 C 
ATOM     23  C   UNL     1       7.476  15.138  23.469  0.00  0.00    +0.000 C 
ATOM     24  C   UNL     1       8.071  14.072  24.409  0.00  0.00    +0.000 C 
ATOM     25  C   UNL     1       9.175  13.328  23.631  0.00  0.00    +0.000 C 
ATOM     26  C   UNL     1       8.678  12.758  22.306  0.00  0.00    +0.000 C 
BRANCH  24  27
ATOM     27  C   UNL     1       7.068  13.146  25.100  0.00  0.00    +0.000 A 
ATOM     28  C   UNL     1       6.782  11.850  24.640  0.00  0.00    +0.000 A 
ATOM     29  C   UNL     1       5.836  11.041  25.276  0.00  0.00    +0.000 A 
ATOM     30  C   UNL     1       5.134  11.523  26.377  0.00  0.00    +0.000 A 
ATOM     31  C   UNL     1       5.382  12.816  26.841  0.00  0.00    +0.000 A 
ATOM     32  C   UNL     1       6.335  13.618  26.204  0.00  0.00    +0.000 A 
BRANCH  30  33
ATOM     33  C   UNL     1       4.158  10.708  27.022  0.00  0.00    +0.000 C 
ATOM     34  N   UNL     1       3.358  10.050  27.548  0.00  0.00    +0.000 NA
ENDBRANCH  30  33
ENDBRANCH  24  27
ENDBRANCH   6  19
TORSDOF 4
ENDMDL
MODEL 7
REMARK VINA RESULT:      -7.5      4.536     10.685
REMARK  Name = 
REMARK  6 active torsions:
REMARK  status: ('A' for Active; 'I' for Inactive)
REMARK    1  A    between atoms: C_1  and  C_2
REMARK    2  A    between atoms: C_4  and  C_5
REMARK    3  A    between atoms: C_15  and  C_16
REMARK    4  A    between atoms: C_21  and  C_22
REMARK    5  A    between atoms: C_25  and  C_26
REMARK    6  A    between atoms: C_32  and  C_33
REMARK                            x       y       z     vdW  Elec       q    Type
REMARK                         _______ _______ _______ _____ _____    ______ ____
ROOT
ATOM      1  C   UNL     1      -2.445  10.257  17.228  0.00  0.00    +0.000 C 
ATOM      2  C   UNL     1      -1.189  10.350  18.058  0.00  0.00    +0.000 A 
ATOM      3  C   UNL     1      -0.206   9.358  17.894  0.00  0.00    +0.000 A 
ATOM      4  C   UNL     1       0.936   9.335  18.697  0.00  0.00    +0.000 A 
ATOM      5  C   UNL     1       1.092  10.329  19.661  0.00  0.00    +0.000 A 
ATOM      6  C   UNL     1       0.183  11.391  19.783  0.00  0.00    +0.000 A 
ATOM      7  C   UNL     1      -0.999  11.391  19.003  0.00  0.00    +0.000 A 
ATOM      8  C   UNL     1      -2.086  12.428  19.154  0.00  0.00    +0.000 C 
ENDROOT
BRANCH   4   9
ATOM      9  C   UNL     1       1.974   8.316  18.561  0.00  0.00    +0.000 A 
ATOM     10  N   UNL     1       2.209   7.320  19.405  0.00  0.00    +0.000 NA
ATOM     11  C   UNL     1       3.270   6.639  18.879  0.00  0.00    +0.000 A 
ATOM     12  C   UNL     1       3.672   7.195  17.695  0.00  0.00    +0.000 A 
ATOM     13  N   UNL     1       2.845   8.257  17.489  0.00  0.00    +0.000 N 
ATOM     14  C   UNL     1       4.785   6.722  16.860  0.00  0.00    +0.000 C 
ATOM     15  O   UNL     1       5.689   6.017  17.732  0.00  0.00    +0.000 OA
ATOM     16  C   UNL     1       5.051   4.973  18.500  0.00  0.00    +0.000 C 
ATOM     17  C   UNL     1       3.982   5.496  19.488  0.00  0.00    +0.000 C 
ATOM     18  H   UNL     1       2.854   8.885  16.705  0.00  0.00    +0.000 HD
ENDBRANCH   4   9
BRANCH   6  19
ATOM     19  C   UNL     1       0.469  12.420  20.826  0.00  0.00    +0.000 C 
ATOM     20  O   UNL     1       0.251  12.114  22.000  0.00  0.00    +0.000 OA
ATOM     21  N   UNL     1       0.999  13.672  20.473  0.00  0.00    +0.000 N 
ATOM     22  C   UNL     1       1.518  14.503  21.553  0.00  0.00    +0.000 C 
ATOM     23  C   UNL     1       1.131  15.970  21.371  0.00  0.00    +0.000 C 
ATOM     24  C   UNL     1       1.555  16.525  19.997  0.00  0.00    +0.000 C 
ATOM     25  C   UNL     1       0.947  15.608  18.917  0.00  0.00    +0.000 C 
ATOM     26  C   UNL     1       1.313  14.141  19.116  0.00  0.00    +0.000 C 
BRANCH  24  27
ATOM     27  C   UNL     1       3.048  16.796  19.811  0.00  0.00    +0.000 A 
ATOM     28  C   UNL     1       3.733  16.518  18.616  0.00  0.00    +0.000 A 
ATOM     29  C   UNL     1       5.106  16.749  18.490  0.00  0.00    +0.000 A 
ATOM     30  C   UNL     1       5.832  17.241  19.570  0.00  0.00    +0.000 A 
ATOM     31  C   UNL     1       5.181  17.505  20.776  0.00  0.00    +0.000 A 
ATOM     32  C   UNL     1       3.806  17.279  20.894  0.00  0.00    +0.000 A 
BRANCH  30  33
ATOM     33  C   UNL     1       7.235  17.466  19.451  0.00  0.00    +0.000 C 
ATOM     34  N   UNL     1       8.377  17.657  19.352  0.00  0.00    +0.000 NA
ENDBRANCH  30  33
ENDBRANCH  24  27
ENDBRANCH   6  19
TORSDOF 4
ENDMDL
MODEL 8
REMARK VINA RESULT:      -7.5      4.813      9.577
REMARK  Name = 
REMARK  6 active torsions:
REMARK  status: ('A' for Active; 'I' for Inactive)
REMARK    1  A    between atoms: C_1  and  C_2
REMARK    2  A    between atoms: C_4  and  C_5
REMARK    3  A    between atoms: C_15  and  C_16
REMARK    4  A    between atoms: C_21  and  C_22
REMARK    5  A    between atoms: C_25  and  C_26
REMARK    6  A    between atoms: C_32  and  C_33
REMARK                            x       y       z     vdW  Elec       q    Type
REMARK                         _______ _______ _______ _____ _____    ______ ____
ROOT
ATOM      1  C   UNL     1      -2.830  12.159  19.399  0.00  0.00    +0.000 C 
ATOM      2  C   UNL     1      -1.365  11.997  19.720  0.00  0.00    +0.000 A 
ATOM      3  C   UNL     1      -0.783  10.727  19.561  0.00  0.00    +0.000 A 
ATOM      4  C   UNL     1       0.544  10.491  19.928  0.00  0.00    +0.000 A 
ATOM      5  C   UNL     1       1.290  11.548  20.444  0.00  0.00    +0.000 A 
ATOM      6  C   UNL     1       0.774  12.851  20.520  0.00  0.00    +0.000 A 
ATOM      7  C   UNL     1      -0.584  13.084  20.193  0.00  0.00    +0.000 A 
ATOM      8  C   UNL     1      -1.253  14.427  20.359  0.00  0.00    +0.000 C 
ENDROOT
BRANCH   4   9
ATOM      9  C   UNL     1       1.180   9.183  19.785  0.00  0.00    +0.000 A 
ATOM     10  N   UNL     1       1.139   8.193  20.667  0.00  0.00    +0.000 NA
ATOM     11  C   UNL     1       1.877   7.184  20.115  0.00  0.00    +0.000 A 
ATOM     12  C   UNL     1       2.348   7.538  18.881  0.00  0.00    +0.000 A 
ATOM     13  N   UNL     1       1.900   8.806  18.667  0.00  0.00    +0.000 N 
ATOM     14  C   UNL     1       3.179   6.699  18.006  0.00  0.00    +0.000 C 
ATOM     15  O   UNL     1       3.867   5.764  18.859  0.00  0.00    +0.000 OA
ATOM     16  C   UNL     1       2.983   5.013  19.721  0.00  0.00    +0.000 C 
ATOM     17  C   UNL     1       2.221   5.890  20.742  0.00  0.00    +0.000 C 
ATOM     18  H   UNL     1       2.055   9.371  17.851  0.00  0.00    +0.000 HD
ENDBRANCH   4   9
BRANCH   6  19
ATOM     19  C   UNL     1       1.675  13.914  21.055  0.00  0.00    +0.000 C 
ATOM     20  O   UNL     1       1.440  14.341  22.186  0.00  0.00    +0.000 OA
ATOM     21  N   UNL     1       2.767  14.376  20.301  0.00  0.00    +0.000 N 
ATOM     22  C   UNL     1       3.758  15.190  20.996  0.00  0.00    +0.000 C 
ATOM     23  C   UNL     1       4.221  16.366  20.138  0.00  0.00    +0.000 C 
ATOM     24  C   UNL     1       4.745  15.920  18.760  0.00  0.00    +0.000 C 
ATOM     25  C   UNL     1       3.634  15.090  18.086  0.00  0.00    +0.000 C 
ATOM     26  C   UNL     1       3.155  13.933  18.955  0.00  0.00    +0.000 C 
BRANCH  24  27
ATOM     27  C   UNL     1       6.118  15.245  18.746  0.00  0.00    +0.000 A 
ATOM     28  C   UNL     1       7.091  15.471  19.733  0.00  0.00    +0.000 A 
ATOM     29  C   UNL     1       8.348  14.862  19.672  0.00  0.00    +0.000 A 
ATOM     30  C   UNL     1       8.669  14.030  18.605  0.00  0.00    +0.000 A 
ATOM     31  C   UNL     1       7.729  13.806  17.598  0.00  0.00    +0.000 A 
ATOM     32  C   UNL     1       6.470  14.412  17.668  0.00  0.00    +0.000 A 
BRANCH  30  33
ATOM     33  C   UNL     1       9.954  13.417  18.531  0.00  0.00    +0.000 C 
ATOM     34  N   UNL     1      11.005  12.924  18.475  0.00  0.00    +0.000 NA
ENDBRANCH  30  33
ENDBRANCH  24  27
ENDBRANCH   6  19
TORSDOF 4
ENDMDL
MODEL 9
REMARK VINA RESULT:      -7.4      4.794      9.348
REMARK  Name = 
REMARK  6 active torsions:
REMARK  status: ('A' for Active; 'I' for Inactive)
REMARK    1  A    between atoms: C_1  and  C_2
REMARK    2  A    between atoms: C_4  and  C_5
REMARK    3  A    between atoms: C_15  and  C_16
REMARK    4  A    between atoms: C_21  and  C_22
REMARK    5  A    between atoms: C_25  and  C_26
REMARK    6  A    between atoms: C_32  and  C_33
REMARK                            x       y       z     vdW  Elec       q    Type
REMARK                         _______ _______ _______ _____ _____    ______ ____
ROOT
ATOM      1  C   UNL     1      -2.750  12.345  19.659  0.00  0.00    +0.000 C 
ATOM      2  C   UNL     1      -1.274  12.131  19.887  0.00  0.00    +0.000 A 
ATOM      3  C   UNL     1      -0.749  10.841  19.691  0.00  0.00    +0.000 A 
ATOM      4  C   UNL     1       0.589  10.557  19.973  0.00  0.00    +0.000 A 
ATOM      5  C   UNL     1       1.403  11.585  20.442  0.00  0.00    +0.000 A 
ATOM      6  C   UNL     1       0.940  12.905  20.552  0.00  0.00    +0.000 A 
ATOM      7  C   UNL     1      -0.427  13.187  20.311  0.00  0.00    +0.000 A 
ATOM      8  C   UNL     1      -1.036  14.553  20.521  0.00  0.00    +0.000 C 
ENDROOT
BRANCH   4   9
ATOM      9  C   UNL     1       1.167   9.228  19.789  0.00  0.00    +0.000 A 
ATOM     10  N   UNL     1       1.877   8.821  18.744  0.00  0.00    +0.000 NA
ATOM     11  C   UNL     1       2.192   7.518  19.003  0.00  0.00    +0.000 A 
ATOM     12  C   UNL     1       1.706   7.128  20.220  0.00  0.00    +0.000 A 
ATOM     13  N   UNL     1       1.059   8.215  20.723  0.00  0.00    +0.000 N 
ATOM     14  C   UNL     1       1.856   5.792  20.816  0.00  0.00    +0.000 C 
ATOM     15  O   UNL     1       2.049   4.871  19.727  0.00  0.00    +0.000 OA
ATOM     16  C   UNL     1       3.131   5.241  18.844  0.00  0.00    +0.000 C 
ATOM     17  C   UNL     1       2.897   6.579  18.105  0.00  0.00    +0.000 C 
ATOM     18  H   UNL     1       0.591   8.283  21.609  0.00  0.00    +0.000 HD
ENDBRANCH   4   9
BRANCH   6  19
ATOM     19  C   UNL     1       1.910  13.934  21.031  0.00  0.00    +0.000 C 
ATOM     20  O   UNL     1       1.732  14.400  22.158  0.00  0.00    +0.000 OA
ATOM     21  N   UNL     1       2.999  14.320  20.232  0.00  0.00    +0.000 N 
ATOM     22  C   UNL     1       4.051  15.100  20.874  0.00  0.00    +0.000 C 
ATOM     23  C   UNL     1       4.545  16.230  19.972  0.00  0.00    +0.000 C 
ATOM     24  C   UNL     1       5.001  15.723  18.590  0.00  0.00    +0.000 C 
ATOM     25  C   UNL     1       3.829  14.935  17.973  0.00  0.00    +0.000 C 
ATOM     26  C   UNL     1       3.320  13.825  18.887  0.00  0.00    +0.000 C 
BRANCH  24  27
ATOM     27  C   UNL     1       6.337  14.978  18.552  0.00  0.00    +0.000 A 
ATOM     28  C   UNL     1       7.350  15.176  19.505  0.00  0.00    +0.000 A 
ATOM     29  C   UNL     1       8.572  14.502  19.422  0.00  0.00    +0.000 A 
ATOM     30  C   UNL     1       8.818  13.632  18.365  0.00  0.00    +0.000 A 
ATOM     31  C   UNL     1       7.838  13.435  17.391  0.00  0.00    +0.000 A 
ATOM     32  C   UNL     1       6.615  14.106  17.483  0.00  0.00    +0.000 A 
BRANCH  30  33
ATOM     33  C   UNL     1      10.069  12.953  18.268  0.00  0.00    +0.000 C 
ATOM     34  N   UNL     1      11.084  12.394  18.183  0.00  0.00    +0.000 NA
ENDBRANCH  30  33
ENDBRANCH  24  27
ENDBRANCH   6  19
TORSDOF 4
ENDMDL
