MODEL 1
REMARK VINA RESULT:      -8.4      0.000      0.000
REMARK  Name = 
REMARK  5 active torsions:
REMARK  status: ('A' for Active; 'I' for Inactive)
REMARK    1  A    between atoms: C_1  and  C_2
REMARK    2  A    between atoms: C_2  and  O_4
REMARK    3  A    between atoms: O_4  and  C_5
REMARK    4  A    between atoms: C_12  and  C_13
REMARK    5  A    between atoms: C_14  and  C_15
REMARK                            x       y       z     vdW  Elec       q    Type
REMARK                         _______ _______ _______ _____ _____    ______ ____
ROOT
ATOM      1  C   UNL     1       6.198   6.140  16.430  0.00  0.00    +0.000 A 
ATOM      2  C   UNL     1       6.978   5.303  15.624  0.00  0.00    +0.000 A 
ATOM      3  C   UNL     1       6.533   4.026  15.318  0.00  0.00    +0.000 A 
ATOM      4  C   UNL     1       5.326   3.568  15.841  0.00  0.00    +0.000 A 
ATOM      5  C   UNL     1       4.550   4.376  16.690  0.00  0.00    +0.000 A 
ATOM      6  C   UNL     1       3.360   3.884  17.241  0.00  0.00    +0.000 A 
ATOM      7  C   UNL     1       2.595   4.666  18.109  0.00  0.00    +0.000 A 
ATOM      8  C   UNL     1       3.000   5.964  18.435  0.00  0.00    +0.000 A 
ATOM      9  C   UNL     1       4.194   6.458  17.887  0.00  0.00    +0.000 A 
ATOM     10  C   UNL     1       4.987   5.687  17.005  0.00  0.00    +0.000 A 
ENDROOT
BRANCH   8  11
ATOM     11  C   UNL     1       2.182   6.730  19.387  0.00  0.00    +0.000 C 
ATOM     12  C   UNL     1       2.035   8.065  19.360  0.00  0.00    +0.000 C 
BRANCH  12  13
ATOM     13  C   UNL     1       1.199   8.821  20.303  0.00  0.00    +0.000 A 
ATOM     14  C   UNL     1       1.247   8.612  21.689  0.00  0.00    +0.000 A 
ATOM     15  C   UNL     1       0.447   9.363  22.553  0.00  0.00    +0.000 A 
ATOM     16  C   UNL     1      -0.398  10.347  22.043  0.00  0.00    +0.000 A 
ATOM     17  C   UNL     1      -0.434  10.576  20.670  0.00  0.00    +0.000 A 
ATOM     18 BR   UNL     1      -1.567  11.920  19.974  0.00  0.00    +0.000 Br
ATOM     19  C   UNL     1       0.359   9.825  19.801  0.00  0.00    +0.000 A 
ENDBRANCH  12  13
ENDBRANCH   8  11
BRANCH   1  20
ATOM     20  O   UNL     1       6.701   7.410  16.794  0.00  0.00    +0.000 OA
BRANCH  20  22
ATOM     21  C   UNL     1       8.155   8.882  17.915  0.00  0.00    +0.000 C 
ATOM     22  C   UNL     1       7.647   7.474  17.821  0.00  0.00    +0.000 C 
ATOM     23  O   UNL     1       7.994   6.565  18.560  0.00  0.00    +0.000 OA
ENDBRANCH  20  22
ENDBRANCH   1  20
TORSDOF 4
ENDMDL
MODEL 2
REMARK VINA RESULT:      -8.3      1.599      1.785
REMARK  Name = 
REMARK  5 active torsions:
REMARK  status: ('A' for Active; 'I' for Inactive)
REMARK    1  A    between atoms: C_1  and  C_2
REMARK    2  A    between atoms: C_2  and  O_4
REMARK    3  A    between atoms: O_4  and  C_5
REMARK    4  A    between atoms: C_12  and  C_13
REMARK    5  A    between atoms: C_14  and  C_15
REMARK                            x       y       z     vdW  Elec       q    Type
REMARK                         _______ _______ _______ _____ _____    ______ ____
ROOT
ATOM      1  C   UNL     1       6.171   6.176  16.583  0.00  0.00    +0.000 A 
ATOM      2  C   UNL     1       6.876   5.043  16.163  0.00  0.00    +0.000 A 
ATOM      3  C   UNL     1       6.253   3.805  16.153  0.00  0.00    +0.000 A 
ATOM      4  C   UNL     1       4.936   3.687  16.592  0.00  0.00    +0.000 A 
ATOM      5  C   UNL     1       4.226   4.805  17.062  0.00  0.00    +0.000 A 
ATOM      6  C   UNL     1       2.917   4.661  17.540  0.00  0.00    +0.000 A 
ATOM      7  C   UNL     1       2.211   5.758  18.036  0.00  0.00    +0.000 A 
ATOM      8  C   UNL     1       2.796   7.028  18.054  0.00  0.00    +0.000 A 
ATOM      9  C   UNL     1       4.109   7.175  17.579  0.00  0.00    +0.000 A 
ATOM     10  C   UNL     1       4.846   6.080  17.071  0.00  0.00    +0.000 A 
ENDROOT
BRANCH   8  11
ATOM     11  C   UNL     1       2.025   8.142  18.626  0.00  0.00    +0.000 C 
ATOM     12  C   UNL     1       1.415   9.094  17.901  0.00  0.00    +0.000 C 
BRANCH  12  13
ATOM     13  C   UNL     1       0.630  10.194  18.480  0.00  0.00    +0.000 A 
ATOM     14  C   UNL     1       1.204  11.190  19.285  0.00  0.00    +0.000 A 
ATOM     15  C   UNL     1       0.426  12.227  19.803  0.00  0.00    +0.000 A 
ATOM     16  C   UNL     1      -0.935  12.292  19.508  0.00  0.00    +0.000 A 
ATOM     17  C   UNL     1      -1.507  11.320  18.692  0.00  0.00    +0.000 A 
ATOM     18 BR   UNL     1      -3.349  11.413  18.277  0.00  0.00    +0.000 Br
ATOM     19  C   UNL     1      -0.736  10.278  18.175  0.00  0.00    +0.000 A 
ENDBRANCH  12  13
ENDBRANCH   8  11
BRANCH   1  20
ATOM     20  O   UNL     1       6.844   7.417  16.659  0.00  0.00    +0.000 OA
BRANCH  20  22
ATOM     21  C   UNL     1       8.053   9.100  17.775  0.00  0.00    +0.000 C 
ATOM     22  C   UNL     1       7.681   7.647  17.754  0.00  0.00    +0.000 C 
ATOM     23  O   UNL     1       8.036   6.833  18.593  0.00  0.00    +0.000 OA
ENDBRANCH  20  22
ENDBRANCH   1  20
TORSDOF 4
ENDMDL
MODEL 3
REMARK VINA RESULT:      -8.2      1.607      1.878
REMARK  Name = 
REMARK  5 active torsions:
REMARK  status: ('A' for Active; 'I' for Inactive)
REMARK    1  A    between atoms: C_1  and  C_2
REMARK    2  A    between atoms: C_2  and  O_4
REMARK    3  A    between atoms: O_4  and  C_5
REMARK    4  A    between atoms: C_12  and  C_13
REMARK    5  A    between atoms: C_14  and  C_15
REMARK                            x       y       z     vdW  Elec       q    Type
REMARK                         _______ _______ _______ _____ _____    ______ ____
ROOT
ATOM      1  C   UNL     1       6.197   6.135  16.535  0.00  0.00    +0.000 A 
ATOM      2  C   UNL     1       6.869   4.996  16.079  0.00  0.00    +0.000 A 
ATOM      3  C   UNL     1       6.219   3.771  16.057  0.00  0.00    +0.000 A 
ATOM      4  C   UNL     1       4.909   3.674  16.520  0.00  0.00    +0.000 A 
ATOM      5  C   UNL     1       4.233   4.797  17.026  0.00  0.00    +0.000 A 
ATOM      6  C   UNL     1       2.930   4.672  17.526  0.00  0.00    +0.000 A 
ATOM      7  C   UNL     1       2.258   5.774  18.058  0.00  0.00    +0.000 A 
ATOM      8  C   UNL     1       2.871   7.030  18.088  0.00  0.00    +0.000 A 
ATOM      9  C   UNL     1       4.177   7.158  17.590  0.00  0.00    +0.000 A 
ATOM     10  C   UNL     1       4.880   6.057  17.046  0.00  0.00    +0.000 A 
ENDROOT
BRANCH   8  11
ATOM     11  C   UNL     1       2.137   8.149  18.697  0.00  0.00    +0.000 C 
ATOM     12  C   UNL     1       1.658   9.203  18.016  0.00  0.00    +0.000 C 
BRANCH  12  13
ATOM     13  C   UNL     1       0.908  10.309  18.629  0.00  0.00    +0.000 A 
ATOM     14  C   UNL     1      -0.359  10.134  19.205  0.00  0.00    +0.000 A 
ATOM     15  C   UNL     1      -1.033  11.208  19.791  0.00  0.00    +0.000 A 
ATOM     16  C   UNL     1      -0.439  12.468  19.826  0.00  0.00    +0.000 A 
ATOM     17  C   UNL     1       0.828  12.645  19.276  0.00  0.00    +0.000 A 
ATOM     18 BR   UNL     1       1.644  14.349  19.334  0.00  0.00    +0.000 Br
ATOM     19  C   UNL     1       1.504  11.577  18.684  0.00  0.00    +0.000 A 
ENDBRANCH  12  13
ENDBRANCH   8  11
BRANCH   1  20
ATOM     20  O   UNL     1       6.899   7.360  16.621  0.00  0.00    +0.000 OA
BRANCH  20  22
ATOM     21  C   UNL     1       8.037   9.044  17.806  0.00  0.00    +0.000 C 
ATOM     22  C   UNL     1       7.693   7.585  17.748  0.00  0.00    +0.000 C 
ATOM     23  O   UNL     1       8.035   6.764  18.585  0.00  0.00    +0.000 OA
ENDBRANCH  20  22
ENDBRANCH   1  20
TORSDOF 4
ENDMDL
MODEL 4
REMARK VINA RESULT:      -8.0      2.523      4.033
REMARK  Name = 
REMARK  5 active torsions:
REMARK  status: ('A' for Active; 'I' for Inactive)
REMARK    1  A    between atoms: C_1  and  C_2
REMARK    2  A    between atoms: C_2  and  O_4
REMARK    3  A    between atoms: O_4  and  C_5
REMARK    4  A    between atoms: C_12  and  C_13
REMARK    5  A    between atoms: C_14  and  C_15
REMARK                            x       y       z     vdW  Elec       q    Type
REMARK                         _______ _______ _______ _____ _____    ______ ____
ROOT
ATOM      1  C   UNL     1       3.764   3.937  18.939  0.00  0.00    +0.000 A 
ATOM      2  C   UNL     1       4.487   3.254  17.956  0.00  0.00    +0.000 A 
ATOM      3  C   UNL     1       4.926   3.927  16.826  0.00  0.00    +0.000 A 
ATOM      4  C   UNL     1       4.617   5.274  16.658  0.00  0.00    +0.000 A 
ATOM      5  C   UNL     1       3.852   5.967  17.611  0.00  0.00    +0.000 A 
ATOM      6  C   UNL     1       3.515   7.312  17.405  0.00  0.00    +0.000 A 
ATOM      7  C   UNL     1       2.731   8.003  18.331  0.00  0.00    +0.000 A 
ATOM      8  C   UNL     1       2.278   7.367  19.490  0.00  0.00    +0.000 A 
ATOM      9  C   UNL     1       2.611   6.020  19.698  0.00  0.00    +0.000 A 
ATOM     10  C   UNL     1       3.404   5.296  18.776  0.00  0.00    +0.000 A 
ENDROOT
BRANCH   8  11
ATOM     11  C   UNL     1       1.420   8.128  20.411  0.00  0.00    +0.000 C 
ATOM     12  C   UNL     1       0.919   9.347  20.151  0.00  0.00    +0.000 C 
BRANCH  12  13
ATOM     13  C   UNL     1       0.046  10.092  21.070  0.00  0.00    +0.000 A 
ATOM     14  C   UNL     1      -0.131   9.722  22.411  0.00  0.00    +0.000 A 
ATOM     15  C   UNL     1      -0.957  10.467  23.255  0.00  0.00    +0.000 A 
ATOM     16  C   UNL     1      -1.603  11.604  22.773  0.00  0.00    +0.000 A 
ATOM     17  C   UNL     1      -1.415  11.990  21.449  0.00  0.00    +0.000 A 
ATOM     18 BR   UNL     1      -2.276  13.541  20.795  0.00  0.00    +0.000 Br
ATOM     19  C   UNL     1      -0.594  11.247  20.599  0.00  0.00    +0.000 A 
ENDBRANCH  12  13
ENDBRANCH   8  11
BRANCH   1  20
ATOM     20  O   UNL     1       3.260   3.219  20.047  0.00  0.00    +0.000 OA
BRANCH  20  22
ATOM     21  C   UNL     1       1.369   2.688  21.344  0.00  0.00    +0.000 C 
ATOM     22  C   UNL     1       1.962   2.709  19.966  0.00  0.00    +0.000 C 
ATOM     23  O   UNL     1       1.367   2.367  18.956  0.00  0.00    +0.000 OA
ENDBRANCH  20  22
ENDBRANCH   1  20
TORSDOF 4
ENDMDL
MODEL 5
REMARK VINA RESULT:      -7.9      3.888      6.976
REMARK  Name = 
REMARK  5 active torsions:
REMARK  status: ('A' for Active; 'I' for Inactive)
REMARK    1  A    between atoms: C_1  and  C_2
REMARK    2  A    between atoms: C_2  and  O_4
REMARK    3  A    between atoms: O_4  and  C_5
REMARK    4  A    between atoms: C_12  and  C_13
REMARK    5  A    between atoms: C_14  and  C_15
REMARK                            x       y       z     vdW  Elec       q    Type
REMARK                         _______ _______ _______ _____ _____    ______ ____
ROOT
ATOM      1  C   UNL     1       4.413   4.598  18.705  0.00  0.00    +0.000 A 
ATOM      2  C   UNL     1       3.589   3.681  18.042  0.00  0.00    +0.000 A 
ATOM      3  C   UNL     1       3.854   3.337  16.726  0.00  0.00    +0.000 A 
ATOM      4  C   UNL     1       4.921   3.930  16.056  0.00  0.00    +0.000 A 
ATOM      5  C   UNL     1       5.732   4.888  16.689  0.00  0.00    +0.000 A 
ATOM      6  C   UNL     1       6.775   5.506  15.986  0.00  0.00    +0.000 A 
ATOM      7  C   UNL     1       7.570   6.480  16.593  0.00  0.00    +0.000 A 
ATOM      8  C   UNL     1       7.345   6.848  17.923  0.00  0.00    +0.000 A 
ATOM      9  C   UNL     1       6.299   6.233  18.629  0.00  0.00    +0.000 A 
ATOM     10  C   UNL     1       5.480   5.244  18.037  0.00  0.00    +0.000 A 
ENDROOT
BRANCH   8  11
ATOM     11  C   UNL     1       8.183   7.909  18.503  0.00  0.00    +0.000 C 
ATOM     12  C   UNL     1       8.297   9.148  17.997  0.00  0.00    +0.000 C 
BRANCH  12  13
ATOM     13  C   UNL     1       9.121  10.209  18.594  0.00  0.00    +0.000 A 
ATOM     14  C   UNL     1       9.245  10.379  19.980  0.00  0.00    +0.000 A 
ATOM     15  C   UNL     1      10.052  11.391  20.507  0.00  0.00    +0.000 A 
ATOM     16  C   UNL     1      10.759  12.234  19.652  0.00  0.00    +0.000 A 
ATOM     17  C   UNL     1      10.658  12.058  18.275  0.00  0.00    +0.000 A 
ATOM     18 BR   UNL     1      11.629  13.189  17.112  0.00  0.00    +0.000 Br
ATOM     19  C   UNL     1       9.850  11.051  17.743  0.00  0.00    +0.000 A 
ENDBRANCH  12  13
ENDBRANCH   8  11
BRANCH   1  20
ATOM     20  O   UNL     1       4.083   4.993  20.021  0.00  0.00    +0.000 OA
BRANCH  20  22
ATOM     21  C   UNL     1       2.559   6.733  19.588  0.00  0.00    +0.000 C 
ATOM     22  C   UNL     1       2.776   5.417  20.274  0.00  0.00    +0.000 C 
ATOM     23  O   UNL     1       1.919   4.821  20.909  0.00  0.00    +0.000 OA
ENDBRANCH  20  22
ENDBRANCH   1  20
TORSDOF 4
ENDMDL
MODEL 6
REMARK VINA RESULT:      -7.8      2.873      4.552
REMARK  Name = 
REMARK  5 active torsions:
REMARK  status: ('A' for Active; 'I' for Inactive)
REMARK    1  A    between atoms: C_1  and  C_2
REMARK    2  A    between atoms: C_2  and  O_4
REMARK    3  A    between atoms: O_4  and  C_5
REMARK    4  A    between atoms: C_12  and  C_13
REMARK    5  A    between atoms: C_14  and  C_15
REMARK                            x       y       z     vdW  Elec       q    Type
REMARK                         _______ _______ _______ _____ _____    ______ ____
ROOT
ATOM      1  C   UNL     1       3.286   4.735  20.059  0.00  0.00    +0.000 A 
ATOM      2  C   UNL     1       4.146   3.670  19.772  0.00  0.00    +0.000 A 
ATOM      3  C   UNL     1       5.020   3.755  18.699  0.00  0.00    +0.000 A 
ATOM      4  C   UNL     1       5.015   4.888  17.890  0.00  0.00    +0.000 A 
ATOM      5  C   UNL     1       4.126   5.949  18.133  0.00  0.00    +0.000 A 
ATOM      6  C   UNL     1       4.106   7.063  17.283  0.00  0.00    +0.000 A 
ATOM      7  C   UNL     1       3.209   8.111  17.496  0.00  0.00    +0.000 A 
ATOM      8  C   UNL     1       2.318   8.072  18.573  0.00  0.00    +0.000 A 
ATOM      9  C   UNL     1       2.334   6.956  19.425  0.00  0.00    +0.000 A 
ATOM     10  C   UNL     1       3.233   5.881  19.231  0.00  0.00    +0.000 A 
ENDROOT
BRANCH   8  11
ATOM     11  C   UNL     1       1.364   9.180  18.729  0.00  0.00    +0.000 C 
ATOM     12  C   UNL     1       0.579   9.361  19.803  0.00  0.00    +0.000 C 
BRANCH  12  13
ATOM     13  C   UNL     1      -0.359  10.483  19.959  0.00  0.00    +0.000 A 
ATOM     14  C   UNL     1      -1.236  10.881  18.939  0.00  0.00    +0.000 A 
ATOM     15  C   UNL     1      -2.123  11.943  19.134  0.00  0.00    +0.000 A 
ATOM     16  C   UNL     1      -2.155  12.609  20.357  0.00  0.00    +0.000 A 
ATOM     17  C   UNL     1      -1.303  12.205  21.381  0.00  0.00    +0.000 A 
ATOM     18 BR   UNL     1      -1.355  13.095  23.049  0.00  0.00    +0.000 Br
ATOM     19  C   UNL     1      -0.412  11.148  21.192  0.00  0.00    +0.000 A 
ENDBRANCH  12  13
ENDBRANCH   8  11
BRANCH   1  20
ATOM     20  O   UNL     1       2.350   4.601  21.110  0.00  0.00    +0.000 OA
BRANCH  20  22
ATOM     21  C   UNL     1       0.766   3.203  20.072  0.00  0.00    +0.000 C 
ATOM     22  C   UNL     1       1.683   3.381  21.246  0.00  0.00    +0.000 C 
ATOM     23  O   UNL     1       1.828   2.557  22.137  0.00  0.00    +0.000 OA
ENDBRANCH  20  22
ENDBRANCH   1  20
TORSDOF 4
ENDMDL
MODEL 7
REMARK VINA RESULT:      -7.8      3.021      4.676
REMARK  Name = 
REMARK  5 active torsions:
REMARK  status: ('A' for Active; 'I' for Inactive)
REMARK    1  A    between atoms: C_1  and  C_2
REMARK    2  A    between atoms: C_2  and  O_4
REMARK    3  A    between atoms: O_4  and  C_5
REMARK    4  A    between atoms: C_12  and  C_13
REMARK    5  A    between atoms: C_14  and  C_15
REMARK                            x       y       z     vdW  Elec       q    Type
REMARK                         _______ _______ _______ _____ _____    ______ ____
ROOT
ATOM      1  C   UNL     1       3.314   4.802  20.049  0.00  0.00    +0.000 A 
ATOM      2  C   UNL     1       4.182   3.813  19.576  0.00  0.00    +0.000 A 
ATOM      3  C   UNL     1       4.910   4.028  18.415  0.00  0.00    +0.000 A 
ATOM      4  C   UNL     1       4.750   5.216  17.707  0.00  0.00    +0.000 A 
ATOM      5  C   UNL     1       3.848   6.203  18.140  0.00  0.00    +0.000 A 
ATOM      6  C   UNL     1       3.668   7.374  17.391  0.00  0.00    +0.000 A 
ATOM      7  C   UNL     1       2.754   8.349  17.795  0.00  0.00    +0.000 A 
ATOM      8  C   UNL     1       2.008   8.178  18.965  0.00  0.00    +0.000 A 
ATOM      9  C   UNL     1       2.184   7.005  19.715  0.00  0.00    +0.000 A 
ATOM     10  C   UNL     1       3.103   6.002  19.329  0.00  0.00    +0.000 A 
ENDROOT
BRANCH   8  11
ATOM     11  C   UNL     1       1.029   9.215  19.323  0.00  0.00    +0.000 C 
ATOM     12  C   UNL     1       0.024   9.618  18.528  0.00  0.00    +0.000 C 
BRANCH  12  13
ATOM     13  C   UNL     1      -0.963  10.642  18.901  0.00  0.00    +0.000 A 
ATOM     14  C   UNL     1      -0.701  11.628  19.864  0.00  0.00    +0.000 A 
ATOM     15  C   UNL     1      -1.661  12.592  20.178  0.00  0.00    +0.000 A 
ATOM     16  C   UNL     1      -2.889  12.594  19.520  0.00  0.00    +0.000 A 
ATOM     17  C   UNL     1      -3.148  11.632  18.548  0.00  0.00    +0.000 A 
ATOM     18 BR   UNL     1      -4.807  11.640  17.641  0.00  0.00    +0.000 Br
ATOM     19  C   UNL     1      -2.195  10.663  18.232  0.00  0.00    +0.000 A 
ENDBRANCH  12  13
ENDBRANCH   8  11
BRANCH   1  20
ATOM     20  O   UNL     1       2.524   4.536  21.191  0.00  0.00    +0.000 OA
BRANCH  20  22
ATOM     21  C   UNL     1       0.819   3.315  20.123  0.00  0.00    +0.000 C 
ATOM     22  C   UNL     1       1.821   3.330  21.239  0.00  0.00    +0.000 C 
ATOM     23  O   UNL     1       1.996   2.406  22.019  0.00  0.00    +0.000 OA
ENDBRANCH  20  22
ENDBRANCH   1  20
TORSDOF 4
ENDMDL
MODEL 8
REMARK VINA RESULT:      -7.7      3.113      4.665
REMARK  Name = 
REMARK  5 active torsions:
REMARK  status: ('A' for Active; 'I' for Inactive)
REMARK    1  A    between atoms: C_1  and  C_2
REMARK    2  A    between atoms: C_2  and  O_4
REMARK    3  A    between atoms: O_4  and  C_5
REMARK    4  A    between atoms: C_12  and  C_13
REMARK    5  A    between atoms: C_14  and  C_15
REMARK                            x       y       z     vdW  Elec       q    Type
REMARK                         _______ _______ _______ _____ _____    ______ ____
ROOT
ATOM      1  C   UNL     1       3.216   4.425  20.014  0.00  0.00    +0.000 A 
ATOM      2  C   UNL     1       4.037   3.293  20.009  0.00  0.00    +0.000 A 
ATOM      3  C   UNL     1       5.098   3.211  19.121  0.00  0.00    +0.000 A 
ATOM      4  C   UNL     1       5.323   4.243  18.213  0.00  0.00    +0.000 A 
ATOM      5  C   UNL     1       4.481   5.367  18.170  0.00  0.00    +0.000 A 
ATOM      6  C   UNL     1       4.697   6.376  17.222  0.00  0.00    +0.000 A 
ATOM      7  C   UNL     1       3.851   7.484  17.149  0.00  0.00    +0.000 A 
ATOM      8  C   UNL     1       2.776   7.613  18.034  0.00  0.00    +0.000 A 
ATOM      9  C   UNL     1       2.556   6.603  18.983  0.00  0.00    +0.000 A 
ATOM     10  C   UNL     1       3.398   5.470  19.078  0.00  0.00    +0.000 A 
ENDROOT
BRANCH   8  11
ATOM     11  C   UNL     1       1.890   8.777  17.889  0.00  0.00    +0.000 C 
ATOM     12  C   UNL     1       1.301   9.416  18.913  0.00  0.00    +0.000 C 
BRANCH  12  13
ATOM     13  C   UNL     1       0.431  10.592  18.760  0.00  0.00    +0.000 A 
ATOM     14  C   UNL     1       0.868  11.895  19.041  0.00  0.00    +0.000 A 
ATOM     15  C   UNL     1       0.014  12.987  18.868  0.00  0.00    +0.000 A 
ATOM     16  C   UNL     1      -1.281  12.791  18.394  0.00  0.00    +0.000 A 
ATOM     17  C   UNL     1      -1.714  11.503  18.092  0.00  0.00    +0.000 A 
ATOM     18 BR   UNL     1      -3.466  11.235  17.434  0.00  0.00    +0.000 Br
ATOM     19  C   UNL     1      -0.868  10.408  18.268  0.00  0.00    +0.000 A 
ENDBRANCH  12  13
ENDBRANCH   8  11
BRANCH   1  20
ATOM     20  O   UNL     1       2.094   4.458  20.874  0.00  0.00    +0.000 OA
BRANCH  20  22
ATOM     21  C   UNL     1       0.668   2.930  19.793  0.00  0.00    +0.000 C 
ATOM     22  C   UNL     1       1.378   3.275  21.069  0.00  0.00    +0.000 C 
ATOM     23  O   UNL     1       1.346   2.591  22.081  0.00  0.00    +0.000 OA
ENDBRANCH  20  22
ENDBRANCH   1  20
TORSDOF 4
ENDMDL
MODEL 9
REMARK VINA RESULT:      -7.7      5.809      9.356
REMARK  Name = 
REMARK  5 active torsions:
REMARK  status: ('A' for Active; 'I' for Inactive)
REMARK    1  A    between atoms: C_1  and  C_2
REMARK    2  A    between atoms: C_2  and  O_4
REMARK    3  A    between atoms: O_4  and  C_5
REMARK    4  A    between atoms: C_12  and  C_13
REMARK    5  A    between atoms: C_14  and  C_15
REMARK                            x       y       z     vdW  Elec       q    Type
REMARK                         _______ _______ _______ _____ _____    ______ ____
ROOT
ATOM      1  C   UNL     1       9.685  13.390  21.549  0.00  0.00    +0.000 A 
ATOM      2  C   UNL     1      10.161  14.703  21.627  0.00  0.00    +0.000 A 
ATOM      3  C   UNL     1      10.602  15.348  20.481  0.00  0.00    +0.000 A 
ATOM      4  C   UNL     1      10.599  14.675  19.262  0.00  0.00    +0.000 A 
ATOM      5  C   UNL     1      10.168  13.340  19.171  0.00  0.00    +0.000 A 
ATOM      6  C   UNL     1      10.212  12.665  17.944  0.00  0.00    +0.000 A 
ATOM      7  C   UNL     1       9.815  11.331  17.846  0.00  0.00    +0.000 A 
ATOM      8  C   UNL     1       9.352  10.645  18.974  0.00  0.00    +0.000 A 
ATOM      9  C   UNL     1       9.310  11.318  20.205  0.00  0.00    +0.000 A 
ATOM     10  C   UNL     1       9.707  12.670  20.331  0.00  0.00    +0.000 A 
ENDROOT
BRANCH   8  11
ATOM     11  C   UNL     1       8.986   9.229  18.826  0.00  0.00    +0.000 C 
ATOM     12  C   UNL     1       8.032   8.774  17.996  0.00  0.00    +0.000 C 
BRANCH  12  13
ATOM     13  C   UNL     1       7.685   7.354  17.840  0.00  0.00    +0.000 A 
ATOM     14  C   UNL     1       7.944   6.399  18.835  0.00  0.00    +0.000 A 
ATOM     15  C   UNL     1       7.584   5.062  18.653  0.00  0.00    +0.000 A 
ATOM     16  C   UNL     1       6.944   4.666  17.480  0.00  0.00    +0.000 A 
ATOM     17  C   UNL     1       6.664   5.611  16.497  0.00  0.00    +0.000 A 
ATOM     18 BR   UNL     1       5.782   5.081  14.911  0.00  0.00    +0.000 Br
ATOM     19  C   UNL     1       7.026   6.948  16.671  0.00  0.00    +0.000 A 
ENDBRANCH  12  13
ENDBRANCH   8  11
BRANCH   1  20
ATOM     20  O   UNL     1       9.311  12.722  22.738  0.00  0.00    +0.000 OA
BRANCH  20  22
ATOM     21  C   UNL     1       7.694  11.648  24.070  0.00  0.00    +0.000 C 
ATOM     22  C   UNL     1       7.975  12.792  23.140  0.00  0.00    +0.000 C 
ATOM     23  O   UNL     1       7.158  13.648  22.837  0.00  0.00    +0.000 OA
ENDBRANCH  20  22
ENDBRANCH   1  20
TORSDOF 4
ENDMDL
