MODEL 1
REMARK VINA RESULT:      -7.8      0.000      0.000
REMARK  Name = 
REMARK  11 active torsions:
REMARK  status: ('A' for Active; 'I' for Inactive)
REMARK    1  A    between atoms: C_1  and  C_2
REMARK    2  A    between atoms: C_2  and  C_3
REMARK    3  A    between atoms: C_2  and  C_4
REMARK    4  A    between atoms: C_2  and  C_21
REMARK    5  A    between atoms: C_4  and  C_5
REMARK    6  A    between atoms: C_5  and  C_6
REMARK    7  A    between atoms: C_6  and  O_7
REMARK    8  A    between atoms: O_7  and  C_8
REMARK    9  A    between atoms: C_11  and  C_12
REMARK   10  A    between atoms: C_12  and  C_13
REMARK   11  A    between atoms: C_21  and  O_23
REMARK                            x       y       z     vdW  Elec       q    Type
REMARK                         _______ _______ _______ _____ _____    ______ ____
ROOT
ATOM      1  C   UNL     1       6.388   6.686  17.290  0.00  0.00    +0.000 A 
ATOM      2  C   UNL     1       6.848   5.608  18.050  0.00  0.00    +0.000 A 
ATOM      3  C   UNL     1       6.058   4.477  18.226  0.00  0.00    +0.000 A 
ATOM      4  C   UNL     1       4.792   4.396  17.643  0.00  0.00    +0.000 A 
ATOM      5  C   UNL     1       4.319   5.487  16.899  0.00  0.00    +0.000 A 
ATOM      6  C   UNL     1       5.115   6.624  16.720  0.00  0.00    +0.000 A 
ENDROOT
BRANCH   1   7
ATOM      7  O   UNL     1       7.110   7.827  17.047  0.00  0.00    +0.000 OA
BRANCH   7   8
ATOM      8  C   UNL     1       8.099   8.123  18.037  0.00  0.00    +0.000 C 
BRANCH   8   9
ATOM      9  C   UNL     1       8.446   9.601  17.980  0.00  0.00    +0.000 C 
BRANCH   9  10
ATOM     10  C   UNL     1       9.248  10.012  19.221  0.00  0.00    +0.000 C 
BRANCH  10  12
ATOM     11  C   UNL     1      11.284  11.503  19.101  0.00  0.00    +0.000 C 
ATOM     12  C   UNL     1       9.753  11.482  19.220  0.00  0.00    +0.000 C 
ATOM     13  C   UNL     1       9.105  12.253  18.058  0.00  0.00    +0.000 C 
BRANCH  12  14
ATOM     14  C   UNL     1       9.345  12.136  20.550  0.00  0.00    +0.000 C 
ATOM     15  O   UNL     1       8.789  13.223  20.646  0.00  0.00    +0.000 OA
BRANCH  14  16
ATOM     16  O   UNL     1       9.643  11.412  21.653  0.00  0.00    +0.000 OA
ATOM     17  H   UNL     1      10.452  11.687  22.127  0.00  0.00    +0.000 HD
ENDBRANCH  14  16
ENDBRANCH  12  14
ENDBRANCH  10  12
ENDBRANCH   9  10
ENDBRANCH   8   9
ENDBRANCH   7   8
ENDBRANCH   1   7
BRANCH   4  18
ATOM     18  C   UNL     1       3.991   3.130  17.807  0.00  0.00    +0.000 C 
BRANCH  18  19
ATOM     19  C   UNL     1       3.053   3.116  18.989  0.00  0.00    +0.000 A 
ATOM     20  C   UNL     1       3.494   2.646  20.233  0.00  0.00    +0.000 A 
ATOM     21  C   UNL     1       2.657   2.702  21.349  0.00  0.00    +0.000 A 
ATOM     22  C   UNL     1       1.368   3.217  21.231  0.00  0.00    +0.000 A 
ATOM     23  C   UNL     1       0.906   3.657  19.993  0.00  0.00    +0.000 A 
ATOM     24  C   UNL     1       1.741   3.602  18.875  0.00  0.00    +0.000 A 
ENDBRANCH  18  19
ENDBRANCH   4  18
TORSDOF 9
ENDMDL
MODEL 2
REMARK VINA RESULT:      -7.8      0.801      1.443
REMARK  Name = 
REMARK  11 active torsions:
REMARK  status: ('A' for Active; 'I' for Inactive)
REMARK    1  A    between atoms: C_1  and  C_2
REMARK    2  A    between atoms: C_2  and  C_3
REMARK    3  A    between atoms: C_2  and  C_4
REMARK    4  A    between atoms: C_2  and  C_21
REMARK    5  A    between atoms: C_4  and  C_5
REMARK    6  A    between atoms: C_5  and  C_6
REMARK    7  A    between atoms: C_6  and  O_7
REMARK    8  A    between atoms: O_7  and  C_8
REMARK    9  A    between atoms: C_11  and  C_12
REMARK   10  A    between atoms: C_12  and  C_13
REMARK   11  A    between atoms: C_21  and  O_23
REMARK                            x       y       z     vdW  Elec       q    Type
REMARK                         _______ _______ _______ _____ _____    ______ ____
ROOT
ATOM      1  C   UNL     1       6.696   6.321  16.874  0.00  0.00    +0.000 A 
ATOM      2  C   UNL     1       6.808   4.975  16.516  0.00  0.00    +0.000 A 
ATOM      3  C   UNL     1       5.723   4.114  16.646  0.00  0.00    +0.000 A 
ATOM      4  C   UNL     1       4.499   4.580  17.132  0.00  0.00    +0.000 A 
ATOM      5  C   UNL     1       4.392   5.926  17.514  0.00  0.00    +0.000 A 
ATOM      6  C   UNL     1       5.483   6.791  17.381  0.00  0.00    +0.000 A 
ENDROOT
BRANCH   1   7
ATOM      7  O   UNL     1       7.706   7.241  16.757  0.00  0.00    +0.000 OA
BRANCH   7   8
ATOM      8  C   UNL     1       8.071   7.877  17.986  0.00  0.00    +0.000 C 
BRANCH   8   9
ATOM      9  C   UNL     1       8.223   9.371  17.757  0.00  0.00    +0.000 C 
BRANCH   9  10
ATOM     10  C   UNL     1       9.036  10.008  18.889  0.00  0.00    +0.000 C 
BRANCH  10  12
ATOM     11  C   UNL     1      10.909  11.406  17.927  0.00  0.00    +0.000 C 
ATOM     12  C   UNL     1       9.534  11.454  18.610  0.00  0.00    +0.000 C 
ATOM     13  C   UNL     1       8.513  12.192  17.728  0.00  0.00    +0.000 C 
BRANCH  12  14
ATOM     14  C   UNL     1       9.667  12.190  19.952  0.00  0.00    +0.000 C 
ATOM     15  O   UNL     1      10.308  11.776  20.910  0.00  0.00    +0.000 OA
BRANCH  14  16
ATOM     16  O   UNL     1       9.012  13.372  20.017  0.00  0.00    +0.000 OA
ATOM     17  H   UNL     1       8.038  13.311  19.996  0.00  0.00    +0.000 HD
ENDBRANCH  14  16
ENDBRANCH  12  14
ENDBRANCH  10  12
ENDBRANCH   9  10
ENDBRANCH   8   9
ENDBRANCH   7   8
ENDBRANCH   1   7
BRANCH   4  18
ATOM     18  C   UNL     1       3.331   3.631  17.201  0.00  0.00    +0.000 C 
BRANCH  18  19
ATOM     19  C   UNL     1       2.712   3.477  18.569  0.00  0.00    +0.000 A 
ATOM     20  C   UNL     1       1.393   3.892  18.795  0.00  0.00    +0.000 A 
ATOM     21  C   UNL     1       0.787   3.682  20.034  0.00  0.00    +0.000 A 
ATOM     22  C   UNL     1       1.496   3.069  21.064  0.00  0.00    +0.000 A 
ATOM     23  C   UNL     1       2.819   2.682  20.863  0.00  0.00    +0.000 A 
ATOM     24  C   UNL     1       3.428   2.890  19.623  0.00  0.00    +0.000 A 
ENDBRANCH  18  19
ENDBRANCH   4  18
TORSDOF 9
ENDMDL
MODEL 3
REMARK VINA RESULT:      -7.8      0.746      1.355
REMARK  Name = 
REMARK  11 active torsions:
REMARK  status: ('A' for Active; 'I' for Inactive)
REMARK    1  A    between atoms: C_1  and  C_2
REMARK    2  A    between atoms: C_2  and  C_3
REMARK    3  A    between atoms: C_2  and  C_4
REMARK    4  A    between atoms: C_2  and  C_21
REMARK    5  A    between atoms: C_4  and  C_5
REMARK    6  A    between atoms: C_5  and  C_6
REMARK    7  A    between atoms: C_6  and  O_7
REMARK    8  A    between atoms: O_7  and  C_8
REMARK    9  A    between atoms: C_11  and  C_12
REMARK   10  A    between atoms: C_12  and  C_13
REMARK   11  A    between atoms: C_21  and  O_23
REMARK                            x       y       z     vdW  Elec       q    Type
REMARK                         _______ _______ _______ _____ _____    ______ ____
ROOT
ATOM      1  C   UNL     1       6.697   6.778  17.339  0.00  0.00    +0.000 A 
ATOM      2  C   UNL     1       6.954   5.775  18.277  0.00  0.00    +0.000 A 
ATOM      3  C   UNL     1       6.077   4.706  18.429  0.00  0.00    +0.000 A 
ATOM      4  C   UNL     1       4.926   4.612  17.644  0.00  0.00    +0.000 A 
ATOM      5  C   UNL     1       4.654   5.631  16.719  0.00  0.00    +0.000 A 
ATOM      6  C   UNL     1       5.537   6.705  16.565  0.00  0.00    +0.000 A 
ENDROOT
BRANCH   1   7
ATOM      7  O   UNL     1       7.517   7.853  17.109  0.00  0.00    +0.000 OA
BRANCH   7   8
ATOM      8  C   UNL     1       8.250   8.293  18.255  0.00  0.00    +0.000 C 
BRANCH   8   9
ATOM      9  C   UNL     1       8.477   9.793  18.166  0.00  0.00    +0.000 C 
BRANCH   9  10
ATOM     10  C   UNL     1       9.304  10.283  19.361  0.00  0.00    +0.000 C 
BRANCH  10  12
ATOM     11  C   UNL     1      11.181  11.757  20.190  0.00  0.00    +0.000 C 
ATOM     12  C   UNL     1      10.090  11.602  19.121  0.00  0.00    +0.000 C 
ATOM     13  C   UNL     1      10.705  11.590  17.712  0.00  0.00    +0.000 C 
BRANCH  12  14
ATOM     14  C   UNL     1       9.108  12.780  19.233  0.00  0.00    +0.000 C 
ATOM     15  O   UNL     1       8.594  13.347  18.277  0.00  0.00    +0.000 OA
BRANCH  14  16
ATOM     16  O   UNL     1       8.831  13.167  20.499  0.00  0.00    +0.000 OA
ATOM     17  H   UNL     1       8.829  12.451  21.163  0.00  0.00    +0.000 HD
ENDBRANCH  14  16
ENDBRANCH  12  14
ENDBRANCH  10  12
ENDBRANCH   9  10
ENDBRANCH   8   9
ENDBRANCH   7   8
ENDBRANCH   1   7
BRANCH   4  18
ATOM     18  C   UNL     1       4.034   3.408  17.797  0.00  0.00    +0.000 C 
BRANCH  18  19
ATOM     19  C   UNL     1       3.146   3.421  19.018  0.00  0.00    +0.000 A 
ATOM     20  C   UNL     1       1.902   4.064  18.977  0.00  0.00    +0.000 A 
ATOM     21  C   UNL     1       1.042   4.013  20.075  0.00  0.00    +0.000 A 
ATOM     22  C   UNL     1       1.422   3.332  21.229  0.00  0.00    +0.000 A 
ATOM     23  C   UNL     1       2.670   2.717  21.295  0.00  0.00    +0.000 A 
ATOM     24  C   UNL     1       3.532   2.765  20.198  0.00  0.00    +0.000 A 
ENDBRANCH  18  19
ENDBRANCH   4  18
TORSDOF 9
ENDMDL
MODEL 4
REMARK VINA RESULT:      -7.7      1.679      2.265
REMARK  Name = 
REMARK  11 active torsions:
REMARK  status: ('A' for Active; 'I' for Inactive)
REMARK    1  A    between atoms: C_1  and  C_2
REMARK    2  A    between atoms: C_2  and  C_3
REMARK    3  A    between atoms: C_2  and  C_4
REMARK    4  A    between atoms: C_2  and  C_21
REMARK    5  A    between atoms: C_4  and  C_5
REMARK    6  A    between atoms: C_5  and  C_6
REMARK    7  A    between atoms: C_6  and  O_7
REMARK    8  A    between atoms: O_7  and  C_8
REMARK    9  A    between atoms: C_11  and  C_12
REMARK   10  A    between atoms: C_12  and  C_13
REMARK   11  A    between atoms: C_21  and  O_23
REMARK                            x       y       z     vdW  Elec       q    Type
REMARK                         _______ _______ _______ _____ _____    ______ ____
ROOT
ATOM      1  C   UNL     1       7.021   6.518  18.087  0.00  0.00    +0.000 A 
ATOM      2  C   UNL     1       6.260   6.654  16.923  0.00  0.00    +0.000 A 
ATOM      3  C   UNL     1       5.167   5.826  16.691  0.00  0.00    +0.000 A 
ATOM      4  C   UNL     1       4.805   4.847  17.619  0.00  0.00    +0.000 A 
ATOM      5  C   UNL     1       5.583   4.693  18.776  0.00  0.00    +0.000 A 
ATOM      6  C   UNL     1       6.681   5.527  19.011  0.00  0.00    +0.000 A 
ENDROOT
BRANCH   1   7
ATOM      7  O   UNL     1       8.099   7.304  18.405  0.00  0.00    +0.000 OA
BRANCH   7   8
ATOM      8  C   UNL     1       8.075   8.607  17.814  0.00  0.00    +0.000 C 
BRANCH   8   9
ATOM      9  C   UNL     1       8.912   9.558  18.651  0.00  0.00    +0.000 C 
BRANCH   9  10
ATOM     10  C   UNL     1       8.952  10.949  18.006  0.00  0.00    +0.000 C 
BRANCH  10  12
ATOM     11  C   UNL     1       9.172  13.215  19.103  0.00  0.00    +0.000 C 
ATOM     12  C   UNL     1       9.934  11.954  18.668  0.00  0.00    +0.000 C 
ATOM     13  C   UNL     1      10.622  11.290  19.873  0.00  0.00    +0.000 C 
BRANCH  12  14
ATOM     14  C   UNL     1      11.000  12.346  17.632  0.00  0.00    +0.000 C 
ATOM     15  O   UNL     1      10.885  13.267  16.834  0.00  0.00    +0.000 OA
BRANCH  14  16
ATOM     16  O   UNL     1      12.120  11.588  17.657  0.00  0.00    +0.000 OA
ATOM     17  H   UNL     1      12.037  10.707  17.244  0.00  0.00    +0.000 HD
ENDBRANCH  14  16
ENDBRANCH  12  14
ENDBRANCH  10  12
ENDBRANCH   9  10
ENDBRANCH   8   9
ENDBRANCH   7   8
ENDBRANCH   1   7
BRANCH   4  18
ATOM     18  C   UNL     1       3.579   4.011  17.359  0.00  0.00    +0.000 C 
BRANCH  18  19
ATOM     19  C   UNL     1       2.724   3.736  18.573  0.00  0.00    +0.000 A 
ATOM     20  C   UNL     1       2.086   4.791  19.237  0.00  0.00    +0.000 A 
ATOM     21  C   UNL     1       1.231   4.538  20.312  0.00  0.00    +0.000 A 
ATOM     22  C   UNL     1       1.017   3.230  20.741  0.00  0.00    +0.000 A 
ATOM     23  C   UNL     1       1.673   2.176  20.110  0.00  0.00    +0.000 A 
ATOM     24  C   UNL     1       2.527   2.426  19.035  0.00  0.00    +0.000 A 
ENDBRANCH  18  19
ENDBRANCH   4  18
TORSDOF 9
ENDMDL
MODEL 5
REMARK VINA RESULT:      -7.7      1.643      2.107
REMARK  Name = 
REMARK  11 active torsions:
REMARK  status: ('A' for Active; 'I' for Inactive)
REMARK    1  A    between atoms: C_1  and  C_2
REMARK    2  A    between atoms: C_2  and  C_3
REMARK    3  A    between atoms: C_2  and  C_4
REMARK    4  A    between atoms: C_2  and  C_21
REMARK    5  A    between atoms: C_4  and  C_5
REMARK    6  A    between atoms: C_5  and  C_6
REMARK    7  A    between atoms: C_6  and  O_7
REMARK    8  A    between atoms: O_7  and  C_8
REMARK    9  A    between atoms: C_11  and  C_12
REMARK   10  A    between atoms: C_12  and  C_13
REMARK   11  A    between atoms: C_21  and  O_23
REMARK                            x       y       z     vdW  Elec       q    Type
REMARK                         _______ _______ _______ _____ _____    ______ ____
ROOT
ATOM      1  C   UNL     1       7.487   6.654  18.114  0.00  0.00    +0.000 A 
ATOM      2  C   UNL     1       7.582   5.268  18.263  0.00  0.00    +0.000 A 
ATOM      3  C   UNL     1       6.624   4.429  17.703  0.00  0.00    +0.000 A 
ATOM      4  C   UNL     1       5.553   4.955  16.978  0.00  0.00    +0.000 A 
ATOM      5  C   UNL     1       5.444   6.347  16.848  0.00  0.00    +0.000 A 
ATOM      6  C   UNL     1       6.409   7.191  17.408  0.00  0.00    +0.000 A 
ENDROOT
BRANCH   1   7
ATOM      7  O   UNL     1       8.397   7.551  18.612  0.00  0.00    +0.000 OA
BRANCH   7   8
ATOM      8  C   UNL     1       8.296   8.866  18.058  0.00  0.00    +0.000 C 
BRANCH   8   9
ATOM      9  C   UNL     1       9.062   9.845  18.931  0.00  0.00    +0.000 C 
BRANCH   9  10
ATOM     10  C   UNL     1       9.480  11.076  18.120  0.00  0.00    +0.000 C 
BRANCH  10  12
ATOM     11  C   UNL     1      10.094  12.067  20.362  0.00  0.00    +0.000 C 
ATOM     12  C   UNL     1      10.422  12.065  18.861  0.00  0.00    +0.000 C 
ATOM     13  C   UNL     1      11.887  11.662  18.624  0.00  0.00    +0.000 C 
BRANCH  12  14
ATOM     14  C   UNL     1      10.188  13.475  18.296  0.00  0.00    +0.000 C 
ATOM     15  O   UNL     1      10.584  14.508  18.823  0.00  0.00    +0.000 OA
BRANCH  14  16
ATOM     16  O   UNL     1       9.497  13.512  17.134  0.00  0.00    +0.000 OA
ATOM     17  H   UNL     1       9.367  12.648  16.698  0.00  0.00    +0.000 HD
ENDBRANCH  14  16
ENDBRANCH  12  14
ENDBRANCH  10  12
ENDBRANCH   9  10
ENDBRANCH   8   9
ENDBRANCH   7   8
ENDBRANCH   1   7
BRANCH   4  18
ATOM     18  C   UNL     1       4.570   4.010  16.337  0.00  0.00    +0.000 C 
BRANCH  18  19
ATOM     19  C   UNL     1       3.458   3.535  17.239  0.00  0.00    +0.000 A 
ATOM     20  C   UNL     1       3.493   2.242  17.779  0.00  0.00    +0.000 A 
ATOM     21  C   UNL     1       2.510   1.822  18.677  0.00  0.00    +0.000 A 
ATOM     22  C   UNL     1       1.475   2.684  19.033  0.00  0.00    +0.000 A 
ATOM     23  C   UNL     1       1.410   3.960  18.477  0.00  0.00    +0.000 A 
ATOM     24  C   UNL     1       2.393   4.382  17.580  0.00  0.00    +0.000 A 
ENDBRANCH  18  19
ENDBRANCH   4  18
TORSDOF 9
ENDMDL
MODEL 6
REMARK VINA RESULT:      -7.7      0.670      1.575
REMARK  Name = 
REMARK  11 active torsions:
REMARK  status: ('A' for Active; 'I' for Inactive)
REMARK    1  A    between atoms: C_1  and  C_2
REMARK    2  A    between atoms: C_2  and  C_3
REMARK    3  A    between atoms: C_2  and  C_4
REMARK    4  A    between atoms: C_2  and  C_21
REMARK    5  A    between atoms: C_4  and  C_5
REMARK    6  A    between atoms: C_5  and  C_6
REMARK    7  A    between atoms: C_6  and  O_7
REMARK    8  A    between atoms: O_7  and  C_8
REMARK    9  A    between atoms: C_11  and  C_12
REMARK   10  A    between atoms: C_12  and  C_13
REMARK   11  A    between atoms: C_21  and  O_23
REMARK                            x       y       z     vdW  Elec       q    Type
REMARK                         _______ _______ _______ _____ _____    ______ ____
ROOT
ATOM      1  C   UNL     1       6.518   6.512  16.907  0.00  0.00    +0.000 A 
ATOM      2  C   UNL     1       5.218   6.853  17.290  0.00  0.00    +0.000 A 
ATOM      3  C   UNL     1       4.229   5.879  17.385  0.00  0.00    +0.000 A 
ATOM      4  C   UNL     1       4.517   4.542  17.106  0.00  0.00    +0.000 A 
ATOM      5  C   UNL     1       5.816   4.202  16.699  0.00  0.00    +0.000 A 
ATOM      6  C   UNL     1       6.811   5.180  16.605  0.00  0.00    +0.000 A 
ENDROOT
BRANCH   1   7
ATOM      7  O   UNL     1       7.556   7.402  16.810  0.00  0.00    +0.000 OA
BRANCH   7   8
ATOM      8  C   UNL     1       8.001   7.932  18.062  0.00  0.00    +0.000 C 
BRANCH   8   9
ATOM      9  C   UNL     1       8.191   9.434  17.937  0.00  0.00    +0.000 C 
BRANCH   9  10
ATOM     10  C   UNL     1       9.202   9.935  18.976  0.00  0.00    +0.000 C 
BRANCH  10  12
ATOM     11  C   UNL     1      11.119  11.484  18.417  0.00  0.00    +0.000 C 
ATOM     12  C   UNL     1       9.635  11.418  18.810  0.00  0.00    +0.000 C 
ATOM     13  C   UNL     1       8.759  12.099  17.746  0.00  0.00    +0.000 C 
BRANCH  12  14
ATOM     14  C   UNL     1       9.442  12.134  20.156  0.00  0.00    +0.000 C 
ATOM     15  O   UNL     1       9.940  11.768  21.214  0.00  0.00    +0.000 OA
BRANCH  14  16
ATOM     16  O   UNL     1       8.664  13.239  20.104  0.00  0.00    +0.000 OA
ATOM     17  H   UNL     1       7.988  13.307  20.805  0.00  0.00    +0.000 HD
ENDBRANCH  14  16
ENDBRANCH  12  14
ENDBRANCH  10  12
ENDBRANCH   9  10
ENDBRANCH   8   9
ENDBRANCH   7   8
ENDBRANCH   1   7
BRANCH   4  18
ATOM     18  C   UNL     1       3.434   3.509  17.280  0.00  0.00    +0.000 C 
BRANCH  18  19
ATOM     19  C   UNL     1       2.802   3.470  18.650  0.00  0.00    +0.000 A 
ATOM     20  C   UNL     1       1.477   3.889  18.825  0.00  0.00    +0.000 A 
ATOM     21  C   UNL     1       0.859   3.782  20.073  0.00  0.00    +0.000 A 
ATOM     22  C   UNL     1       1.564   3.270  21.160  0.00  0.00    +0.000 A 
ATOM     23  C   UNL     1       2.893   2.881  21.006  0.00  0.00    +0.000 A 
ATOM     24  C   UNL     1       3.512   2.986  19.759  0.00  0.00    +0.000 A 
ENDBRANCH  18  19
ENDBRANCH   4  18
TORSDOF 9
ENDMDL
MODEL 7
REMARK VINA RESULT:      -7.7      1.442      1.787
REMARK  Name = 
REMARK  11 active torsions:
REMARK  status: ('A' for Active; 'I' for Inactive)
REMARK    1  A    between atoms: C_1  and  C_2
REMARK    2  A    between atoms: C_2  and  C_3
REMARK    3  A    between atoms: C_2  and  C_4
REMARK    4  A    between atoms: C_2  and  C_21
REMARK    5  A    between atoms: C_4  and  C_5
REMARK    6  A    between atoms: C_5  and  C_6
REMARK    7  A    between atoms: C_6  and  O_7
REMARK    8  A    between atoms: O_7  and  C_8
REMARK    9  A    between atoms: C_11  and  C_12
REMARK   10  A    between atoms: C_12  and  C_13
REMARK   11  A    between atoms: C_21  and  O_23
REMARK                            x       y       z     vdW  Elec       q    Type
REMARK                         _______ _______ _______ _____ _____    ______ ____
ROOT
ATOM      1  C   UNL     1       6.898   6.384  17.100  0.00  0.00    +0.000 A 
ATOM      2  C   UNL     1       7.007   5.094  16.576  0.00  0.00    +0.000 A 
ATOM      3  C   UNL     1       5.925   4.220  16.613  0.00  0.00    +0.000 A 
ATOM      4  C   UNL     1       4.708   4.618  17.171  0.00  0.00    +0.000 A 
ATOM      5  C   UNL     1       4.605   5.905  17.719  0.00  0.00    +0.000 A 
ATOM      6  C   UNL     1       5.692   6.784  17.680  0.00  0.00    +0.000 A 
ENDROOT
BRANCH   1   7
ATOM      7  O   UNL     1       7.905   7.315  17.085  0.00  0.00    +0.000 OA
BRANCH   7   8
ATOM      8  C   UNL     1       7.522   8.608  17.560  0.00  0.00    +0.000 C 
BRANCH   8   9
ATOM      9  C   UNL     1       8.667   9.217  18.352  0.00  0.00    +0.000 C 
BRANCH   9  10
ATOM     10  C   UNL     1       8.834  10.700  18.002  0.00  0.00    +0.000 C 
BRANCH  10  12
ATOM     11  C   UNL     1       9.118  12.983  19.048  0.00  0.00    +0.000 C 
ATOM     12  C   UNL     1       9.632  11.536  19.041  0.00  0.00    +0.000 C 
ATOM     13  C   UNL     1       9.493  10.901  20.434  0.00  0.00    +0.000 C 
BRANCH  12  14
ATOM     14  C   UNL     1      11.114  11.533  18.631  0.00  0.00    +0.000 C 
ATOM     15  O   UNL     1      12.051  11.519  19.419  0.00  0.00    +0.000 OA
BRANCH  14  16
ATOM     16  O   UNL     1      11.332  11.543  17.296  0.00  0.00    +0.000 OA
ATOM     17  H   UNL     1      10.598  11.198  16.751  0.00  0.00    +0.000 HD
ENDBRANCH  14  16
ENDBRANCH  12  14
ENDBRANCH  10  12
ENDBRANCH   9  10
ENDBRANCH   8   9
ENDBRANCH   7   8
ENDBRANCH   1   7
BRANCH   4  18
ATOM     18  C   UNL     1       3.542   3.664  17.138  0.00  0.00    +0.000 C 
BRANCH  18  19
ATOM     19  C   UNL     1       2.835   3.473  18.457  0.00  0.00    +0.000 A 
ATOM     20  C   UNL     1       3.502   2.872  19.533  0.00  0.00    +0.000 A 
ATOM     21  C   UNL     1       2.883   2.763  20.779  0.00  0.00    +0.000 A 
ATOM     22  C   UNL     1       1.586   3.240  20.959  0.00  0.00    +0.000 A 
ATOM     23  C   UNL     1       0.900   3.809  19.889  0.00  0.00    +0.000 A 
ATOM     24  C   UNL     1       1.518   3.920  18.642  0.00  0.00    +0.000 A 
ENDBRANCH  18  19
ENDBRANCH   4  18
TORSDOF 9
ENDMDL
MODEL 8
REMARK VINA RESULT:      -7.7      1.134      1.809
REMARK  Name = 
REMARK  11 active torsions:
REMARK  status: ('A' for Active; 'I' for Inactive)
REMARK    1  A    between atoms: C_1  and  C_2
REMARK    2  A    between atoms: C_2  and  C_3
REMARK    3  A    between atoms: C_2  and  C_4
REMARK    4  A    between atoms: C_2  and  C_21
REMARK    5  A    between atoms: C_4  and  C_5
REMARK    6  A    between atoms: C_5  and  C_6
REMARK    7  A    between atoms: C_6  and  O_7
REMARK    8  A    between atoms: O_7  and  C_8
REMARK    9  A    between atoms: C_11  and  C_12
REMARK   10  A    between atoms: C_12  and  C_13
REMARK   11  A    between atoms: C_21  and  O_23
REMARK                            x       y       z     vdW  Elec       q    Type
REMARK                         _______ _______ _______ _____ _____    ______ ____
ROOT
ATOM      1  C   UNL     1       6.135   6.726  17.164  0.00  0.00    +0.000 A 
ATOM      2  C   UNL     1       5.225   6.202  16.243  0.00  0.00    +0.000 A 
ATOM      3  C   UNL     1       4.576   4.998  16.496  0.00  0.00    +0.000 A 
ATOM      4  C   UNL     1       4.816   4.293  17.677  0.00  0.00    +0.000 A 
ATOM      5  C   UNL     1       5.747   4.807  18.592  0.00  0.00    +0.000 A 
ATOM      6  C   UNL     1       6.399   6.019  18.339  0.00  0.00    +0.000 A 
ENDROOT
BRANCH   1   7
ATOM      7  O   UNL     1       6.802   7.914  17.006  0.00  0.00    +0.000 OA
BRANCH   7   8
ATOM      8  C   UNL     1       7.957   8.060  17.836  0.00  0.00    +0.000 C 
BRANCH   8   9
ATOM      9  C   UNL     1       8.424   9.505  17.807  0.00  0.00    +0.000 C 
BRANCH   9  10
ATOM     10  C   UNL     1       9.174   9.853  19.098  0.00  0.00    +0.000 C 
BRANCH  10  12
ATOM     11  C   UNL     1       8.896  12.182  18.156  0.00  0.00    +0.000 C 
ATOM     12  C   UNL     1       9.605  11.341  19.228  0.00  0.00    +0.000 C 
ATOM     13  C   UNL     1       9.270  11.857  20.637  0.00  0.00    +0.000 C 
BRANCH  12  14
ATOM     14  C   UNL     1      11.124  11.427  19.007  0.00  0.00    +0.000 C 
ATOM     15  O   UNL     1      11.959  11.377  19.902  0.00  0.00    +0.000 OA
BRANCH  14  16
ATOM     16  O   UNL     1      11.502  11.562  17.715  0.00  0.00    +0.000 OA
ATOM     17  H   UNL     1      11.561  12.482  17.392  0.00  0.00    +0.000 HD
ENDBRANCH  14  16
ENDBRANCH  12  14
ENDBRANCH  10  12
ENDBRANCH   9  10
ENDBRANCH   8   9
ENDBRANCH   7   8
ENDBRANCH   1   7
BRANCH   4  18
ATOM     18  C   UNL     1       4.047   3.025  17.941  0.00  0.00    +0.000 C 
BRANCH  18  19
ATOM     19  C   UNL     1       3.081   3.092  19.098  0.00  0.00    +0.000 A 
ATOM     20  C   UNL     1       3.426   2.532  20.335  0.00  0.00    +0.000 A 
ATOM     21  C   UNL     1       2.572   2.658  21.433  0.00  0.00    +0.000 A 
ATOM     22  C   UNL     1       1.360   3.332  21.301  0.00  0.00    +0.000 A 
ATOM     23  C   UNL     1       0.991   3.864  20.067  0.00  0.00    +0.000 A 
ATOM     24  C   UNL     1       1.843   3.740  18.969  0.00  0.00    +0.000 A 
ENDBRANCH  18  19
ENDBRANCH   4  18
TORSDOF 9
ENDMDL
MODEL 9
REMARK VINA RESULT:      -7.6      1.796      2.415
REMARK  Name = 
REMARK  11 active torsions:
REMARK  status: ('A' for Active; 'I' for Inactive)
REMARK    1  A    between atoms: C_1  and  C_2
REMARK    2  A    between atoms: C_2  and  C_3
REMARK    3  A    between atoms: C_2  and  C_4
REMARK    4  A    between atoms: C_2  and  C_21
REMARK    5  A    between atoms: C_4  and  C_5
REMARK    6  A    between atoms: C_5  and  C_6
REMARK    7  A    between atoms: C_6  and  O_7
REMARK    8  A    between atoms: O_7  and  C_8
REMARK    9  A    between atoms: C_11  and  C_12
REMARK   10  A    between atoms: C_12  and  C_13
REMARK   11  A    between atoms: C_21  and  O_23
REMARK                            x       y       z     vdW  Elec       q    Type
REMARK                         _______ _______ _______ _____ _____    ______ ____
ROOT
ATOM      1  C   UNL     1       7.595   6.755  18.227  0.00  0.00    +0.000 A 
ATOM      2  C   UNL     1       7.334   5.533  18.853  0.00  0.00    +0.000 A 
ATOM      3  C   UNL     1       6.432   4.632  18.299  0.00  0.00    +0.000 A 
ATOM      4  C   UNL     1       5.773   4.928  17.104  0.00  0.00    +0.000 A 
ATOM      5  C   UNL     1       6.015   6.164  16.487  0.00  0.00    +0.000 A 
ATOM      6  C   UNL     1       6.925   7.070  17.043  0.00  0.00    +0.000 A 
ENDROOT
BRANCH   1   7
ATOM      7  O   UNL     1       8.484   7.690  18.692  0.00  0.00    +0.000 OA
BRANCH   7   8
ATOM      8  C   UNL     1       8.319   8.994  18.128  0.00  0.00    +0.000 C 
BRANCH   8   9
ATOM      9  C   UNL     1       9.185   9.986  18.885  0.00  0.00    +0.000 C 
BRANCH   9  10
ATOM     10  C   UNL     1       9.038  11.392  18.289  0.00  0.00    +0.000 C 
BRANCH  10  12
ATOM     11  C   UNL     1      10.424  12.695  19.952  0.00  0.00    +0.000 C 
ATOM     12  C   UNL     1      10.273  12.317  18.471  0.00  0.00    +0.000 C 
ATOM     13  C   UNL     1      11.535  11.603  17.959  0.00  0.00    +0.000 C 
BRANCH  12  14
ATOM     14  C   UNL     1      10.048  13.595  17.647  0.00  0.00    +0.000 C 
ATOM     15  O   UNL     1       9.215  14.453  17.913  0.00  0.00    +0.000 OA
BRANCH  14  16
ATOM     16  O   UNL     1      10.858  13.726  16.572  0.00  0.00    +0.000 OA
ATOM     17  H   UNL     1      10.739  14.548  16.058  0.00  0.00    +0.000 HD
ENDBRANCH  14  16
ENDBRANCH  12  14
ENDBRANCH  10  12
ENDBRANCH   9  10
ENDBRANCH   8   9
ENDBRANCH   7   8
ENDBRANCH   1   7
BRANCH   4  18
ATOM     18  C   UNL     1       4.849   3.899  16.504  0.00  0.00    +0.000 C 
BRANCH  18  19
ATOM     19  C   UNL     1       3.664   3.528  17.362  0.00  0.00    +0.000 A 
ATOM     20  C   UNL     1       2.649   4.463  17.604  0.00  0.00    +0.000 A 
ATOM     21  C   UNL     1       1.512   4.104  18.330  0.00  0.00    +0.000 A 
ATOM     22  C   UNL     1       1.385   2.811  18.834  0.00  0.00    +0.000 A 
ATOM     23  C   UNL     1       2.402   1.882  18.628  0.00  0.00    +0.000 A 
ATOM     24  C   UNL     1       3.539   2.238  17.902  0.00  0.00    +0.000 A 
ENDBRANCH  18  19
ENDBRANCH   4  18
TORSDOF 9
ENDMDL
