MODEL 1
REMARK VINA RESULT:      -7.7      0.000      0.000
REMARK  Name = 
REMARK  3 active torsions:
REMARK  status: ('A' for Active; 'I' for Inactive)
REMARK    1  A    between atoms: C_7  and  N_8
REMARK    2  A    between atoms: N_11  and  C_12
REMARK    3  A    between atoms: C_12  and  C_13
REMARK                            x       y       z     vdW  Elec       q    Type
REMARK                         _______ _______ _______ _____ _____    ______ ____
ROOT
ATOM      1  N   UNL     1       1.737   7.341  20.033  0.00  0.00    +0.000 N 
ATOM      2  C   UNL     1       1.906   6.113  20.825  0.00  0.00    +0.000 C 
ATOM      3  C   UNL     1       1.853   4.858  19.913  0.00  0.00    +0.000 C 
ATOM      4  N   UNL     1       2.739   4.888  18.720  0.00  0.00    +0.000 NA
ATOM      5  C   UNL     1       2.459   6.150  17.991  0.00  0.00    +0.000 C 
ATOM      6  C   UNL     1       2.602   7.434  18.841  0.00  0.00    +0.000 C 
ENDROOT
BRANCH   1  13
ATOM      7 CL   UNL     1       0.658   9.666  18.055  0.00  0.00    +0.000 Cl
ATOM      8  C   UNL     1       0.689   9.606  19.791  0.00  0.00    +0.000 A 
ATOM      9  C   UNL     1       0.162  10.748  20.425  0.00  0.00    +0.000 A 
ATOM     10  C   UNL     1       0.042  10.803  21.809  0.00  0.00    +0.000 A 
ATOM     11  C   UNL     1       0.452   9.721  22.567  0.00  0.00    +0.000 A 
ATOM     12  C   UNL     1       0.993   8.594  21.939  0.00  0.00    +0.000 A 
ATOM     13  C   UNL     1       1.132   8.489  20.536  0.00  0.00    +0.000 A 
ENDBRANCH   1  13
BRANCH   4  14
ATOM     14  C   UNL     1       4.148   4.770  19.137  0.00  0.00    +0.000 C 
BRANCH  14  15
ATOM     15  C   UNL     1       5.147   4.935  18.012  0.00  0.00    +0.000 A 
ATOM     16  C   UNL     1       6.233   5.831  18.142  0.00  0.00    +0.000 A 
ATOM     17  C   UNL     1       7.129   6.038  17.089  0.00  0.00    +0.000 A 
ATOM     18  C   UNL     1       6.917   5.336  15.921  0.00  0.00    +0.000 A 
ATOM     19  C   UNL     1       5.874   4.450  15.790  0.00  0.00    +0.000 A 
ATOM     20  C   UNL     1       4.976   4.225  16.810  0.00  0.00    +0.000 A 
ATOM     21  O   UNL     1       5.843   3.861  14.564  0.00  0.00    +0.000 OA
ATOM     22  C   UNL     1       6.974   4.496  13.932  0.00  0.00    +0.000 C 
ATOM     23  O   UNL     1       7.668   5.423  14.791  0.00  0.00    +0.000 OA
ENDBRANCH  14  15
ENDBRANCH   4  14
TORSDOF 3
ENDMDL
MODEL 2
REMARK VINA RESULT:      -7.2      1.224      1.660
REMARK  Name = 
REMARK  3 active torsions:
REMARK  status: ('A' for Active; 'I' for Inactive)
REMARK    1  A    between atoms: C_7  and  N_8
REMARK    2  A    between atoms: N_11  and  C_12
REMARK    3  A    between atoms: C_12  and  C_13
REMARK                            x       y       z     vdW  Elec       q    Type
REMARK                         _______ _______ _______ _____ _____    ______ ____
ROOT
ATOM      1  N   UNL     1       1.698   8.155  19.540  0.00  0.00    +0.000 N 
ATOM      2  C   UNL     1       1.973   7.244  20.661  0.00  0.00    +0.000 C 
ATOM      3  C   UNL     1       1.966   5.767  20.185  0.00  0.00    +0.000 C 
ATOM      4  N   UNL     1       2.805   5.467  18.996  0.00  0.00    +0.000 NA
ATOM      5  C   UNL     1       2.420   6.425  17.929  0.00  0.00    +0.000 C 
ATOM      6  C   UNL     1       2.512   7.914  18.333  0.00  0.00    +0.000 C 
ENDROOT
BRANCH   1  13
ATOM      7 CL   UNL     1      -0.498   8.583  21.881  0.00  0.00    +0.000 Cl
ATOM      8  C   UNL     1       0.013   9.664  20.622  0.00  0.00    +0.000 A 
ATOM      9  C   UNL     1      -0.632  10.916  20.630  0.00  0.00    +0.000 A 
ATOM     10  C   UNL     1      -0.262  11.914  19.734  0.00  0.00    +0.000 A 
ATOM     11  C   UNL     1       0.750  11.665  18.824  0.00  0.00    +0.000 A 
ATOM     12  C   UNL     1       1.378  10.415  18.805  0.00  0.00    +0.000 A 
ATOM     13  C   UNL     1       1.040   9.371  19.695  0.00  0.00    +0.000 A 
ENDBRANCH   1  13
BRANCH   4  14
ATOM     14  C   UNL     1       4.233   5.553  19.353  0.00  0.00    +0.000 C 
BRANCH  14  15
ATOM     15  C   UNL     1       5.176   5.471  18.172  0.00  0.00    +0.000 A 
ATOM     16  C   UNL     1       6.358   6.248  18.141  0.00  0.00    +0.000 A 
ATOM     17  C   UNL     1       7.207   6.227  17.031  0.00  0.00    +0.000 A 
ATOM     18  C   UNL     1       6.853   5.420  15.969  0.00  0.00    +0.000 A 
ATOM     19  C   UNL     1       5.717   4.647  15.997  0.00  0.00    +0.000 A 
ATOM     20  C   UNL     1       4.861   4.647  17.076  0.00  0.00    +0.000 A 
ATOM     21  O   UNL     1       5.552   3.924  14.856  0.00  0.00    +0.000 OA
ATOM     22  C   UNL     1       6.705   4.349  14.100  0.00  0.00    +0.000 C 
ATOM     23  O   UNL     1       7.543   5.286  14.805  0.00  0.00    +0.000 OA
ENDBRANCH  14  15
ENDBRANCH   4  14
TORSDOF 3
ENDMDL
MODEL 3
REMARK VINA RESULT:      -6.9      3.840      5.176
REMARK  Name = 
REMARK  3 active torsions:
REMARK  status: ('A' for Active; 'I' for Inactive)
REMARK    1  A    between atoms: C_7  and  N_8
REMARK    2  A    between atoms: N_11  and  C_12
REMARK    3  A    between atoms: C_12  and  C_13
REMARK                            x       y       z     vdW  Elec       q    Type
REMARK                         _______ _______ _______ _____ _____    ______ ____
ROOT
ATOM      1  N   UNL     1       3.928   4.609  18.358  0.00  0.00    +0.000 N 
ATOM      2  C   UNL     1       3.902   6.022  17.951  0.00  0.00    +0.000 C 
ATOM      3  C   UNL     1       5.317   6.498  17.525  0.00  0.00    +0.000 C 
ATOM      4  N   UNL     1       6.018   5.638  16.537  0.00  0.00    +0.000 NA
ATOM      5  C   UNL     1       6.005   4.252  17.067  0.00  0.00    +0.000 C 
ATOM      6  C   UNL     1       4.601   3.703  17.407  0.00  0.00    +0.000 C 
ENDROOT
BRANCH   1  13
ATOM      7 CL   UNL     1       4.843   2.123  20.220  0.00  0.00    +0.000 Cl
ATOM      8  C   UNL     1       3.322   2.958  20.146  0.00  0.00    +0.000 A 
ATOM      9  C   UNL     1       2.345   2.473  21.036  0.00  0.00    +0.000 A 
ATOM     10  C   UNL     1       1.109   3.100  21.148  0.00  0.00    +0.000 A 
ATOM     11  C   UNL     1       0.841   4.212  20.370  0.00  0.00    +0.000 A 
ATOM     12  C   UNL     1       1.805   4.684  19.472  0.00  0.00    +0.000 A 
ATOM     13  C   UNL     1       3.076   4.083  19.324  0.00  0.00    +0.000 A 
ENDBRANCH   1  13
BRANCH   4  14
ATOM     14  C   UNL     1       5.366   5.753  15.219  0.00  0.00    +0.000 C 
BRANCH  14  15
ATOM     15  C   UNL     1       6.013   4.924  14.131  0.00  0.00    +0.000 A 
ATOM     16  C   UNL     1       7.294   5.261  13.636  0.00  0.00    +0.000 A 
ATOM     17  C   UNL     1       7.878   4.540  12.591  0.00  0.00    +0.000 A 
ATOM     18  C   UNL     1       7.161   3.487  12.061  0.00  0.00    +0.000 A 
ATOM     19  C   UNL     1       5.923   3.140  12.546  0.00  0.00    +0.000 A 
ATOM     20  C   UNL     1       5.322   3.831  13.575  0.00  0.00    +0.000 A 
ATOM     21  O   UNL     1       5.388   2.075  11.891  0.00  0.00    +0.000 OA
ATOM     22  C   UNL     1       6.423   1.807  10.923  0.00  0.00    +0.000 C 
ATOM     23  O   UNL     1       7.558   2.689  11.034  0.00  0.00    +0.000 OA
ENDBRANCH  14  15
ENDBRANCH   4  14
TORSDOF 3
ENDMDL
MODEL 4
REMARK VINA RESULT:      -6.9      4.153      7.960
REMARK  Name = 
REMARK  3 active torsions:
REMARK  status: ('A' for Active; 'I' for Inactive)
REMARK    1  A    between atoms: C_7  and  N_8
REMARK    2  A    between atoms: N_11  and  C_12
REMARK    3  A    between atoms: C_12  and  C_13
REMARK                            x       y       z     vdW  Elec       q    Type
REMARK                         _______ _______ _______ _____ _____    ______ ____
ROOT
ATOM      1  N   UNL     1       6.396   4.974  15.325  0.00  0.00    +0.000 N 
ATOM      2  C   UNL     1       7.510   4.952  16.285  0.00  0.00    +0.000 C 
ATOM      3  C   UNL     1       7.401   6.135  17.284  0.00  0.00    +0.000 C 
ATOM      4  N   UNL     1       6.083   6.298  17.951  0.00  0.00    +0.000 NA
ATOM      5  C   UNL     1       5.048   6.336  16.887  0.00  0.00    +0.000 C 
ATOM      6  C   UNL     1       5.058   5.121  15.932  0.00  0.00    +0.000 C 
ENDROOT
BRANCH   1  13
ATOM      7 CL   UNL     1       8.867   5.881  13.439  0.00  0.00    +0.000 Cl
ATOM      8  C   UNL     1       7.493   4.884  13.072  0.00  0.00    +0.000 A 
ATOM      9  C   UNL     1       7.458   4.401  11.750  0.00  0.00    +0.000 A 
ATOM     10  C   UNL     1       6.464   3.520  11.339  0.00  0.00    +0.000 A 
ATOM     11  C   UNL     1       5.497   3.121  12.244  0.00  0.00    +0.000 A 
ATOM     12  C   UNL     1       5.521   3.615  13.553  0.00  0.00    +0.000 A 
ATOM     13  C   UNL     1       6.512   4.509  14.019  0.00  0.00    +0.000 A 
ENDBRANCH   1  13
BRANCH   4  14
ATOM     14  C   UNL     1       5.870   5.205  18.917  0.00  0.00    +0.000 C 
BRANCH  14  15
ATOM     15  C   UNL     1       4.417   4.837  19.131  0.00  0.00    +0.000 A 
ATOM     16  C   UNL     1       3.517   5.768  19.700  0.00  0.00    +0.000 A 
ATOM     17  C   UNL     1       2.188   5.422  19.958  0.00  0.00    +0.000 A 
ATOM     18  C   UNL     1       1.785   4.143  19.634  0.00  0.00    +0.000 A 
ATOM     19  C   UNL     1       2.647   3.237  19.064  0.00  0.00    +0.000 A 
ATOM     20  C   UNL     1       3.962   3.549  18.798  0.00  0.00    +0.000 A 
ATOM     21  O   UNL     1       2.054   2.037  18.820  0.00  0.00    +0.000 OA
ATOM     22  C   UNL     1       0.725   2.287  19.324  0.00  0.00    +0.000 C 
ATOM     23  O   UNL     1       0.543   3.625  19.829  0.00  0.00    +0.000 OA
ENDBRANCH  14  15
ENDBRANCH   4  14
TORSDOF 3
ENDMDL
MODEL 5
REMARK VINA RESULT:      -6.9      1.253      1.804
REMARK  Name = 
REMARK  3 active torsions:
REMARK  status: ('A' for Active; 'I' for Inactive)
REMARK    1  A    between atoms: C_7  and  N_8
REMARK    2  A    between atoms: N_11  and  C_12
REMARK    3  A    between atoms: C_12  and  C_13
REMARK                            x       y       z     vdW  Elec       q    Type
REMARK                         _______ _______ _______ _____ _____    ______ ____
ROOT
ATOM      1  N   UNL     1       2.264   7.065  19.154  0.00  0.00    +0.000 N 
ATOM      2  C   UNL     1       2.394   6.246  20.368  0.00  0.00    +0.000 C 
ATOM      3  C   UNL     1       2.126   4.749  20.054  0.00  0.00    +0.000 C 
ATOM      4  N   UNL     1       2.882   4.184  18.906  0.00  0.00    +0.000 NA
ATOM      5  C   UNL     1       2.652   5.075  17.741  0.00  0.00    +0.000 C 
ATOM      6  C   UNL     1       3.006   6.560  17.983  0.00  0.00    +0.000 C 
ENDROOT
BRANCH   1  13
ATOM      7 CL   UNL     1       0.576   8.231  21.660  0.00  0.00    +0.000 Cl
ATOM      8  C   UNL     1       1.025   8.996  20.167  0.00  0.00    +0.000 A 
ATOM      9  C   UNL     1       0.583  10.327  20.036  0.00  0.00    +0.000 A 
ATOM     10  C   UNL     1       0.943  11.092  18.932  0.00  0.00    +0.000 A 
ATOM     11  C   UNL     1       1.741  10.532  17.951  0.00  0.00    +0.000 A 
ATOM     12  C   UNL     1       2.165   9.204  18.072  0.00  0.00    +0.000 A 
ATOM     13  C   UNL     1       1.829   8.387  19.176  0.00  0.00    +0.000 A 
ENDBRANCH   1  13
BRANCH   4  14
ATOM     14  C   UNL     1       4.309   4.059  19.257  0.00  0.00    +0.000 C 
BRANCH  14  15
ATOM     15  C   UNL     1       5.259   4.405  18.131  0.00  0.00    +0.000 A 
ATOM     16  C   UNL     1       6.302   5.338  18.333  0.00  0.00    +0.000 A 
ATOM     17  C   UNL     1       7.150   5.711  17.287  0.00  0.00    +0.000 A 
ATOM     18  C   UNL     1       6.936   5.135  16.052  0.00  0.00    +0.000 A 
ATOM     19  C   UNL     1       5.936   4.213  15.850  0.00  0.00    +0.000 A 
ATOM     20  C   UNL     1       5.085   3.826  16.861  0.00  0.00    +0.000 A 
ATOM     21  O   UNL     1       5.894   3.765  14.566  0.00  0.00    +0.000 OA
ATOM     22  C   UNL     1       6.969   4.528  13.980  0.00  0.00    +0.000 C 
ATOM     23  O   UNL     1       7.644   5.389  14.920  0.00  0.00    +0.000 OA
ENDBRANCH  14  15
ENDBRANCH   4  14
TORSDOF 3
ENDMDL
MODEL 6
REMARK VINA RESULT:      -6.8      4.533      8.159
REMARK  Name = 
REMARK  3 active torsions:
REMARK  status: ('A' for Active; 'I' for Inactive)
REMARK    1  A    between atoms: C_7  and  N_8
REMARK    2  A    between atoms: N_11  and  C_12
REMARK    3  A    between atoms: C_12  and  C_13
REMARK                            x       y       z     vdW  Elec       q    Type
REMARK                         _______ _______ _______ _____ _____    ______ ____
ROOT
ATOM      1  N   UNL     1       5.672   4.907  15.193  0.00  0.00    +0.000 N 
ATOM      2  C   UNL     1       5.086   4.074  16.253  0.00  0.00    +0.000 C 
ATOM      3  C   UNL     1       5.464   4.621  17.656  0.00  0.00    +0.000 C 
ATOM      4  N   UNL     1       5.215   6.070  17.873  0.00  0.00    +0.000 NA
ATOM      5  C   UNL     1       5.875   6.804  16.764  0.00  0.00    +0.000 C 
ATOM      6  C   UNL     1       5.446   6.357  15.348  0.00  0.00    +0.000 C 
ENDROOT
BRANCH   1  13
ATOM      7 CL   UNL     1       8.456   5.808  13.807  0.00  0.00    +0.000 Cl
ATOM      8  C   UNL     1       7.202   4.765  13.211  0.00  0.00    +0.000 A 
ATOM      9  C   UNL     1       7.443   4.234  11.929  0.00  0.00    +0.000 A 
ATOM     10  C   UNL     1       6.567   3.315  11.362  0.00  0.00    +0.000 A 
ATOM     11  C   UNL     1       5.444   2.924  12.070  0.00  0.00    +0.000 A 
ATOM     12  C   UNL     1       5.196   3.465  13.336  0.00  0.00    +0.000 A 
ATOM     13  C   UNL     1       6.057   4.399  13.956  0.00  0.00    +0.000 A 
ENDBRANCH   1  13
BRANCH   4  14
ATOM     14  C   UNL     1       3.765   6.325  17.946  0.00  0.00    +0.000 C 
BRANCH  14  15
ATOM     15  C   UNL     1       2.974   5.231  18.630  0.00  0.00    +0.000 A 
ATOM     16  C   UNL     1       2.019   4.478  17.908  0.00  0.00    +0.000 A 
ATOM     17  C   UNL     1       1.239   3.505  18.540  0.00  0.00    +0.000 A 
ATOM     18  C   UNL     1       1.437   3.304  19.890  0.00  0.00    +0.000 A 
ATOM     19  C   UNL     1       2.375   4.018  20.597  0.00  0.00    +0.000 A 
ATOM     20  C   UNL     1       3.158   4.982  20.002  0.00  0.00    +0.000 A 
ATOM     21  O   UNL     1       2.414   3.667  21.911  0.00  0.00    +0.000 OA
ATOM     22  C   UNL     1       1.376   2.666  21.953  0.00  0.00    +0.000 C 
ATOM     23  O   UNL     1       0.762   2.420  20.672  0.00  0.00    +0.000 OA
ENDBRANCH  14  15
ENDBRANCH   4  14
TORSDOF 3
ENDMDL
MODEL 7
REMARK VINA RESULT:      -6.7      3.784      4.926
REMARK  Name = 
REMARK  3 active torsions:
REMARK  status: ('A' for Active; 'I' for Inactive)
REMARK    1  A    between atoms: C_7  and  N_8
REMARK    2  A    between atoms: N_11  and  C_12
REMARK    3  A    between atoms: C_12  and  C_13
REMARK                            x       y       z     vdW  Elec       q    Type
REMARK                         _______ _______ _______ _____ _____    ______ ____
ROOT
ATOM      1  N   UNL     1       3.933   4.489  18.409  0.00  0.00    +0.000 N 
ATOM      2  C   UNL     1       3.986   5.939  18.168  0.00  0.00    +0.000 C 
ATOM      3  C   UNL     1       5.438   6.392  17.855  0.00  0.00    +0.000 C 
ATOM      4  N   UNL     1       6.144   5.617  16.801  0.00  0.00    +0.000 NA
ATOM      5  C   UNL     1       6.048   4.182  17.167  0.00  0.00    +0.000 C 
ATOM      6  C   UNL     1       4.607   3.666  17.386  0.00  0.00    +0.000 C 
ENDROOT
BRANCH   1  13
ATOM      7 CL   UNL     1       0.844   4.060  17.538  0.00  0.00    +0.000 Cl
ATOM      8  C   UNL     1       1.632   3.722  19.048  0.00  0.00    +0.000 A 
ATOM      9  C   UNL     1       0.792   3.179  20.038  0.00  0.00    +0.000 A 
ATOM     10  C   UNL     1       1.304   2.778  21.267  0.00  0.00    +0.000 A 
ATOM     11  C   UNL     1       2.657   2.922  21.516  0.00  0.00    +0.000 A 
ATOM     12  C   UNL     1       3.490   3.479  20.539  0.00  0.00    +0.000 A 
ATOM     13  C   UNL     1       3.018   3.898  19.274  0.00  0.00    +0.000 A 
ENDBRANCH   1  13
BRANCH   4  14
ATOM     14  C   UNL     1       5.556   5.912  15.482  0.00  0.00    +0.000 C 
BRANCH  14  15
ATOM     15  C   UNL     1       6.118   5.078  14.350  0.00  0.00    +0.000 A 
ATOM     16  C   UNL     1       7.399   5.356  13.820  0.00  0.00    +0.000 A 
ATOM     17  C   UNL     1       7.905   4.633  12.736  0.00  0.00    +0.000 A 
ATOM     18  C   UNL     1       7.112   3.637  12.206  0.00  0.00    +0.000 A 
ATOM     19  C   UNL     1       5.873   3.346  12.725  0.00  0.00    +0.000 A 
ATOM     20  C   UNL     1       5.348   4.042  13.792  0.00  0.00    +0.000 A 
ATOM     21  O   UNL     1       5.256   2.331  12.062  0.00  0.00    +0.000 OA
ATOM     22  C   UNL     1       6.241   2.032  11.051  0.00  0.00    +0.000 C 
ATOM     23  O   UNL     1       7.427   2.847  11.145  0.00  0.00    +0.000 OA
ENDBRANCH  14  15
ENDBRANCH   4  14
TORSDOF 3
ENDMDL
MODEL 8
REMARK VINA RESULT:      -6.7      5.418      9.728
REMARK  Name = 
REMARK  3 active torsions:
REMARK  status: ('A' for Active; 'I' for Inactive)
REMARK    1  A    between atoms: C_7  and  N_8
REMARK    2  A    between atoms: N_11  and  C_12
REMARK    3  A    between atoms: C_12  and  C_13
REMARK                            x       y       z     vdW  Elec       q    Type
REMARK                         _______ _______ _______ _____ _____    ______ ____
ROOT
ATOM      1  N   UNL     1       1.683   8.211  19.450  0.00  0.00    +0.000 N 
ATOM      2  C   UNL     1       1.278   9.454  18.778  0.00  0.00    +0.000 C 
ATOM      3  C   UNL     1      -0.162   9.860  19.192  0.00  0.00    +0.000 C 
ATOM      4  N   UNL     1      -0.428   9.895  20.654  0.00  0.00    +0.000 NA
ATOM      5  C   UNL     1      -0.008   8.586  21.213  0.00  0.00    +0.000 C 
ATOM      6  C   UNL     1       1.455   8.192  20.908  0.00  0.00    +0.000 C 
ENDROOT
BRANCH   1  13
ATOM      7 CL   UNL     1       1.871   5.173  20.556  0.00  0.00    +0.000 Cl
ATOM      8  C   UNL     1       2.788   5.964  19.312  0.00  0.00    +0.000 A 
ATOM      9  C   UNL     1       3.759   5.151  18.695  0.00  0.00    +0.000 A 
ATOM     10  C   UNL     1       4.508   5.624  17.623  0.00  0.00    +0.000 A 
ATOM     11  C   UNL     1       4.295   6.911  17.164  0.00  0.00    +0.000 A 
ATOM     12  C   UNL     1       3.343   7.725  17.788  0.00  0.00    +0.000 A 
ATOM     13  C   UNL     1       2.555   7.290  18.878  0.00  0.00    +0.000 A 
ENDBRANCH   1  13
BRANCH   4  14
ATOM     14  C   UNL     1       0.282  11.033  21.267  0.00  0.00    +0.000 C 
BRANCH  14  15
ATOM     15  C   UNL     1      -0.612  11.987  22.029  0.00  0.00    +0.000 A 
ATOM     16  C   UNL     1      -0.256  13.349  22.169  0.00  0.00    +0.000 A 
ATOM     17  C   UNL     1      -1.042  14.228  22.920  0.00  0.00    +0.000 A 
ATOM     18  C   UNL     1      -2.178  13.721  23.515  0.00  0.00    +0.000 A 
ATOM     19  C   UNL     1      -2.543  12.404  23.370  0.00  0.00    +0.000 A 
ATOM     20  C   UNL     1      -1.789  11.514  22.637  0.00  0.00    +0.000 A 
ATOM     21  O   UNL     1      -3.694  12.107  24.033  0.00  0.00    +0.000 OA
ATOM     22  C   UNL     1      -3.998  13.386  24.629  0.00  0.00    +0.000 C 
ATOM     23  O   UNL     1      -3.048  14.418  24.293  0.00  0.00    +0.000 OA
ENDBRANCH  14  15
ENDBRANCH   4  14
TORSDOF 3
ENDMDL
MODEL 9
REMARK VINA RESULT:      -6.6      4.159      8.376
REMARK  Name = 
REMARK  3 active torsions:
REMARK  status: ('A' for Active; 'I' for Inactive)
REMARK    1  A    between atoms: C_7  and  N_8
REMARK    2  A    between atoms: N_11  and  C_12
REMARK    3  A    between atoms: C_12  and  C_13
REMARK                            x       y       z     vdW  Elec       q    Type
REMARK                         _______ _______ _______ _____ _____    ______ ____
ROOT
ATOM      1  N   UNL     1       4.111   5.966  17.873  0.00  0.00    +0.000 N 
ATOM      2  C   UNL     1       3.387   7.214  17.587  0.00  0.00    +0.000 C 
ATOM      3  C   UNL     1       1.924   7.131  18.099  0.00  0.00    +0.000 C 
ATOM      4  N   UNL     1       1.756   6.691  19.508  0.00  0.00    +0.000 NA
ATOM      5  C   UNL     1       2.501   5.417  19.667  0.00  0.00    +0.000 C 
ATOM      6  C   UNL     1       3.992   5.486  19.264  0.00  0.00    +0.000 C 
ENDROOT
BRANCH   1  13
ATOM      7 CL   UNL     1       6.940   7.522  17.624  0.00  0.00    +0.000 Cl
ATOM      8  C   UNL     1       6.377   6.097  16.807  0.00  0.00    +0.000 A 
ATOM      9  C   UNL     1       7.299   5.541  15.900  0.00  0.00    +0.000 A 
ATOM     10  C   UNL     1       7.019   4.350  15.239  0.00  0.00    +0.000 A 
ATOM     11  C   UNL     1       5.815   3.711  15.476  0.00  0.00    +0.000 A 
ATOM     12  C   UNL     1       4.891   4.273  16.364  0.00  0.00    +0.000 A 
ATOM     13  C   UNL     1       5.131   5.479  17.062  0.00  0.00    +0.000 A 
ENDBRANCH   1  13
BRANCH   4  14
ATOM     14  C   UNL     1       2.226   7.747  20.424  0.00  0.00    +0.000 C 
BRANCH  14  15
ATOM     15  C   UNL     1       1.196   8.815  20.723  0.00  0.00    +0.000 A 
ATOM     16  C   UNL     1       0.718   9.659  19.694  0.00  0.00    +0.000 A 
ATOM     17  C   UNL     1      -0.188  10.688  19.968  0.00  0.00    +0.000 A 
ATOM     18  C   UNL     1      -0.601  10.848  21.274  0.00  0.00    +0.000 A 
ATOM     19  C   UNL     1      -0.156  10.022  22.278  0.00  0.00    +0.000 A 
ATOM     20  C   UNL     1       0.737   9.000  22.040  0.00  0.00    +0.000 A 
ATOM     21  O   UNL     1      -0.683  10.345  23.490  0.00  0.00    +0.000 OA
ATOM     22  C   UNL     1      -1.494  11.484  23.134  0.00  0.00    +0.000 C 
ATOM     23  O   UNL     1      -1.458  11.800  21.728  0.00  0.00    +0.000 OA
ENDBRANCH  14  15
ENDBRANCH   4  14
TORSDOF 3
ENDMDL
