MODEL 1
REMARK VINA RESULT:      -7.8      0.000      0.000
REMARK  Name = 
REMARK  7 active torsions:
REMARK  status: ('A' for Active; 'I' for Inactive)
REMARK    1  A    between atoms: C_2  and  C_3
REMARK    2  A    between atoms: C_2  and  C_12
REMARK    3  A    between atoms: C_4  and  C_5
REMARK    4  A    between atoms: C_9  and  O_10
REMARK    5  A    between atoms: C_13  and  C_14
REMARK    6  A    between atoms: C_18  and  O_19
REMARK    7  A    between atoms: C_20  and  O_21
REMARK                            x       y       z     vdW  Elec       q    Type
REMARK                         _______ _______ _______ _____ _____    ______ ____
ROOT
ATOM      1  O   UNL     1       7.621   5.209  19.127  0.00  0.00    +0.000 OA
ATOM      2  C   UNL     1       6.795   4.898  18.277  0.00  0.00    +0.000 C 
ENDROOT
BRANCH   2   3
ATOM      3  C   UNL     1       7.159   4.696  16.849  0.00  0.00    +0.000 C 
ATOM      4  C   UNL     1       6.234   4.829  15.888  0.00  0.00    +0.000 C 
BRANCH   4   5
ATOM      5  C   UNL     1       6.576   4.602  14.484  0.00  0.00    +0.000 A 
ATOM      6  C   UNL     1       7.511   5.423  13.845  0.00  0.00    +0.000 A 
ATOM      7  C   UNL     1       7.834   5.210  12.502  0.00  0.00    +0.000 A 
ATOM      8  C   UNL     1       7.229   4.173  11.792  0.00  0.00    +0.000 A 
ATOM      9  C   UNL     1       6.313   3.348  12.437  0.00  0.00    +0.000 A 
ATOM     10  C   UNL     1       5.986   3.550  13.775  0.00  0.00    +0.000 A 
BRANCH   9  11
ATOM     11  O   UNL     1       5.704   2.318  11.782  0.00  0.00    +0.000 OA
ATOM     12  H   UNL     1       6.390   1.738  11.412  0.00  0.00    +0.000 HD
ENDBRANCH   9  11
ENDBRANCH   4   5
ENDBRANCH   2   3
BRANCH   2  13
ATOM     13  C   UNL     1       5.361   4.776  18.663  0.00  0.00    +0.000 C 
ATOM     14  C   UNL     1       4.767   3.670  19.136  0.00  0.00    +0.000 C 
BRANCH  14  15
ATOM     15  C   UNL     1       3.343   3.565  19.510  0.00  0.00    +0.000 A 
ATOM     16  C   UNL     1       2.777   4.352  20.526  0.00  0.00    +0.000 A 
ATOM     17  C   UNL     1       1.410   4.273  20.824  0.00  0.00    +0.000 A 
ATOM     18  C   UNL     1       0.579   3.412  20.107  0.00  0.00    +0.000 A 
ATOM     19  C   UNL     1       1.127   2.637  19.095  0.00  0.00    +0.000 A 
ATOM     20  C   UNL     1       2.490   2.715  18.794  0.00  0.00    +0.000 A 
BRANCH  19  21
ATOM     21  O   UNL     1       0.364   1.777  18.351  0.00  0.00    +0.000 OA
ATOM     22  H   UNL     1      -0.479   2.219  18.149  0.00  0.00    +0.000 HD
ENDBRANCH  19  21
BRANCH  20  23
ATOM     23  O   UNL     1       2.973   1.932  17.774  0.00  0.00    +0.000 OA
ATOM     24  H   UNL     1       2.262   1.280  17.609  0.00  0.00    +0.000 HD
ENDBRANCH  20  23
ENDBRANCH  14  15
ENDBRANCH   2  13
TORSDOF 7
ENDMDL
MODEL 2
REMARK VINA RESULT:      -7.7      3.307      7.785
REMARK  Name = 
REMARK  7 active torsions:
REMARK  status: ('A' for Active; 'I' for Inactive)
REMARK    1  A    between atoms: C_2  and  C_3
REMARK    2  A    between atoms: C_2  and  C_12
REMARK    3  A    between atoms: C_4  and  C_5
REMARK    4  A    between atoms: C_9  and  O_10
REMARK    5  A    between atoms: C_13  and  C_14
REMARK    6  A    between atoms: C_18  and  O_19
REMARK    7  A    between atoms: C_20  and  O_21
REMARK                            x       y       z     vdW  Elec       q    Type
REMARK                         _______ _______ _______ _____ _____    ______ ____
ROOT
ATOM      1  O   UNL     1       3.869   2.676  18.610  0.00  0.00    +0.000 OA
ATOM      2  C   UNL     1       3.898   3.623  17.834  0.00  0.00    +0.000 C 
ENDROOT
BRANCH   2   3
ATOM      3  C   UNL     1       3.081   4.848  18.039  0.00  0.00    +0.000 C 
ATOM      4  C   UNL     1       3.502   5.815  18.867  0.00  0.00    +0.000 C 
BRANCH   4   5
ATOM      5  C   UNL     1       2.689   7.009  19.099  0.00  0.00    +0.000 A 
ATOM      6  C   UNL     1       2.019   7.177  20.315  0.00  0.00    +0.000 A 
ATOM      7  C   UNL     1       1.237   8.315  20.535  0.00  0.00    +0.000 A 
ATOM      8  C   UNL     1       1.126   9.291  19.545  0.00  0.00    +0.000 A 
ATOM      9  C   UNL     1       1.809   9.126  18.345  0.00  0.00    +0.000 A 
ATOM     10  C   UNL     1       2.592   7.999  18.115  0.00  0.00    +0.000 A 
BRANCH   9  11
ATOM     11  O   UNL     1       1.733  10.060  17.353  0.00  0.00    +0.000 OA
ATOM     12  H   UNL     1       2.593  10.105  16.904  0.00  0.00    +0.000 HD
ENDBRANCH   9  11
ENDBRANCH   4   5
ENDBRANCH   2   3
BRANCH   2  13
ATOM     13  C   UNL     1       4.732   3.531  16.601  0.00  0.00    +0.000 C 
ATOM     14  C   UNL     1       4.996   4.538  15.755  0.00  0.00    +0.000 C 
BRANCH  14  15
ATOM     15  C   UNL     1       5.821   4.429  14.537  0.00  0.00    +0.000 A 
ATOM     16  C   UNL     1       5.417   3.673  13.425  0.00  0.00    +0.000 A 
ATOM     17  C   UNL     1       6.192   3.631  12.259  0.00  0.00    +0.000 A 
ATOM     18  C   UNL     1       7.384   4.352  12.176  0.00  0.00    +0.000 A 
ATOM     19  C   UNL     1       7.787   5.111  13.266  0.00  0.00    +0.000 A 
ATOM     20  C   UNL     1       7.015   5.155  14.429  0.00  0.00    +0.000 A 
BRANCH  19  21
ATOM     21  O   UNL     1       8.942   5.845  13.245  0.00  0.00    +0.000 OA
ATOM     22  H   UNL     1       8.996   6.347  14.077  0.00  0.00    +0.000 HD
ENDBRANCH  19  21
BRANCH  20  23
ATOM     23  O   UNL     1       7.459   5.933  15.471  0.00  0.00    +0.000 OA
ATOM     24  H   UNL     1       6.965   5.604  16.249  0.00  0.00    +0.000 HD
ENDBRANCH  20  23
ENDBRANCH  14  15
ENDBRANCH   2  13
TORSDOF 7
ENDMDL
MODEL 3
REMARK VINA RESULT:      -7.5      1.383      1.470
REMARK  Name = 
REMARK  7 active torsions:
REMARK  status: ('A' for Active; 'I' for Inactive)
REMARK    1  A    between atoms: C_2  and  C_3
REMARK    2  A    between atoms: C_2  and  C_12
REMARK    3  A    between atoms: C_4  and  C_5
REMARK    4  A    between atoms: C_9  and  O_10
REMARK    5  A    between atoms: C_13  and  C_14
REMARK    6  A    between atoms: C_18  and  O_19
REMARK    7  A    between atoms: C_20  and  O_21
REMARK                            x       y       z     vdW  Elec       q    Type
REMARK                         _______ _______ _______ _____ _____    ______ ____
ROOT
ATOM      1  O   UNL     1       7.960   5.003  19.077  0.00  0.00    +0.000 OA
ATOM      2  C   UNL     1       7.058   4.876  18.258  0.00  0.00    +0.000 C 
ENDROOT
BRANCH   2   3
ATOM      3  C   UNL     1       7.313   4.805  16.795  0.00  0.00    +0.000 C 
ATOM      4  C   UNL     1       6.316   4.524  15.945  0.00  0.00    +0.000 C 
BRANCH   4   5
ATOM      5  C   UNL     1       6.566   4.422  14.507  0.00  0.00    +0.000 A 
ATOM      6  C   UNL     1       7.574   5.186  13.911  0.00  0.00    +0.000 A 
ATOM      7  C   UNL     1       7.809   5.094  12.536  0.00  0.00    +0.000 A 
ATOM      8  C   UNL     1       7.042   4.233  11.751  0.00  0.00    +0.000 A 
ATOM      9  C   UNL     1       6.052   3.461  12.352  0.00  0.00    +0.000 A 
ATOM     10  C   UNL     1       5.811   3.544  13.720  0.00  0.00    +0.000 A 
BRANCH   9  11
ATOM     11  O   UNL     1       5.285   2.602  11.622  0.00  0.00    +0.000 OA
ATOM     12  H   UNL     1       5.304   2.883  10.692  0.00  0.00    +0.000 HD
ENDBRANCH   9  11
ENDBRANCH   4   5
ENDBRANCH   2   3
BRANCH   2  13
ATOM     13  C   UNL     1       5.643   4.854  18.729  0.00  0.00    +0.000 C 
ATOM     14  C   UNL     1       4.960   3.764  19.111  0.00  0.00    +0.000 C 
BRANCH  14  15
ATOM     15  C   UNL     1       3.558   3.759  19.570  0.00  0.00    +0.000 A 
ATOM     16  C   UNL     1       2.548   4.466  18.899  0.00  0.00    +0.000 A 
ATOM     17  C   UNL     1       1.214   4.400  19.323  0.00  0.00    +0.000 A 
ATOM     18  C   UNL     1       0.861   3.618  20.423  0.00  0.00    +0.000 A 
ATOM     19  C   UNL     1       1.851   2.907  21.088  0.00  0.00    +0.000 A 
ATOM     20  C   UNL     1       3.181   2.971  20.665  0.00  0.00    +0.000 A 
BRANCH  19  21
ATOM     21  O   UNL     1       1.567   2.118  22.170  0.00  0.00    +0.000 OA
ATOM     22  H   UNL     1       1.030   2.639  22.792  0.00  0.00    +0.000 HD
ENDBRANCH  19  21
BRANCH  20  23
ATOM     23  O   UNL     1       4.114   2.237  21.356  0.00  0.00    +0.000 OA
ATOM     24  H   UNL     1       3.702   2.076  22.229  0.00  0.00    +0.000 HD
ENDBRANCH  20  23
ENDBRANCH  14  15
ENDBRANCH   2  13
TORSDOF 7
ENDMDL
MODEL 4
REMARK VINA RESULT:      -7.5      4.728      6.482
REMARK  Name = 
REMARK  7 active torsions:
REMARK  status: ('A' for Active; 'I' for Inactive)
REMARK    1  A    between atoms: C_2  and  C_3
REMARK    2  A    between atoms: C_2  and  C_12
REMARK    3  A    between atoms: C_4  and  C_5
REMARK    4  A    between atoms: C_9  and  O_10
REMARK    5  A    between atoms: C_13  and  C_14
REMARK    6  A    between atoms: C_18  and  O_19
REMARK    7  A    between atoms: C_20  and  O_21
REMARK                            x       y       z     vdW  Elec       q    Type
REMARK                         _______ _______ _______ _____ _____    ______ ____
ROOT
ATOM      1  O   UNL     1       7.649   6.789  16.387  0.00  0.00    +0.000 OA
ATOM      2  C   UNL     1       7.432   7.050  17.565  0.00  0.00    +0.000 C 
ENDROOT
BRANCH   2   3
ATOM      3  C   UNL     1       8.152   8.131  18.289  0.00  0.00    +0.000 C 
ATOM      4  C   UNL     1       8.157   9.382  17.809  0.00  0.00    +0.000 C 
BRANCH   4   5
ATOM      5  C   UNL     1       8.889  10.445  18.498  0.00  0.00    +0.000 A 
ATOM      6  C   UNL     1       9.384  10.236  19.789  0.00  0.00    +0.000 A 
ATOM      7  C   UNL     1      10.079  11.253  20.450  0.00  0.00    +0.000 A 
ATOM      8  C   UNL     1      10.287  12.481  19.823  0.00  0.00    +0.000 A 
ATOM      9  C   UNL     1       9.807  12.678  18.532  0.00  0.00    +0.000 A 
ATOM     10  C   UNL     1       9.116  11.672  17.863  0.00  0.00    +0.000 A 
BRANCH   9  11
ATOM     11  O   UNL     1       9.995  13.861  17.880  0.00  0.00    +0.000 OA
ATOM     12  H   UNL     1       9.127  14.224  17.639  0.00  0.00    +0.000 HD
ENDBRANCH   9  11
ENDBRANCH   4   5
ENDBRANCH   2   3
BRANCH   2  13
ATOM     13  C   UNL     1       6.457   6.219  18.328  0.00  0.00    +0.000 C 
ATOM     14  C   UNL     1       5.300   5.733  17.854  0.00  0.00    +0.000 C 
BRANCH  14  15
ATOM     15  C   UNL     1       4.344   4.915  18.624  0.00  0.00    +0.000 A 
ATOM     16  C   UNL     1       3.587   5.445  19.681  0.00  0.00    +0.000 A 
ATOM     17  C   UNL     1       2.645   4.661  20.360  0.00  0.00    +0.000 A 
ATOM     18  C   UNL     1       2.434   3.332  19.991  0.00  0.00    +0.000 A 
ATOM     19  C   UNL     1       3.170   2.802  18.941  0.00  0.00    +0.000 A 
ATOM     20  C   UNL     1       4.108   3.582  18.261  0.00  0.00    +0.000 A 
BRANCH  19  21
ATOM     21  O   UNL     1       3.005   1.507  18.527  0.00  0.00    +0.000 OA
ATOM     22  H   UNL     1       2.807   0.963  19.309  0.00  0.00    +0.000 HD
ENDBRANCH  19  21
BRANCH  20  23
ATOM     23  O   UNL     1       4.799   3.005  17.223  0.00  0.00    +0.000 OA
ATOM     24  H   UNL     1       5.641   3.502  17.184  0.00  0.00    +0.000 HD
ENDBRANCH  20  23
ENDBRANCH  14  15
ENDBRANCH   2  13
TORSDOF 7
ENDMDL
MODEL 5
REMARK VINA RESULT:      -7.5      4.879      6.680
REMARK  Name = 
REMARK  7 active torsions:
REMARK  status: ('A' for Active; 'I' for Inactive)
REMARK    1  A    between atoms: C_2  and  C_3
REMARK    2  A    between atoms: C_2  and  C_12
REMARK    3  A    between atoms: C_4  and  C_5
REMARK    4  A    between atoms: C_9  and  O_10
REMARK    5  A    between atoms: C_13  and  C_14
REMARK    6  A    between atoms: C_18  and  O_19
REMARK    7  A    between atoms: C_20  and  O_21
REMARK                            x       y       z     vdW  Elec       q    Type
REMARK                         _______ _______ _______ _____ _____    ______ ____
ROOT
ATOM      1  O   UNL     1       7.833   6.866  16.393  0.00  0.00    +0.000 OA
ATOM      2  C   UNL     1       7.473   7.213  17.512  0.00  0.00    +0.000 C 
ENDROOT
BRANCH   2   3
ATOM      3  C   UNL     1       8.205   8.239  18.302  0.00  0.00    +0.000 C 
ATOM      4  C   UNL     1       8.414   9.463  17.797  0.00  0.00    +0.000 C 
BRANCH   4   5
ATOM      5  C   UNL     1       9.161  10.467  18.555  0.00  0.00    +0.000 A 
ATOM      6  C   UNL     1       9.229  10.389  19.950  0.00  0.00    +0.000 A 
ATOM      7  C   UNL     1       9.937  11.352  20.676  0.00  0.00    +0.000 A 
ATOM      8  C   UNL     1      10.583  12.394  20.011  0.00  0.00    +0.000 A 
ATOM      9  C   UNL     1      10.526  12.457  18.622  0.00  0.00    +0.000 A 
ATOM     10  C   UNL     1       9.827  11.503  17.890  0.00  0.00    +0.000 A 
BRANCH   9  11
ATOM     11  O   UNL     1      11.151  13.455  17.933  0.00  0.00    +0.000 OA
ATOM     12  H   UNL     1      10.638  13.645  17.131  0.00  0.00    +0.000 HD
ENDBRANCH   9  11
ENDBRANCH   4   5
ENDBRANCH   2   3
BRANCH   2  13
ATOM     13  C   UNL     1       6.297   6.546  18.141  0.00  0.00    +0.000 C 
ATOM     14  C   UNL     1       5.410   5.762  17.509  0.00  0.00    +0.000 C 
BRANCH  14  15
ATOM     15  C   UNL     1       4.249   5.111  18.146  0.00  0.00    +0.000 A 
ATOM     16  C   UNL     1       2.932   5.536  17.913  0.00  0.00    +0.000 A 
ATOM     17  C   UNL     1       1.843   4.865  18.485  0.00  0.00    +0.000 A 
ATOM     18  C   UNL     1       2.048   3.749  19.297  0.00  0.00    +0.000 A 
ATOM     19  C   UNL     1       3.346   3.315  19.526  0.00  0.00    +0.000 A 
ATOM     20  C   UNL     1       4.433   3.981  18.954  0.00  0.00    +0.000 A 
BRANCH  19  21
ATOM     21  O   UNL     1       3.614   2.223  20.308  0.00  0.00    +0.000 OA
ATOM     22  H   UNL     1       3.147   2.336  21.154  0.00  0.00    +0.000 HD
ENDBRANCH  19  21
BRANCH  20  23
ATOM     23  O   UNL     1       5.694   3.498  19.208  0.00  0.00    +0.000 OA
ATOM     24  H   UNL     1       6.259   4.297  19.246  0.00  0.00    +0.000 HD
ENDBRANCH  20  23
ENDBRANCH  14  15
ENDBRANCH   2  13
TORSDOF 7
ENDMDL
MODEL 6
REMARK VINA RESULT:      -7.4      4.342      6.191
REMARK  Name = 
REMARK  7 active torsions:
REMARK  status: ('A' for Active; 'I' for Inactive)
REMARK    1  A    between atoms: C_2  and  C_3
REMARK    2  A    between atoms: C_2  and  C_12
REMARK    3  A    between atoms: C_4  and  C_5
REMARK    4  A    between atoms: C_9  and  O_10
REMARK    5  A    between atoms: C_13  and  C_14
REMARK    6  A    between atoms: C_18  and  O_19
REMARK    7  A    between atoms: C_20  and  O_21
REMARK                            x       y       z     vdW  Elec       q    Type
REMARK                         _______ _______ _______ _____ _____    ______ ____
ROOT
ATOM      1  O   UNL     1       7.696   6.009  16.828  0.00  0.00    +0.000 OA
ATOM      2  C   UNL     1       6.958   6.793  17.412  0.00  0.00    +0.000 C 
ENDROOT
BRANCH   2   3
ATOM      3  C   UNL     1       7.335   8.210  17.659  0.00  0.00    +0.000 C 
ATOM      4  C   UNL     1       8.466   8.507  18.314  0.00  0.00    +0.000 C 
BRANCH   4   5
ATOM      5  C   UNL     1       8.829   9.898  18.589  0.00  0.00    +0.000 A 
ATOM      6  C   UNL     1       8.554  10.895  17.647  0.00  0.00    +0.000 A 
ATOM      7  C   UNL     1       8.906  12.223  17.906  0.00  0.00    +0.000 A 
ATOM      8  C   UNL     1       9.528  12.562  19.107  0.00  0.00    +0.000 A 
ATOM      9  C   UNL     1       9.783  11.568  20.047  0.00  0.00    +0.000 A 
ATOM     10  C   UNL     1       9.435  10.243  19.802  0.00  0.00    +0.000 A 
BRANCH   9  11
ATOM     11  O   UNL     1      10.383  11.858  21.238  0.00  0.00    +0.000 OA
ATOM     12  H   UNL     1      11.345  11.797  21.122  0.00  0.00    +0.000 HD
ENDBRANCH   9  11
ENDBRANCH   4   5
ENDBRANCH   2   3
BRANCH   2  13
ATOM     13  C   UNL     1       5.659   6.305  17.957  0.00  0.00    +0.000 C 
ATOM     14  C   UNL     1       5.399   5.053  18.363  0.00  0.00    +0.000 C 
BRANCH  14  15
ATOM     15  C   UNL     1       4.106   4.585  18.896  0.00  0.00    +0.000 A 
ATOM     16  C   UNL     1       3.310   5.381  19.735  0.00  0.00    +0.000 A 
ATOM     17  C   UNL     1       2.059   4.935  20.182  0.00  0.00    +0.000 A 
ATOM     18  C   UNL     1       1.574   3.687  19.794  0.00  0.00    +0.000 A 
ATOM     19  C   UNL     1       2.348   2.896  18.957  0.00  0.00    +0.000 A 
ATOM     20  C   UNL     1       3.595   3.339  18.508  0.00  0.00    +0.000 A 
BRANCH  19  21
ATOM     21  O   UNL     1       1.926   1.663  18.535  0.00  0.00    +0.000 OA
ATOM     22  H   UNL     1       2.708   1.154  18.259  0.00  0.00    +0.000 HD
ENDBRANCH  19  21
BRANCH  20  23
ATOM     23  O   UNL     1       4.311   2.517  17.672  0.00  0.00    +0.000 OA
ATOM     24  H   UNL     1       4.575   3.095  16.928  0.00  0.00    +0.000 HD
ENDBRANCH  20  23
ENDBRANCH  14  15
ENDBRANCH   2  13
TORSDOF 7
ENDMDL
MODEL 7
REMARK VINA RESULT:      -7.3      3.616      7.954
REMARK  Name = 
REMARK  7 active torsions:
REMARK  status: ('A' for Active; 'I' for Inactive)
REMARK    1  A    between atoms: C_2  and  C_3
REMARK    2  A    between atoms: C_2  and  C_12
REMARK    3  A    between atoms: C_4  and  C_5
REMARK    4  A    between atoms: C_9  and  O_10
REMARK    5  A    between atoms: C_13  and  C_14
REMARK    6  A    between atoms: C_18  and  O_19
REMARK    7  A    between atoms: C_20  and  O_21
REMARK                            x       y       z     vdW  Elec       q    Type
REMARK                         _______ _______ _______ _____ _____    ______ ____
ROOT
ATOM      1  O   UNL     1       4.428   3.463  18.710  0.00  0.00    +0.000 OA
ATOM      2  C   UNL     1       4.263   4.527  18.125  0.00  0.00    +0.000 C 
ENDROOT
BRANCH   2   3
ATOM      3  C   UNL     1       3.480   5.646  18.712  0.00  0.00    +0.000 C 
ATOM      4  C   UNL     1       3.107   6.686  17.952  0.00  0.00    +0.000 C 
BRANCH   4   5
ATOM      5  C   UNL     1       2.363   7.806  18.529  0.00  0.00    +0.000 A 
ATOM      6  C   UNL     1       2.104   8.947  17.763  0.00  0.00    +0.000 A 
ATOM      7  C   UNL     1       1.399  10.021  18.315  0.00  0.00    +0.000 A 
ATOM      8  C   UNL     1       0.946   9.957  19.632  0.00  0.00    +0.000 A 
ATOM      9  C   UNL     1       1.191   8.812  20.384  0.00  0.00    +0.000 A 
ATOM     10  C   UNL     1       1.890   7.737  19.844  0.00  0.00    +0.000 A 
BRANCH   9  11
ATOM     11  O   UNL     1       0.758   8.706  21.673  0.00  0.00    +0.000 OA
ATOM     12  H   UNL     1       0.641   7.765  21.884  0.00  0.00    +0.000 HD
ENDBRANCH   9  11
ENDBRANCH   4   5
ENDBRANCH   2   3
BRANCH   2  13
ATOM     13  C   UNL     1       4.809   4.695  16.748  0.00  0.00    +0.000 C 
ATOM     14  C   UNL     1       5.559   3.800  16.087  0.00  0.00    +0.000 C 
BRANCH  14  15
ATOM     15  C   UNL     1       6.095   3.983  14.724  0.00  0.00    +0.000 A 
ATOM     16  C   UNL     1       5.549   3.324  13.611  0.00  0.00    +0.000 A 
ATOM     17  C   UNL     1       6.041   3.558  12.320  0.00  0.00    +0.000 A 
ATOM     18  C   UNL     1       7.081   4.464  12.113  0.00  0.00    +0.000 A 
ATOM     19  C   UNL     1       7.620   5.128  13.206  0.00  0.00    +0.000 A 
ATOM     20  C   UNL     1       7.131   4.898  14.494  0.00  0.00    +0.000 A 
BRANCH  19  21
ATOM     21  O   UNL     1       8.639   6.033  13.069  0.00  0.00    +0.000 OA
ATOM     22  H   UNL     1       9.431   5.663  13.496  0.00  0.00    +0.000 HD
ENDBRANCH  19  21
BRANCH  20  23
ATOM     23  O   UNL     1       7.697   5.593  15.535  0.00  0.00    +0.000 OA
ATOM     24  H   UNL     1       7.253   6.465  15.516  0.00  0.00    +0.000 HD
ENDBRANCH  20  23
ENDBRANCH  14  15
ENDBRANCH   2  13
TORSDOF 7
ENDMDL
MODEL 8
REMARK VINA RESULT:      -7.3      3.549      4.003
REMARK  Name = 
REMARK  7 active torsions:
REMARK  status: ('A' for Active; 'I' for Inactive)
REMARK    1  A    between atoms: C_2  and  C_3
REMARK    2  A    between atoms: C_2  and  C_12
REMARK    3  A    between atoms: C_4  and  C_5
REMARK    4  A    between atoms: C_9  and  O_10
REMARK    5  A    between atoms: C_13  and  C_14
REMARK    6  A    between atoms: C_18  and  O_19
REMARK    7  A    between atoms: C_20  and  O_21
REMARK                            x       y       z     vdW  Elec       q    Type
REMARK                         _______ _______ _______ _____ _____    ______ ____
ROOT
ATOM      1  O   UNL     1       5.290   3.654  19.284  0.00  0.00    +0.000 OA
ATOM      2  C   UNL     1       5.236   4.519  18.417  0.00  0.00    +0.000 C 
ENDROOT
BRANCH   2   3
ATOM      3  C   UNL     1       5.931   4.381  17.109  0.00  0.00    +0.000 C 
ATOM      4  C   UNL     1       5.324   4.758  15.975  0.00  0.00    +0.000 C 
BRANCH   4   5
ATOM      5  C   UNL     1       5.988   4.597  14.682  0.00  0.00    +0.000 A 
ATOM      6  C   UNL     1       5.452   3.737  13.718  0.00  0.00    +0.000 A 
ATOM      7  C   UNL     1       6.089   3.577  12.484  0.00  0.00    +0.000 A 
ATOM      8  C   UNL     1       7.262   4.280  12.205  0.00  0.00    +0.000 A 
ATOM      9  C   UNL     1       7.781   5.147  13.161  0.00  0.00    +0.000 A 
ATOM     10  C   UNL     1       7.154   5.315  14.392  0.00  0.00    +0.000 A 
BRANCH   9  11
ATOM     11  O   UNL     1       8.921   5.858  12.926  0.00  0.00    +0.000 OA
ATOM     12  H   UNL     1       8.889   6.676  13.449  0.00  0.00    +0.000 HD
ENDBRANCH   9  11
ENDBRANCH   4   5
ENDBRANCH   2   3
BRANCH   2  13
ATOM     13  C   UNL     1       4.502   5.786  18.695  0.00  0.00    +0.000 C 
ATOM     14  C   UNL     1       3.188   5.988  18.515  0.00  0.00    +0.000 C 
BRANCH  14  15
ATOM     15  C   UNL     1       2.478   7.251  18.792  0.00  0.00    +0.000 A 
ATOM     16  C   UNL     1       2.278   8.229  17.805  0.00  0.00    +0.000 A 
ATOM     17  C   UNL     1       1.551   9.395  18.080  0.00  0.00    +0.000 A 
ATOM     18  C   UNL     1       1.000   9.604  19.345  0.00  0.00    +0.000 A 
ATOM     19  C   UNL     1       1.184   8.638  20.324  0.00  0.00    +0.000 A 
ATOM     20  C   UNL     1       1.907   7.474  20.053  0.00  0.00    +0.000 A 
BRANCH  19  21
ATOM     21  O   UNL     1       0.665   8.781  21.583  0.00  0.00    +0.000 OA
ATOM     22  H   UNL     1      -0.145   9.317  21.517  0.00  0.00    +0.000 HD
ENDBRANCH  19  21
BRANCH  20  23
ATOM     23  O   UNL     1       2.046   6.549  21.059  0.00  0.00    +0.000 OA
ATOM     24  H   UNL     1       1.887   5.688  20.623  0.00  0.00    +0.000 HD
ENDBRANCH  20  23
ENDBRANCH  14  15
ENDBRANCH   2  13
TORSDOF 7
ENDMDL
MODEL 9
REMARK VINA RESULT:      -7.3      4.866      6.664
REMARK  Name = 
REMARK  7 active torsions:
REMARK  status: ('A' for Active; 'I' for Inactive)
REMARK    1  A    between atoms: C_2  and  C_3
REMARK    2  A    between atoms: C_2  and  C_12
REMARK    3  A    between atoms: C_4  and  C_5
REMARK    4  A    between atoms: C_9  and  O_10
REMARK    5  A    between atoms: C_13  and  C_14
REMARK    6  A    between atoms: C_18  and  O_19
REMARK    7  A    between atoms: C_20  and  O_21
REMARK                            x       y       z     vdW  Elec       q    Type
REMARK                         _______ _______ _______ _____ _____    ______ ____
ROOT
ATOM      1  O   UNL     1       7.611   6.796  16.462  0.00  0.00    +0.000 OA
ATOM      2  C   UNL     1       7.508   7.001  17.666  0.00  0.00    +0.000 C 
ENDROOT
BRANCH   2   3
ATOM      3  C   UNL     1       8.329   8.020  18.374  0.00  0.00    +0.000 C 
ATOM      4  C   UNL     1       8.321   9.298  17.969  0.00  0.00    +0.000 C 
BRANCH   4   5
ATOM      5  C   UNL     1       9.150  10.300  18.640  0.00  0.00    +0.000 A 
ATOM      6  C   UNL     1       9.134  10.407  20.035  0.00  0.00    +0.000 A 
ATOM      7  C   UNL     1       9.920  11.368  20.676  0.00  0.00    +0.000 A 
ATOM      8  C   UNL     1      10.730  12.223  19.928  0.00  0.00    +0.000 A 
ATOM      9  C   UNL     1      10.755  12.100  18.543  0.00  0.00    +0.000 A 
ATOM     10  C   UNL     1       9.978  11.146  17.894  0.00  0.00    +0.000 A 
BRANCH   9  11
ATOM     11  O   UNL     1      11.539  12.911  17.775  0.00  0.00    +0.000 OA
ATOM     12  H   UNL     1      11.176  13.812  17.806  0.00  0.00    +0.000 HD
ENDBRANCH   9  11
ENDBRANCH   4   5
ENDBRANCH   2   3
BRANCH   2  13
ATOM     13  C   UNL     1       6.577   6.162  18.473  0.00  0.00    +0.000 C 
ATOM     14  C   UNL     1       5.389   5.693  18.063  0.00  0.00    +0.000 C 
BRANCH  14  15
ATOM     15  C   UNL     1       4.476   4.866  18.875  0.00  0.00    +0.000 A 
ATOM     16  C   UNL     1       4.754   3.524  19.180  0.00  0.00    +0.000 A 
ATOM     17  C   UNL     1       3.899   2.777  20.001  0.00  0.00    +0.000 A 
ATOM     18  C   UNL     1       2.752   3.359  20.542  0.00  0.00    +0.000 A 
ATOM     19  C   UNL     1       2.474   4.688  20.255  0.00  0.00    +0.000 A 
ATOM     20  C   UNL     1       3.326   5.435  19.438  0.00  0.00    +0.000 A 
BRANCH  19  21
ATOM     21  O   UNL     1       1.368   5.318  20.760  0.00  0.00    +0.000 OA
ATOM     22  H   UNL     1       0.668   4.652  20.876  0.00  0.00    +0.000 HD
ENDBRANCH  19  21
BRANCH  20  23
ATOM     23  O   UNL     1       3.005   6.749  19.199  0.00  0.00    +0.000 OA
ATOM     24  H   UNL     1       2.381   6.715  18.446  0.00  0.00    +0.000 HD
ENDBRANCH  20  23
ENDBRANCH  14  15
ENDBRANCH   2  13
TORSDOF 7
ENDMDL
