MODEL 1
REMARK VINA RESULT:      -7.3      0.000      0.000
REMARK  Name = 
REMARK  6 active torsions:
REMARK  status: ('A' for Active; 'I' for Inactive)
REMARK    1  A    between atoms: C_1  and  C_2
REMARK    2  A    between atoms: C_7  and  P_8
REMARK    3  A    between atoms: P_8  and  C_9
REMARK    4  A    between atoms: P_8  and  C_16
REMARK    5  A    between atoms: P_8  and  C_22
REMARK    6  A    between atoms: C_9  and  C_10
REMARK                            x       y       z     vdW  Elec       q    Type
REMARK                         _______ _______ _______ _____ _____    ______ ____
ROOT
ATOM      1  P   UNL     1      -0.189  11.133  19.830  0.00  0.00    +0.000 P 
ENDROOT
BRANCH   1   8
ATOM      2  C   UNL     1       0.775   8.651  21.727  0.00  0.00    +0.000 C 
ATOM      3  C   UNL     1       1.223   8.708  20.290  0.00  0.00    +0.000 A 
ATOM      4  C   UNL     1       2.023   7.638  19.837  0.00  0.00    +0.000 A 
ATOM      5  C   UNL     1       2.527   7.608  18.541  0.00  0.00    +0.000 A 
ATOM      6  C   UNL     1       2.266   8.663  17.685  0.00  0.00    +0.000 A 
ATOM      7  C   UNL     1       1.491   9.739  18.122  0.00  0.00    +0.000 A 
ATOM      8  C   UNL     1       0.938   9.784  19.413  0.00  0.00    +0.000 A 
ENDBRANCH   1   8
BRANCH   1   9
ATOM      9  C   UNL     1       0.659  12.685  19.509  0.00  0.00    +0.000 A 
ATOM     10  C   UNL     1       1.948  12.961  19.974  0.00  0.00    +0.000 A 
ATOM     11  C   UNL     1       2.486  14.249  19.886  0.00  0.00    +0.000 A 
ATOM     12  C   UNL     1       1.740  15.284  19.332  0.00  0.00    +0.000 A 
ATOM     13  C   UNL     1       0.477  15.022  18.814  0.00  0.00    +0.000 A 
ATOM     14  C   UNL     1      -0.047  13.730  18.882  0.00  0.00    +0.000 A 
ENDBRANCH   1   9
BRANCH   1  15
ATOM     15  C   UNL     1      -1.757  11.023  18.951  0.00  0.00    +0.000 A 
ATOM     16  C   UNL     1      -2.014  10.034  17.997  0.00  0.00    +0.000 A 
ATOM     17  C   UNL     1      -3.255   9.967  17.350  0.00  0.00    +0.000 A 
ATOM     18  C   UNL     1      -4.265  10.872  17.660  0.00  0.00    +0.000 A 
ATOM     19  C   UNL     1      -4.046  11.840  18.635  0.00  0.00    +0.000 A 
ATOM     20  C   UNL     1      -2.809  11.900  19.277  0.00  0.00    +0.000 A 
ENDBRANCH   1  15
BRANCH   1  21
ATOM     21  C   UNL     1      -0.715  11.049  21.585  0.00  0.00    +0.000 C 
BRANCH  21  22
ATOM     22  C   UNL     1      -1.313  12.217  22.323  0.00  0.00    +0.000 A 
ATOM     23  C   UNL     1      -2.583  12.130  22.900  0.00  0.00    +0.000 A 
ATOM     24  C   UNL     1      -3.096  13.184  23.659  0.00  0.00    +0.000 A 
ATOM     25  C   UNL     1      -2.333  14.331  23.871  0.00  0.00    +0.000 A 
ATOM     26  C   UNL     1      -1.059  14.427  23.317  0.00  0.00    +0.000 A 
ATOM     27  C   UNL     1      -0.548  13.374  22.550  0.00  0.00    +0.000 A 
ENDBRANCH  21  22
ENDBRANCH   1  21
TORSDOF 5
ENDMDL
MODEL 2
REMARK VINA RESULT:      -7.1      0.737      4.949
REMARK  Name = 
REMARK  6 active torsions:
REMARK  status: ('A' for Active; 'I' for Inactive)
REMARK    1  A    between atoms: C_1  and  C_2
REMARK    2  A    between atoms: C_7  and  P_8
REMARK    3  A    between atoms: P_8  and  C_9
REMARK    4  A    between atoms: P_8  and  C_16
REMARK    5  A    between atoms: P_8  and  C_22
REMARK    6  A    between atoms: C_9  and  C_10
REMARK                            x       y       z     vdW  Elec       q    Type
REMARK                         _______ _______ _______ _____ _____    ______ ____
ROOT
ATOM      1  P   UNL     1      -0.607  11.665  20.031  0.00  0.00    +0.000 P 
ENDROOT
BRANCH   1   8
ATOM      2  C   UNL     1       2.335  12.801  20.895  0.00  0.00    +0.000 C 
ATOM      3  C   UNL     1       1.419  13.662  20.065  0.00  0.00    +0.000 A 
ATOM      4  C   UNL     1       1.919  14.922  19.676  0.00  0.00    +0.000 A 
ATOM      5  C   UNL     1       1.144  15.814  18.943  0.00  0.00    +0.000 A 
ATOM      6  C   UNL     1      -0.156  15.475  18.614  0.00  0.00    +0.000 A 
ATOM      7  C   UNL     1      -0.674  14.240  19.006  0.00  0.00    +0.000 A 
ATOM      8  C   UNL     1       0.093  13.301  19.717  0.00  0.00    +0.000 A 
ENDBRANCH   1   8
BRANCH   1   9
ATOM      9  C   UNL     1      -2.186  11.563  19.179  0.00  0.00    +0.000 A 
ATOM     10  C   UNL     1      -3.317  12.280  19.578  0.00  0.00    +0.000 A 
ATOM     11  C   UNL     1      -4.572  12.013  19.024  0.00  0.00    +0.000 A 
ATOM     12  C   UNL     1      -4.717  11.021  18.060  0.00  0.00    +0.000 A 
ATOM     13  C   UNL     1      -3.598  10.332  17.609  0.00  0.00    +0.000 A 
ATOM     14  C   UNL     1      -2.342  10.617  18.147  0.00  0.00    +0.000 A 
ENDBRANCH   1   9
BRANCH   1  15
ATOM     15  C   UNL     1       0.508  10.333  19.557  0.00  0.00    +0.000 A 
ATOM     16  C   UNL     1       0.766   9.238  20.387  0.00  0.00    +0.000 A 
ATOM     17  C   UNL     1       1.623   8.210  19.972  0.00  0.00    +0.000 A 
ATOM     18  C   UNL     1       2.218   8.247  18.715  0.00  0.00    +0.000 A 
ATOM     19  C   UNL     1       1.944   9.306  17.856  0.00  0.00    +0.000 A 
ATOM     20  C   UNL     1       1.089  10.326  18.273  0.00  0.00    +0.000 A 
ENDBRANCH   1  15
BRANCH   1  21
ATOM     21  C   UNL     1      -0.835  11.367  21.826  0.00  0.00    +0.000 C 
BRANCH  21  22
ATOM     22  C   UNL     1      -1.519  12.346  22.744  0.00  0.00    +0.000 A 
ATOM     23  C   UNL     1      -0.941  13.585  23.034  0.00  0.00    +0.000 A 
ATOM     24  C   UNL     1      -1.620  14.524  23.813  0.00  0.00    +0.000 A 
ATOM     25  C   UNL     1      -2.898  14.244  24.292  0.00  0.00    +0.000 A 
ATOM     26  C   UNL     1      -3.495  13.020  23.998  0.00  0.00    +0.000 A 
ATOM     27  C   UNL     1      -2.811  12.076  23.225  0.00  0.00    +0.000 A 
ENDBRANCH  21  22
ENDBRANCH   1  21
TORSDOF 5
ENDMDL
MODEL 3
REMARK VINA RESULT:      -7.0      1.187      5.183
REMARK  Name = 
REMARK  6 active torsions:
REMARK  status: ('A' for Active; 'I' for Inactive)
REMARK    1  A    between atoms: C_1  and  C_2
REMARK    2  A    between atoms: C_7  and  P_8
REMARK    3  A    between atoms: P_8  and  C_9
REMARK    4  A    between atoms: P_8  and  C_16
REMARK    5  A    between atoms: P_8  and  C_22
REMARK    6  A    between atoms: C_9  and  C_10
REMARK                            x       y       z     vdW  Elec       q    Type
REMARK                         _______ _______ _______ _____ _____    ______ ____
ROOT
ATOM      1  P   UNL     1       0.667  11.594  19.520  0.00  0.00    +0.000 P 
ENDROOT
BRANCH   1   8
ATOM      2  C   UNL     1      -0.972  14.224  20.559  0.00  0.00    +0.000 C 
ATOM      3  C   UNL     1      -1.018  12.953  21.365  0.00  0.00    +0.000 A 
ATOM      4  C   UNL     1      -1.815  12.972  22.528  0.00  0.00    +0.000 A 
ATOM      5  C   UNL     1      -1.898  11.868  23.368  0.00  0.00    +0.000 A 
ATOM      6  C   UNL     1      -1.160  10.734  23.078  0.00  0.00    +0.000 A 
ATOM      7  C   UNL     1      -0.351  10.703  21.940  0.00  0.00    +0.000 A 
ATOM      8  C   UNL     1      -0.271  11.789  21.052  0.00  0.00    +0.000 A 
ENDBRANCH   1   8
BRANCH   1   9
ATOM      9  C   UNL     1       1.964  12.839  19.501  0.00  0.00    +0.000 A 
ATOM     10  C   UNL     1       2.519  13.381  20.664  0.00  0.00    +0.000 A 
ATOM     11  C   UNL     1       3.367  14.491  20.608  0.00  0.00    +0.000 A 
ATOM     12  C   UNL     1       3.672  15.079  19.385  0.00  0.00    +0.000 A 
ATOM     13  C   UNL     1       3.175  14.525  18.211  0.00  0.00    +0.000 A 
ATOM     14  C   UNL     1       2.348  13.402  18.269  0.00  0.00    +0.000 A 
ENDBRANCH   1   9
BRANCH   1  15
ATOM     15  C   UNL     1       1.323   9.929  19.318  0.00  0.00    +0.000 A 
ATOM     16  C   UNL     1       1.331   8.993  20.357  0.00  0.00    +0.000 A 
ATOM     17  C   UNL     1       1.830   7.700  20.154  0.00  0.00    +0.000 A 
ATOM     18  C   UNL     1       2.308   7.313  18.906  0.00  0.00    +0.000 A 
ATOM     19  C   UNL     1       2.274   8.214  17.847  0.00  0.00    +0.000 A 
ATOM     20  C   UNL     1       1.774   9.500  18.055  0.00  0.00    +0.000 A 
ENDBRANCH   1  15
BRANCH   1  21
ATOM     21  C   UNL     1      -0.409  11.775  18.047  0.00  0.00    +0.000 C 
BRANCH  21  22
ATOM     22  C   UNL     1      -1.811  11.233  17.979  0.00  0.00    +0.000 A 
ATOM     23  C   UNL     1      -2.879  11.923  18.560  0.00  0.00    +0.000 A 
ATOM     24  C   UNL     1      -4.190  11.461  18.418  0.00  0.00    +0.000 A 
ATOM     25  C   UNL     1      -4.451  10.315  17.669  0.00  0.00    +0.000 A 
ATOM     26  C   UNL     1      -3.400   9.626  17.069  0.00  0.00    +0.000 A 
ATOM     27  C   UNL     1      -2.086  10.083  17.219  0.00  0.00    +0.000 A 
ENDBRANCH  21  22
ENDBRANCH   1  21
TORSDOF 5
ENDMDL
MODEL 4
REMARK VINA RESULT:      -7.0      0.900      1.484
REMARK  Name = 
REMARK  6 active torsions:
REMARK  status: ('A' for Active; 'I' for Inactive)
REMARK    1  A    between atoms: C_1  and  C_2
REMARK    2  A    between atoms: C_7  and  P_8
REMARK    3  A    between atoms: P_8  and  C_9
REMARK    4  A    between atoms: P_8  and  C_16
REMARK    5  A    between atoms: P_8  and  C_22
REMARK    6  A    between atoms: C_9  and  C_10
REMARK                            x       y       z     vdW  Elec       q    Type
REMARK                         _______ _______ _______ _____ _____    ______ ____
ROOT
ATOM      1  P   UNL     1      -0.652  11.203  19.770  0.00  0.00    +0.000 P 
ENDROOT
BRANCH   1   8
ATOM      2  C   UNL     1      -0.133   9.202  22.303  0.00  0.00    +0.000 C 
ATOM      3  C   UNL     1       0.568   8.945  20.995  0.00  0.00    +0.000 A 
ATOM      4  C   UNL     1       1.400   7.807  20.939  0.00  0.00    +0.000 A 
ATOM      5  C   UNL     1       2.127   7.496  19.796  0.00  0.00    +0.000 A 
ATOM      6  C   UNL     1       2.061   8.336  18.698  0.00  0.00    +0.000 A 
ATOM      7  C   UNL     1       1.259   9.477  18.742  0.00  0.00    +0.000 A 
ATOM      8  C   UNL     1       0.484   9.801  19.869  0.00  0.00    +0.000 A 
ENDBRANCH   1   8
BRANCH   1   9
ATOM      9  C   UNL     1       0.320  12.688  19.488  0.00  0.00    +0.000 A 
ATOM     10  C   UNL     1       1.608  12.866  20.003  0.00  0.00    +0.000 A 
ATOM     11  C   UNL     1       2.243  14.110  19.941  0.00  0.00    +0.000 A 
ATOM     12  C   UNL     1       1.598  15.199  19.363  0.00  0.00    +0.000 A 
ATOM     13  C   UNL     1       0.339  15.032  18.797  0.00  0.00    +0.000 A 
ATOM     14  C   UNL     1      -0.282  13.783  18.839  0.00  0.00    +0.000 A 
ENDBRANCH   1   9
BRANCH   1  15
ATOM     15  C   UNL     1      -1.923  10.976  18.514  0.00  0.00    +0.000 A 
ATOM     16  C   UNL     1      -3.153  11.639  18.562  0.00  0.00    +0.000 A 
ATOM     17  C   UNL     1      -4.108  11.453  17.554  0.00  0.00    +0.000 A 
ATOM     18  C   UNL     1      -3.842  10.621  16.471  0.00  0.00    +0.000 A 
ATOM     19  C   UNL     1      -2.610   9.982  16.381  0.00  0.00    +0.000 A 
ATOM     20  C   UNL     1      -1.662  10.173  17.387  0.00  0.00    +0.000 A 
ENDBRANCH   1  15
BRANCH   1  21
ATOM     21  C   UNL     1      -1.641  11.374  21.304  0.00  0.00    +0.000 C 
BRANCH  21  22
ATOM     22  C   UNL     1      -1.860  12.690  22.001  0.00  0.00    +0.000 A 
ATOM     23  C   UNL     1      -1.008  13.113  23.026  0.00  0.00    +0.000 A 
ATOM     24  C   UNL     1      -1.162  14.373  23.608  0.00  0.00    +0.000 A 
ATOM     25  C   UNL     1      -2.156  15.237  23.154  0.00  0.00    +0.000 A 
ATOM     26  C   UNL     1      -3.002  14.838  22.123  0.00  0.00    +0.000 A 
ATOM     27  C   UNL     1      -2.854  13.572  21.546  0.00  0.00    +0.000 A 
ENDBRANCH  21  22
ENDBRANCH   1  21
TORSDOF 5
ENDMDL
MODEL 5
REMARK VINA RESULT:      -7.0      1.027      1.825
REMARK  Name = 
REMARK  6 active torsions:
REMARK  status: ('A' for Active; 'I' for Inactive)
REMARK    1  A    between atoms: C_1  and  C_2
REMARK    2  A    between atoms: C_7  and  P_8
REMARK    3  A    between atoms: P_8  and  C_9
REMARK    4  A    between atoms: P_8  and  C_16
REMARK    5  A    between atoms: P_8  and  C_22
REMARK    6  A    between atoms: C_9  and  C_10
REMARK                            x       y       z     vdW  Elec       q    Type
REMARK                         _______ _______ _______ _____ _____    ______ ____
ROOT
ATOM      1  P   UNL     1      -0.793  11.189  19.775  0.00  0.00    +0.000 P 
ENDROOT
BRANCH   1   8
ATOM      2  C   UNL     1       1.540   9.853  17.915  0.00  0.00    +0.000 C 
ATOM      3  C   UNL     1       1.204   9.234  19.246  0.00  0.00    +0.000 A 
ATOM      4  C   UNL     1       1.963   8.108  19.627  0.00  0.00    +0.000 A 
ATOM      5  C   UNL     1       1.712   7.433  20.816  0.00  0.00    +0.000 A 
ATOM      6  C   UNL     1       0.675   7.852  21.631  0.00  0.00    +0.000 A 
ATOM      7  C   UNL     1      -0.099   8.954  21.261  0.00  0.00    +0.000 A 
ATOM      8  C   UNL     1       0.150   9.679  20.084  0.00  0.00    +0.000 A 
ENDBRANCH   1   8
BRANCH   1   9
ATOM      9  C   UNL     1       0.374  12.533  19.526  0.00  0.00    +0.000 A 
ATOM     10  C   UNL     1       1.546  12.675  20.275  0.00  0.00    +0.000 A 
ATOM     11  C   UNL     1       2.314  13.840  20.198  0.00  0.00    +0.000 A 
ATOM     12  C   UNL     1       1.921  14.886  19.369  0.00  0.00    +0.000 A 
ATOM     13  C   UNL     1       0.789  14.746  18.575  0.00  0.00    +0.000 A 
ATOM     14  C   UNL     1       0.037  13.571  18.637  0.00  0.00    +0.000 A 
ENDBRANCH   1   9
BRANCH   1  15
ATOM     15  C   UNL     1      -1.938  11.020  18.395  0.00  0.00    +0.000 A 
ATOM     16  C   UNL     1      -1.695  10.160  17.319  0.00  0.00    +0.000 A 
ATOM     17  C   UNL     1      -2.620  10.040  16.275  0.00  0.00    +0.000 A 
ATOM     18  C   UNL     1      -3.811  10.759  16.297  0.00  0.00    +0.000 A 
ATOM     19  C   UNL     1      -4.092  11.590  17.376  0.00  0.00    +0.000 A 
ATOM     20  C   UNL     1      -3.168  11.704  18.415  0.00  0.00    +0.000 A 
ENDBRANCH   1  15
BRANCH   1  21
ATOM     21  C   UNL     1      -1.916  11.575  21.173  0.00  0.00    +0.000 C 
BRANCH  21  22
ATOM     22  C   UNL     1      -1.931  12.907  21.875  0.00  0.00    +0.000 A 
ATOM     23  C   UNL     1      -1.200  13.110  23.049  0.00  0.00    +0.000 A 
ATOM     24  C   UNL     1      -1.146  14.371  23.647  0.00  0.00    +0.000 A 
ATOM     25  C   UNL     1      -1.802  15.452  23.062  0.00  0.00    +0.000 A 
ATOM     26  C   UNL     1      -2.520  15.270  21.883  0.00  0.00    +0.000 A 
ATOM     27  C   UNL     1      -2.582  14.005  21.289  0.00  0.00    +0.000 A 
ENDBRANCH  21  22
ENDBRANCH   1  21
TORSDOF 5
ENDMDL
MODEL 6
REMARK VINA RESULT:      -7.0      1.201      5.126
REMARK  Name = 
REMARK  6 active torsions:
REMARK  status: ('A' for Active; 'I' for Inactive)
REMARK    1  A    between atoms: C_1  and  C_2
REMARK    2  A    between atoms: C_7  and  P_8
REMARK    3  A    between atoms: P_8  and  C_9
REMARK    4  A    between atoms: P_8  and  C_16
REMARK    5  A    between atoms: P_8  and  C_22
REMARK    6  A    between atoms: C_9  and  C_10
REMARK                            x       y       z     vdW  Elec       q    Type
REMARK                         _______ _______ _______ _____ _____    ______ ____
ROOT
ATOM      1  P   UNL     1       0.668  11.712  19.530  0.00  0.00    +0.000 P 
ENDROOT
BRANCH   1   8
ATOM      2  C   UNL     1      -1.018  14.282  20.646  0.00  0.00    +0.000 C 
ATOM      3  C   UNL     1      -1.036  12.988  21.417  0.00  0.00    +0.000 A 
ATOM      4  C   UNL     1      -1.829  12.960  22.583  0.00  0.00    +0.000 A 
ATOM      5  C   UNL     1      -1.887  11.832  23.393  0.00  0.00    +0.000 A 
ATOM      6  C   UNL     1      -1.129  10.721  23.069  0.00  0.00    +0.000 A 
ATOM      7  C   UNL     1      -0.323  10.737  21.928  0.00  0.00    +0.000 A 
ATOM      8  C   UNL     1      -0.268  11.848  21.070  0.00  0.00    +0.000 A 
ENDBRANCH   1   8
BRANCH   1   9
ATOM      9  C   UNL     1       2.007  12.909  19.588  0.00  0.00    +0.000 A 
ATOM     10  C   UNL     1       2.535  13.407  20.783  0.00  0.00    +0.000 A 
ATOM     11  C   UNL     1       3.424  14.486  20.784  0.00  0.00    +0.000 A 
ATOM     12  C   UNL     1       3.798  15.088  19.587  0.00  0.00    +0.000 A 
ATOM     13  C   UNL     1       3.328  14.576  18.383  0.00  0.00    +0.000 A 
ATOM     14  C   UNL     1       2.460  13.483  18.384  0.00  0.00    +0.000 A 
ENDBRANCH   1   9
BRANCH   1  15
ATOM     15  C   UNL     1       1.265  10.040  19.228  0.00  0.00    +0.000 A 
ATOM     16  C   UNL     1       1.765   9.635  17.987  0.00  0.00    +0.000 A 
ATOM     17  C   UNL     1       2.241   8.331  17.797  0.00  0.00    +0.000 A 
ATOM     18  C   UNL     1       2.246   7.419  18.848  0.00  0.00    +0.000 A 
ATOM     19  C   UNL     1       1.790   7.812  20.102  0.00  0.00    +0.000 A 
ATOM     20  C   UNL     1       1.319   9.112  20.285  0.00  0.00    +0.000 A 
ENDBRANCH   1  15
BRANCH   1  21
ATOM     21  C   UNL     1      -0.396  12.021  18.069  0.00  0.00    +0.000 C 
BRANCH  21  22
ATOM     22  C   UNL     1      -1.765  11.417  17.904  0.00  0.00    +0.000 A 
ATOM     23  C   UNL     1      -1.931  10.160  17.315  0.00  0.00    +0.000 A 
ATOM     24  C   UNL     1      -3.193   9.566  17.245  0.00  0.00    +0.000 A 
ATOM     25  C   UNL     1      -4.302  10.212  17.786  0.00  0.00    +0.000 A 
ATOM     26  C   UNL     1      -4.152  11.457  18.391  0.00  0.00    +0.000 A 
ATOM     27  C   UNL     1      -2.889  12.056  18.453  0.00  0.00    +0.000 A 
ENDBRANCH  21  22
ENDBRANCH   1  21
TORSDOF 5
ENDMDL
MODEL 7
REMARK VINA RESULT:      -7.0      1.079      6.455
REMARK  Name = 
REMARK  6 active torsions:
REMARK  status: ('A' for Active; 'I' for Inactive)
REMARK    1  A    between atoms: C_1  and  C_2
REMARK    2  A    between atoms: C_7  and  P_8
REMARK    3  A    between atoms: P_8  and  C_9
REMARK    4  A    between atoms: P_8  and  C_16
REMARK    5  A    between atoms: P_8  and  C_22
REMARK    6  A    between atoms: C_9  and  C_10
REMARK                            x       y       z     vdW  Elec       q    Type
REMARK                         _______ _______ _______ _____ _____    ______ ____
ROOT
ATOM      1  P   UNL     1      -0.559  11.546  20.311  0.00  0.00    +0.000 P 
ENDROOT
BRANCH   1   8
ATOM      2  C   UNL     1      -1.452  14.690  20.393  0.00  0.00    +0.000 C 
ATOM      3  C   UNL     1      -1.928  13.753  21.472  0.00  0.00    +0.000 A 
ATOM      4  C   UNL     1      -2.778  14.302  22.454  0.00  0.00    +0.000 A 
ATOM      5  C   UNL     1      -3.243  13.538  23.519  0.00  0.00    +0.000 A 
ATOM      6  C   UNL     1      -2.841  12.220  23.638  0.00  0.00    +0.000 A 
ATOM      7  C   UNL     1      -1.985  11.664  22.686  0.00  0.00    +0.000 A 
ATOM      8  C   UNL     1      -1.524  12.398  21.579  0.00  0.00    +0.000 A 
ENDBRANCH   1   8
BRANCH   1   9
ATOM      9  C   UNL     1      -1.674  11.094  18.975  0.00  0.00    +0.000 A 
ATOM     10  C   UNL     1      -1.308  10.240  17.931  0.00  0.00    +0.000 A 
ATOM     11  C   UNL     1      -2.125  10.083  16.807  0.00  0.00    +0.000 A 
ATOM     12  C   UNL     1      -3.324  10.781  16.709  0.00  0.00    +0.000 A 
ATOM     13  C   UNL     1      -3.734  11.595  17.758  0.00  0.00    +0.000 A 
ATOM     14  C   UNL     1      -2.927  11.731  18.889  0.00  0.00    +0.000 A 
ENDBRANCH   1   9
BRANCH   1  15
ATOM     15  C   UNL     1       0.835  12.525  19.728  0.00  0.00    +0.000 A 
ATOM     16  C   UNL     1       0.959  12.938  18.398  0.00  0.00    +0.000 A 
ATOM     17  C   UNL     1       2.048  13.718  17.988  0.00  0.00    +0.000 A 
ATOM     18  C   UNL     1       3.019  14.116  18.902  0.00  0.00    +0.000 A 
ATOM     19  C   UNL     1       2.896  13.750  20.239  0.00  0.00    +0.000 A 
ATOM     20  C   UNL     1       1.808  12.975  20.642  0.00  0.00    +0.000 A 
ENDBRANCH   1  15
BRANCH   1  21
ATOM     21  C   UNL     1       0.262  10.051  20.984  0.00  0.00    +0.000 C 
BRANCH  21  22
ATOM     22  C   UNL     1       1.023   9.073  20.129  0.00  0.00    +0.000 A 
ATOM     23  C   UNL     1       1.453   9.422  18.846  0.00  0.00    +0.000 A 
ATOM     24  C   UNL     1       2.235   8.543  18.092  0.00  0.00    +0.000 A 
ATOM     25  C   UNL     1       2.618   7.314  18.624  0.00  0.00    +0.000 A 
ATOM     26  C   UNL     1       2.212   6.958  19.908  0.00  0.00    +0.000 A 
ATOM     27  C   UNL     1       1.421   7.835  20.660  0.00  0.00    +0.000 A 
ENDBRANCH  21  22
ENDBRANCH   1  21
TORSDOF 5
ENDMDL
MODEL 8
REMARK VINA RESULT:      -6.9      1.109      5.329
REMARK  Name = 
REMARK  6 active torsions:
REMARK  status: ('A' for Active; 'I' for Inactive)
REMARK    1  A    between atoms: C_1  and  C_2
REMARK    2  A    between atoms: C_7  and  P_8
REMARK    3  A    between atoms: P_8  and  C_9
REMARK    4  A    between atoms: P_8  and  C_16
REMARK    5  A    between atoms: P_8  and  C_22
REMARK    6  A    between atoms: C_9  and  C_10
REMARK                            x       y       z     vdW  Elec       q    Type
REMARK                         _______ _______ _______ _____ _____    ______ ____
ROOT
ATOM      1  P   UNL     1      -0.279  12.606  20.280  0.00  0.00    +0.000 P 
ENDROOT
BRANCH   1   8
ATOM      2  C   UNL     1       1.440  10.465  18.505  0.00  0.00    +0.000 C 
ATOM      3  C   UNL     1       0.935  10.067  19.867  0.00  0.00    +0.000 A 
ATOM      4  C   UNL     1       1.276   8.773  20.311  0.00  0.00    +0.000 A 
ATOM      5  C   UNL     1       0.829   8.286  21.534  0.00  0.00    +0.000 A 
ATOM      6  C   UNL     1       0.006   9.072  22.321  0.00  0.00    +0.000 A 
ATOM      7  C   UNL     1      -0.358  10.349  21.888  0.00  0.00    +0.000 A 
ATOM      8  C   UNL     1       0.105  10.885  20.674  0.00  0.00    +0.000 A 
ENDBRANCH   1   8
BRANCH   1   9
ATOM      9  C   UNL     1      -1.212  13.295  21.653  0.00  0.00    +0.000 A 
ATOM     10  C   UNL     1      -0.623  14.038  22.680  0.00  0.00    +0.000 A 
ATOM     11  C   UNL     1      -1.342  14.373  23.831  0.00  0.00    +0.000 A 
ATOM     12  C   UNL     1      -2.664  13.968  23.975  0.00  0.00    +0.000 A 
ATOM     13  C   UNL     1      -3.288  13.274  22.945  0.00  0.00    +0.000 A 
ATOM     14  C   UNL     1      -2.574  12.962  21.786  0.00  0.00    +0.000 A 
ENDBRANCH   1   9
BRANCH   1  15
ATOM     15  C   UNL     1       1.192  13.575  19.905  0.00  0.00    +0.000 A 
ATOM     16  C   UNL     1       1.217  14.541  18.895  0.00  0.00    +0.000 A 
ATOM     17  C   UNL     1       2.374  15.290  18.648  0.00  0.00    +0.000 A 
ATOM     18  C   UNL     1       3.517  15.104  19.420  0.00  0.00    +0.000 A 
ATOM     19  C   UNL     1       3.502  14.177  20.457  0.00  0.00    +0.000 A 
ATOM     20  C   UNL     1       2.346  13.435  20.699  0.00  0.00    +0.000 A 
ENDBRANCH   1  15
BRANCH   1  21
ATOM     21  C   UNL     1      -1.245  12.738  18.727  0.00  0.00    +0.000 C 
BRANCH  21  22
ATOM     22  C   UNL     1      -2.264  11.715  18.300  0.00  0.00    +0.000 A 
ATOM     23  C   UNL     1      -3.617  11.872  18.615  0.00  0.00    +0.000 A 
ATOM     24  C   UNL     1      -4.570  10.967  18.141  0.00  0.00    +0.000 A 
ATOM     25  C   UNL     1      -4.182   9.907  17.324  0.00  0.00    +0.000 A 
ATOM     26  C   UNL     1      -2.841   9.746  16.988  0.00  0.00    +0.000 A 
ATOM     27  C   UNL     1      -1.885  10.647  17.470  0.00  0.00    +0.000 A 
ENDBRANCH  21  22
ENDBRANCH   1  21
TORSDOF 5
ENDMDL
MODEL 9
REMARK VINA RESULT:      -6.9      1.178      5.301
REMARK  Name = 
REMARK  6 active torsions:
REMARK  status: ('A' for Active; 'I' for Inactive)
REMARK    1  A    between atoms: C_1  and  C_2
REMARK    2  A    between atoms: C_7  and  P_8
REMARK    3  A    between atoms: P_8  and  C_9
REMARK    4  A    between atoms: P_8  and  C_16
REMARK    5  A    between atoms: P_8  and  C_22
REMARK    6  A    between atoms: C_9  and  C_10
REMARK                            x       y       z     vdW  Elec       q    Type
REMARK                         _______ _______ _______ _____ _____    ______ ____
ROOT
ATOM      1  P   UNL     1       0.486  11.978  19.590  0.00  0.00    +0.000 P 
ENDROOT
BRANCH   1   8
ATOM      2  C   UNL     1      -1.306  14.529  20.575  0.00  0.00    +0.000 C 
ATOM      3  C   UNL     1      -1.295  13.265  21.395  0.00  0.00    +0.000 A 
ATOM      4  C   UNL     1      -2.109  13.256  22.547  0.00  0.00    +0.000 A 
ATOM      5  C   UNL     1      -2.145  12.157  23.399  0.00  0.00    +0.000 A 
ATOM      6  C   UNL     1      -1.343  11.061  23.132  0.00  0.00    +0.000 A 
ATOM      7  C   UNL     1      -0.517  11.061  22.006  0.00  0.00    +0.000 A 
ATOM      8  C   UNL     1      -0.483  12.140  21.106  0.00  0.00    +0.000 A 
ENDBRANCH   1   8
BRANCH   1   9
ATOM      9  C   UNL     1       1.786  13.218  19.627  0.00  0.00    +0.000 A 
ATOM     10  C   UNL     1       2.355  13.763  18.472  0.00  0.00    +0.000 A 
ATOM     11  C   UNL     1       3.501  14.561  18.540  0.00  0.00    +0.000 A 
ATOM     12  C   UNL     1       4.099  14.826  19.767  0.00  0.00    +0.000 A 
ATOM     13  C   UNL     1       3.521  14.340  20.934  0.00  0.00    +0.000 A 
ATOM     14  C   UNL     1       2.363  13.563  20.864  0.00  0.00    +0.000 A 
ENDBRANCH   1   9
BRANCH   1  15
ATOM     15  C   UNL     1       1.141  10.316  19.361  0.00  0.00    +0.000 A 
ATOM     16  C   UNL     1       1.115   9.352  20.374  0.00  0.00    +0.000 A 
ATOM     17  C   UNL     1       1.614   8.063  20.150  0.00  0.00    +0.000 A 
ATOM     18  C   UNL     1       2.127   7.708  18.906  0.00  0.00    +0.000 A 
ATOM     19  C   UNL     1       2.127   8.638  17.872  0.00  0.00    +0.000 A 
ATOM     20  C   UNL     1       1.626   9.920  18.100  0.00  0.00    +0.000 A 
ENDBRANCH   1  15
BRANCH   1  21
ATOM     21  C   UNL     1      -0.559  12.199  18.099  0.00  0.00    +0.000 C 
BRANCH  21  22
ATOM     22  C   UNL     1      -1.860  11.472  17.890  0.00  0.00    +0.000 A 
ATOM     23  C   UNL     1      -3.036  11.908  18.507  0.00  0.00    +0.000 A 
ATOM     24  C   UNL     1      -4.256  11.284  18.240  0.00  0.00    +0.000 A 
ATOM     25  C   UNL     1      -4.319  10.230  17.330  0.00  0.00    +0.000 A 
ATOM     26  C   UNL     1      -3.160   9.794  16.693  0.00  0.00    +0.000 A 
ATOM     27  C   UNL     1      -1.936  10.414  16.968  0.00  0.00    +0.000 A 
ENDBRANCH  21  22
ENDBRANCH   1  21
TORSDOF 5
ENDMDL
