MODEL 1
REMARK VINA RESULT:      -8.4      0.000      0.000
REMARK  Name = 
REMARK  8 active torsions:
REMARK  status: ('A' for Active; 'I' for Inactive)
REMARK    1  A    between atoms: C_1  and  C_2
REMARK    2  A    between atoms: C_2  and  N_3
REMARK    3  A    between atoms: C_4  and  C_5
REMARK    4  A    between atoms: C_5  and  O_6
REMARK    5  A    between atoms: C_5  and  C_7
REMARK    6  A    between atoms: C_5  and  C_13
REMARK    7  A    between atoms: C_23  and  C_24
REMARK    8  A    between atoms: N_26  and  C_27
REMARK                            x       y       z     vdW  Elec       q    Type
REMARK                         _______ _______ _______ _____ _____    ______ ____
ROOT
ATOM      1  N   UNL     1       2.620   6.740  19.637  0.00  0.00    +0.000 N 
ATOM      2  C   UNL     1       3.179   6.790  18.367  0.00  0.00    +0.000 A 
ATOM      3  N   UNL     1       2.827   7.936  17.786  0.00  0.00    +0.000 NA
ATOM      4  C   UNL     1       2.036   8.613  18.659  0.00  0.00    +0.000 A 
ATOM      5  C   UNL     1       1.419   9.867  18.520  0.00  0.00    +0.000 A 
ATOM      6  C   UNL     1       0.626  10.355  19.569  0.00  0.00    +0.000 A 
ATOM      7  C   UNL     1       0.453   9.599  20.738  0.00  0.00    +0.000 A 
ATOM      8  C   UNL     1       1.060   8.337  20.874  0.00  0.00    +0.000 A 
ATOM      9  C   UNL     1       1.860   7.882  19.822  0.00  0.00    +0.000 A 
ENDROOT
BRANCH   7  10
ATOM     10  C   UNL     1      -0.385  10.066  21.870  0.00  0.00    +0.000 C 
ATOM     11  O   UNL     1      -0.787   9.269  22.710  0.00  0.00    +0.000 OA
ATOM     12  N   UNL     1      -0.638  11.421  21.946  0.00  0.00    +0.000 N 
ATOM     13  H   UNL     1      -0.182  12.038  21.284  0.00  0.00    +0.000 HD
BRANCH  12  14
ATOM     14  C   UNL     1      -1.423  11.983  23.068  0.00  0.00    +0.000 C 
ATOM     15  C   UNL     1      -1.338  13.506  23.268  0.00  0.00    +0.000 C 
ATOM     16  O   UNL     1      -2.786  13.590  23.385  0.00  0.00    +0.000 OA
ATOM     17  C   UNL     1      -2.899  12.278  22.771  0.00  0.00    +0.000 C 
ENDBRANCH  12  14
ENDBRANCH   7  10
BRANCH   1  19
ATOM     18  C   UNL     1       1.533   4.851  20.816  0.00  0.00    +0.000 C 
ATOM     19  C   UNL     1       2.768   5.729  20.671  0.00  0.00    +0.000 C 
ENDBRANCH   1  19
BRANCH   2  20
ATOM     20  C   UNL     1       4.060   5.715  17.668  0.00  0.00    +0.000 C 
BRANCH  20  21
ATOM     21  C   UNL     1       5.551   5.933  18.030  0.00  0.00    +0.000 A 
ATOM     22  C   UNL     1       6.088   5.339  19.188  0.00  0.00    +0.000 A 
ATOM     23  C   UNL     1       7.393   5.605  19.610  0.00  0.00    +0.000 A 
ATOM     24  C   UNL     1       8.200   6.467  18.878  0.00  0.00    +0.000 A 
ATOM     25  C   UNL     1       7.712   7.043  17.710  0.00  0.00    +0.000 A 
ATOM     26  C   UNL     1       6.410   6.768  17.282  0.00  0.00    +0.000 A 
ENDBRANCH  20  21
BRANCH  20  27
ATOM     27  C   UNL     1       3.572   4.275  17.936  0.00  0.00    +0.000 A 
ATOM     28  C   UNL     1       2.274   3.884  17.545  0.00  0.00    +0.000 A 
ATOM     29  C   UNL     1       1.760   2.630  17.877  0.00  0.00    +0.000 A 
ATOM     30  C   UNL     1       2.542   1.722  18.582  0.00  0.00    +0.000 A 
ATOM     31  C   UNL     1       3.848   2.055  18.924  0.00  0.00    +0.000 A 
ATOM     32  C   UNL     1       4.361   3.314  18.595  0.00  0.00    +0.000 A 
ENDBRANCH  20  27
BRANCH  20  33
ATOM     33  O   UNL     1       3.886   5.898  16.256  0.00  0.00    +0.000 OA
ATOM     34  H   UNL     1       4.375   6.700  16.031  0.00  0.00    +0.000 HD
ENDBRANCH  20  33
ENDBRANCH   2  20
TORSDOF 7
ENDMDL
MODEL 2
REMARK VINA RESULT:      -7.9      1.592      3.578
REMARK  Name = 
REMARK  8 active torsions:
REMARK  status: ('A' for Active; 'I' for Inactive)
REMARK    1  A    between atoms: C_1  and  C_2
REMARK    2  A    between atoms: C_2  and  N_3
REMARK    3  A    between atoms: C_4  and  C_5
REMARK    4  A    between atoms: C_5  and  O_6
REMARK    5  A    between atoms: C_5  and  C_7
REMARK    6  A    between atoms: C_5  and  C_13
REMARK    7  A    between atoms: C_23  and  C_24
REMARK    8  A    between atoms: N_26  and  C_27
REMARK                            x       y       z     vdW  Elec       q    Type
REMARK                         _______ _______ _______ _____ _____    ______ ____
ROOT
ATOM      1  N   UNL     1       2.609   6.795  19.591  0.00  0.00    +0.000 N 
ATOM      2  C   UNL     1       3.519   6.450  18.601  0.00  0.00    +0.000 A 
ATOM      3  N   UNL     1       3.539   7.413  17.680  0.00  0.00    +0.000 NA
ATOM      4  C   UNL     1       2.641   8.360  18.057  0.00  0.00    +0.000 A 
ATOM      5  C   UNL     1       2.296   9.568  17.428  0.00  0.00    +0.000 A 
ATOM      6  C   UNL     1       1.316  10.383  18.010  0.00  0.00    +0.000 A 
ATOM      7  C   UNL     1       0.689   9.995  19.204  0.00  0.00    +0.000 A 
ATOM      8  C   UNL     1       1.023   8.780  19.829  0.00  0.00    +0.000 A 
ATOM      9  C   UNL     1       2.018   7.994  19.238  0.00  0.00    +0.000 A 
ENDROOT
BRANCH   7  10
ATOM     10  C   UNL     1      -0.363  10.816  19.853  0.00  0.00    +0.000 C 
ATOM     11  O   UNL     1      -1.519  10.770  19.449  0.00  0.00    +0.000 OA
ATOM     12  N   UNL     1       0.017  11.577  20.940  0.00  0.00    +0.000 N 
ATOM     13  H   UNL     1       0.962  11.483  21.293  0.00  0.00    +0.000 HD
BRANCH  12  14
ATOM     14  C   UNL     1      -0.976  12.389  21.680  0.00  0.00    +0.000 C 
ATOM     15  C   UNL     1      -1.369  11.882  23.078  0.00  0.00    +0.000 C 
ATOM     16  O   UNL     1      -1.191  13.216  23.633  0.00  0.00    +0.000 OA
ATOM     17  C   UNL     1      -0.414  13.585  22.461  0.00  0.00    +0.000 C 
ENDBRANCH  12  14
ENDBRANCH   7  10
BRANCH   1  19
ATOM     18  C   UNL     1       1.068   5.198  20.692  0.00  0.00    +0.000 C 
ATOM     19  C   UNL     1       2.286   6.101  20.827  0.00  0.00    +0.000 C 
ENDBRANCH   1  19
BRANCH   2  20
ATOM     20  C   UNL     1       4.389   5.163  18.507  0.00  0.00    +0.000 C 
BRANCH  20  21
ATOM     21  C   UNL     1       3.494   3.906  18.650  0.00  0.00    +0.000 A 
ATOM     22  C   UNL     1       2.315   3.792  17.888  0.00  0.00    +0.000 A 
ATOM     23  C   UNL     1       1.424   2.732  18.072  0.00  0.00    +0.000 A 
ATOM     24  C   UNL     1       1.694   1.751  19.019  0.00  0.00    +0.000 A 
ATOM     25  C   UNL     1       2.866   1.815  19.763  0.00  0.00    +0.000 A 
ATOM     26  C   UNL     1       3.764   2.870  19.571  0.00  0.00    +0.000 A 
ENDBRANCH  20  21
BRANCH  20  27
ATOM     27  C   UNL     1       5.282   5.136  17.249  0.00  0.00    +0.000 A 
ATOM     28  C   UNL     1       4.829   4.497  16.075  0.00  0.00    +0.000 A 
ATOM     29  C   UNL     1       5.656   4.350  14.960  0.00  0.00    +0.000 A 
ATOM     30  C   UNL     1       6.948   4.866  14.979  0.00  0.00    +0.000 A 
ATOM     31  C   UNL     1       7.398   5.557  16.097  0.00  0.00    +0.000 A 
ATOM     32  C   UNL     1       6.571   5.699  17.216  0.00  0.00    +0.000 A 
ENDBRANCH  20  27
BRANCH  20  33
ATOM     33  O   UNL     1       5.312   5.211  19.604  0.00  0.00    +0.000 OA
ATOM     34  H   UNL     1       4.772   5.203  20.404  0.00  0.00    +0.000 HD
ENDBRANCH  20  33
ENDBRANCH   2  20
TORSDOF 7
ENDMDL
MODEL 3
REMARK VINA RESULT:      -7.9      1.741      3.629
REMARK  Name = 
REMARK  8 active torsions:
REMARK  status: ('A' for Active; 'I' for Inactive)
REMARK    1  A    between atoms: C_1  and  C_2
REMARK    2  A    between atoms: C_2  and  N_3
REMARK    3  A    between atoms: C_4  and  C_5
REMARK    4  A    between atoms: C_5  and  O_6
REMARK    5  A    between atoms: C_5  and  C_7
REMARK    6  A    between atoms: C_5  and  C_13
REMARK    7  A    between atoms: C_23  and  C_24
REMARK    8  A    between atoms: N_26  and  C_27
REMARK                            x       y       z     vdW  Elec       q    Type
REMARK                         _______ _______ _______ _____ _____    ______ ____
ROOT
ATOM      1  N   UNL     1       2.810   6.463  19.629  0.00  0.00    +0.000 N 
ATOM      2  C   UNL     1       3.587   6.201  18.509  0.00  0.00    +0.000 A 
ATOM      3  N   UNL     1       3.486   7.228  17.665  0.00  0.00    +0.000 NA
ATOM      4  C   UNL     1       2.643   8.136  18.222  0.00  0.00    +0.000 A 
ATOM      5  C   UNL     1       2.219   9.382  17.733  0.00  0.00    +0.000 A 
ATOM      6  C   UNL     1       1.320  10.142  18.494  0.00  0.00    +0.000 A 
ATOM      7  C   UNL     1       0.851   9.662  19.726  0.00  0.00    +0.000 A 
ATOM      8  C   UNL     1       1.264   8.408  20.212  0.00  0.00    +0.000 A 
ATOM      9  C   UNL     1       2.176   7.678  19.443  0.00  0.00    +0.000 A 
ENDROOT
BRANCH   7  10
ATOM     10  C   UNL     1      -0.110  10.422  20.562  0.00  0.00    +0.000 C 
ATOM     11  O   UNL     1      -0.048  10.362  21.785  0.00  0.00    +0.000 OA
ATOM     12  N   UNL     1      -1.023  11.219  19.900  0.00  0.00    +0.000 N 
ATOM     13  H   UNL     1      -0.948  11.312  18.894  0.00  0.00    +0.000 HD
BRANCH  12  14
ATOM     14  C   UNL     1      -1.987  12.052  20.654  0.00  0.00    +0.000 C 
ATOM     15  C   UNL     1      -1.659  13.551  20.761  0.00  0.00    +0.000 C 
ATOM     16  O   UNL     1      -3.022  13.895  20.384  0.00  0.00    +0.000 OA
ATOM     17  C   UNL     1      -3.203  12.551  19.862  0.00  0.00    +0.000 C 
ENDBRANCH  12  14
ENDBRANCH   7  10
BRANCH   1  19
ATOM     18  C   UNL     1       1.378   4.839  20.834  0.00  0.00    +0.000 C 
ATOM     19  C   UNL     1       2.648   5.678  20.842  0.00  0.00    +0.000 C 
ENDBRANCH   1  19
BRANCH   2  20
ATOM     20  C   UNL     1       4.439   4.934  18.211  0.00  0.00    +0.000 C 
BRANCH  20  21
ATOM     21  C   UNL     1       3.551   3.666  18.290  0.00  0.00    +0.000 A 
ATOM     22  C   UNL     1       2.247   3.686  17.759  0.00  0.00    +0.000 A 
ATOM     23  C   UNL     1       1.377   2.604  17.914  0.00  0.00    +0.000 A 
ATOM     24  C   UNL     1       1.792   1.468  18.597  0.00  0.00    +0.000 A 
ATOM     25  C   UNL     1       3.085   1.402  19.103  0.00  0.00    +0.000 A 
ATOM     26  C   UNL     1       3.960   2.480  18.939  0.00  0.00    +0.000 A 
ENDBRANCH  20  21
BRANCH  20  27
ATOM     27  C   UNL     1       5.229   5.042  16.889  0.00  0.00    +0.000 A 
ATOM     28  C   UNL     1       4.716   4.463  15.709  0.00  0.00    +0.000 A 
ATOM     29  C   UNL     1       5.458   4.439  14.527  0.00  0.00    +0.000 A 
ATOM     30  C   UNL     1       6.720   5.021  14.485  0.00  0.00    +0.000 A 
ATOM     31  C   UNL     1       7.224   5.656  15.615  0.00  0.00    +0.000 A 
ATOM     32  C   UNL     1       6.483   5.676  16.800  0.00  0.00    +0.000 A 
ENDBRANCH  20  27
BRANCH  20  33
ATOM     33  O   UNL     1       5.446   4.868  19.229  0.00  0.00    +0.000 OA
ATOM     34  H   UNL     1       5.603   5.780  19.505  0.00  0.00    +0.000 HD
ENDBRANCH  20  33
ENDBRANCH   2  20
TORSDOF 7
ENDMDL
MODEL 4
REMARK VINA RESULT:      -7.8      2.939      8.924
REMARK  Name = 
REMARK  8 active torsions:
REMARK  status: ('A' for Active; 'I' for Inactive)
REMARK    1  A    between atoms: C_1  and  C_2
REMARK    2  A    between atoms: C_2  and  N_3
REMARK    3  A    between atoms: C_4  and  C_5
REMARK    4  A    between atoms: C_5  and  O_6
REMARK    5  A    between atoms: C_5  and  C_7
REMARK    6  A    between atoms: C_5  and  C_13
REMARK    7  A    between atoms: C_23  and  C_24
REMARK    8  A    between atoms: N_26  and  C_27
REMARK                            x       y       z     vdW  Elec       q    Type
REMARK                         _______ _______ _______ _____ _____    ______ ____
ROOT
ATOM      1  N   UNL     1       0.252   9.662  20.618  0.00  0.00    +0.000 N 
ATOM      2  C   UNL     1       0.055  10.863  19.951  0.00  0.00    +0.000 A 
ATOM      3  N   UNL     1       0.748  10.841  18.812  0.00  0.00    +0.000 NA
ATOM      4  C   UNL     1       1.398   9.650  18.749  0.00  0.00    +0.000 A 
ATOM      5  C   UNL     1       2.248   9.145  17.751  0.00  0.00    +0.000 A 
ATOM      6  C   UNL     1       2.820   7.878  17.922  0.00  0.00    +0.000 A 
ATOM      7  C   UNL     1       2.547   7.125  19.076  0.00  0.00    +0.000 A 
ATOM      8  C   UNL     1       1.706   7.634  20.082  0.00  0.00    +0.000 A 
ATOM      9  C   UNL     1       1.133   8.893  19.879  0.00  0.00    +0.000 A 
ENDROOT
BRANCH   7  10
ATOM     10  C   UNL     1       3.137   5.785  19.308  0.00  0.00    +0.000 C 
ATOM     11  O   UNL     1       4.299   5.679  19.683  0.00  0.00    +0.000 OA
ATOM     12  N   UNL     1       2.309   4.695  19.130  0.00  0.00    +0.000 N 
ATOM     13  H   UNL     1       1.329   4.856  18.930  0.00  0.00    +0.000 HD
BRANCH  12  14
ATOM     14  C   UNL     1       2.799   3.321  19.388  0.00  0.00    +0.000 C 
ATOM     15  C   UNL     1       1.827   2.175  19.059  0.00  0.00    +0.000 C 
ATOM     16  O   UNL     1       2.881   1.460  18.353  0.00  0.00    +0.000 OA
ATOM     17  C   UNL     1       3.646   2.692  18.274  0.00  0.00    +0.000 C 
ENDBRANCH  12  14
ENDBRANCH   7  10
BRANCH   1  19
ATOM     18  C   UNL     1       0.568   9.412  23.063  0.00  0.00    +0.000 C 
ATOM     19  C   UNL     1      -0.339   9.190  21.860  0.00  0.00    +0.000 C 
ENDBRANCH   1  19
BRANCH   2  20
ATOM     20  C   UNL     1      -0.798  12.082  20.406  0.00  0.00    +0.000 C 
BRANCH  20  21
ATOM     21  C   UNL     1      -0.062  13.403  20.066  0.00  0.00    +0.000 A 
ATOM     22  C   UNL     1       0.979  13.862  20.896  0.00  0.00    +0.000 A 
ATOM     23  C   UNL     1       1.587  15.103  20.689  0.00  0.00    +0.000 A 
ATOM     24  C   UNL     1       1.175  15.914  19.639  0.00  0.00    +0.000 A 
ATOM     25  C   UNL     1       0.174  15.475  18.780  0.00  0.00    +0.000 A 
ATOM     26  C   UNL     1      -0.427  14.229  18.980  0.00  0.00    +0.000 A 
ENDBRANCH  20  21
BRANCH  20  27
ATOM     27  C   UNL     1      -2.244  12.035  19.868  0.00  0.00    +0.000 A 
ATOM     28  C   UNL     1      -2.524  11.377  18.652  0.00  0.00    +0.000 A 
ATOM     29  C   UNL     1      -3.796  11.417  18.078  0.00  0.00    +0.000 A 
ATOM     30  C   UNL     1      -4.829  12.090  18.721  0.00  0.00    +0.000 A 
ATOM     31  C   UNL     1      -4.598  12.692  19.953  0.00  0.00    +0.000 A 
ATOM     32  C   UNL     1      -3.322  12.655  20.525  0.00  0.00    +0.000 A 
ENDBRANCH  20  27
BRANCH  20  33
ATOM     33  O   UNL     1      -0.939  11.975  21.829  0.00  0.00    +0.000 OA
ATOM     34  H   UNL     1      -0.040  11.962  22.184  0.00  0.00    +0.000 HD
ENDBRANCH  20  33
ENDBRANCH   2  20
TORSDOF 7
ENDMDL
MODEL 5
REMARK VINA RESULT:      -7.7      2.798      9.044
REMARK  Name = 
REMARK  8 active torsions:
REMARK  status: ('A' for Active; 'I' for Inactive)
REMARK    1  A    between atoms: C_1  and  C_2
REMARK    2  A    between atoms: C_2  and  N_3
REMARK    3  A    between atoms: C_4  and  C_5
REMARK    4  A    between atoms: C_5  and  O_6
REMARK    5  A    between atoms: C_5  and  C_7
REMARK    6  A    between atoms: C_5  and  C_13
REMARK    7  A    between atoms: C_23  and  C_24
REMARK    8  A    between atoms: N_26  and  C_27
REMARK                            x       y       z     vdW  Elec       q    Type
REMARK                         _______ _______ _______ _____ _____    ______ ____
ROOT
ATOM      1  N   UNL     1       0.741  10.107  20.968  0.00  0.00    +0.000 N 
ATOM      2  C   UNL     1       0.378  11.264  20.293  0.00  0.00    +0.000 A 
ATOM      3  N   UNL     1       0.666  11.117  19.000  0.00  0.00    +0.000 NA
ATOM      4  C   UNL     1       1.224   9.889  18.841  0.00  0.00    +0.000 A 
ATOM      5  C   UNL     1       1.690   9.262  17.673  0.00  0.00    +0.000 A 
ATOM      6  C   UNL     1       2.246   7.979  17.766  0.00  0.00    +0.000 A 
ATOM      7  C   UNL     1       2.336   7.332  19.009  0.00  0.00    +0.000 A 
ATOM      8  C   UNL     1       1.881   7.963  20.180  0.00  0.00    +0.000 A 
ATOM      9  C   UNL     1       1.313   9.235  20.058  0.00  0.00    +0.000 A 
ENDROOT
BRANCH   7  10
ATOM     10  C   UNL     1       2.927   5.981  19.160  0.00  0.00    +0.000 C 
ATOM     11  O   UNL     1       4.041   5.846  19.655  0.00  0.00    +0.000 OA
ATOM     12  N   UNL     1       2.151   4.909  18.767  0.00  0.00    +0.000 N 
ATOM     13  H   UNL     1       1.197   5.081  18.473  0.00  0.00    +0.000 HD
BRANCH  12  14
ATOM     14  C   UNL     1       2.640   3.520  18.928  0.00  0.00    +0.000 C 
ATOM     15  C   UNL     1       1.669   2.400  18.517  0.00  0.00    +0.000 C 
ATOM     16  O   UNL     1       2.724   1.737  17.765  0.00  0.00    +0.000 OA
ATOM     17  C   UNL     1       3.490   2.972  17.774  0.00  0.00    +0.000 C 
ENDBRANCH  12  14
ENDBRANCH   7  10
BRANCH   1  19
ATOM     18  C   UNL     1      -0.725   9.005  22.634  0.00  0.00    +0.000 C 
ATOM     19  C   UNL     1       0.568   9.764  22.371  0.00  0.00    +0.000 C 
ENDBRANCH   1  19
BRANCH   2  20
ATOM     20  C   UNL     1      -0.243  12.562  20.886  0.00  0.00    +0.000 C 
BRANCH  20  21
ATOM     21  C   UNL     1       0.351  13.807  20.179  0.00  0.00    +0.000 A 
ATOM     22  C   UNL     1      -0.491  14.676  19.461  0.00  0.00    +0.000 A 
ATOM     23  C   UNL     1       0.020  15.742  18.715  0.00  0.00    +0.000 A 
ATOM     24  C   UNL     1       1.390  15.970  18.676  0.00  0.00    +0.000 A 
ATOM     25  C   UNL     1       2.247  15.151  19.403  0.00  0.00    +0.000 A 
ATOM     26  C   UNL     1       1.734  14.092  20.158  0.00  0.00    +0.000 A 
ENDBRANCH  20  21
BRANCH  20  27
ATOM     27  C   UNL     1      -1.787  12.540  20.885  0.00  0.00    +0.000 A 
ATOM     28  C   UNL     1      -2.488  12.238  19.698  0.00  0.00    +0.000 A 
ATOM     29  C   UNL     1      -3.880  12.325  19.632  0.00  0.00    +0.000 A 
ATOM     30  C   UNL     1      -4.609  12.687  20.760  0.00  0.00    +0.000 A 
ATOM     31  C   UNL     1      -3.949  12.927  21.960  0.00  0.00    +0.000 A 
ATOM     32  C   UNL     1      -2.555  12.844  22.024  0.00  0.00    +0.000 A 
ENDBRANCH  20  27
BRANCH  20  33
ATOM     33  O   UNL     1       0.116  12.592  22.274  0.00  0.00    +0.000 OA
ATOM     34  H   UNL     1       0.321  13.514  22.473  0.00  0.00    +0.000 HD
ENDBRANCH  20  33
ENDBRANCH   2  20
TORSDOF 7
ENDMDL
MODEL 6
REMARK VINA RESULT:      -7.7      3.002      8.965
REMARK  Name = 
REMARK  8 active torsions:
REMARK  status: ('A' for Active; 'I' for Inactive)
REMARK    1  A    between atoms: C_1  and  C_2
REMARK    2  A    between atoms: C_2  and  N_3
REMARK    3  A    between atoms: C_4  and  C_5
REMARK    4  A    between atoms: C_5  and  O_6
REMARK    5  A    between atoms: C_5  and  C_7
REMARK    6  A    between atoms: C_5  and  C_13
REMARK    7  A    between atoms: C_23  and  C_24
REMARK    8  A    between atoms: N_26  and  C_27
REMARK                            x       y       z     vdW  Elec       q    Type
REMARK                         _______ _______ _______ _____ _____    ______ ____
ROOT
ATOM      1  N   UNL     1       0.705  10.506  21.029  0.00  0.00    +0.000 N 
ATOM      2  C   UNL     1       0.404  11.654  20.309  0.00  0.00    +0.000 A 
ATOM      3  N   UNL     1       0.686  11.443  19.024  0.00  0.00    +0.000 NA
ATOM      4  C   UNL     1       1.179  10.182  18.913  0.00  0.00    +0.000 A 
ATOM      5  C   UNL     1       1.614   9.488  17.772  0.00  0.00    +0.000 A 
ATOM      6  C   UNL     1       2.103   8.182  17.916  0.00  0.00    +0.000 A 
ATOM      7  C   UNL     1       2.156   7.580  19.182  0.00  0.00    +0.000 A 
ATOM      8  C   UNL     1       1.733   8.278  20.328  0.00  0.00    +0.000 A 
ATOM      9  C   UNL     1       1.232   9.572  20.155  0.00  0.00    +0.000 A 
ENDROOT
BRANCH   7  10
ATOM     10  C   UNL     1       2.676   6.206  19.387  0.00  0.00    +0.000 C 
ATOM     11  O   UNL     1       3.821   5.923  19.054  0.00  0.00    +0.000 OA
ATOM     12  N   UNL     1       1.835   5.302  20.004  0.00  0.00    +0.000 N 
ATOM     13  H   UNL     1       0.943   5.630  20.357  0.00  0.00    +0.000 HD
BRANCH  12  14
ATOM     14  C   UNL     1       2.287   3.922  20.295  0.00  0.00    +0.000 C 
ATOM     15  C   UNL     1       2.206   3.471  21.763  0.00  0.00    +0.000 C 
ATOM     16  O   UNL     1       1.570   2.224  21.364  0.00  0.00    +0.000 OA
ATOM     17  C   UNL     1       1.245   2.816  20.078  0.00  0.00    +0.000 C 
ENDBRANCH  12  14
ENDBRANCH   7  10
BRANCH   1  19
ATOM     18  C   UNL     1      -0.929   9.865  22.778  0.00  0.00    +0.000 C 
ATOM     19  C   UNL     1       0.511  10.227  22.443  0.00  0.00    +0.000 C 
ENDBRANCH   1  19
BRANCH   2  20
ATOM     20  C   UNL     1      -0.150  13.004  20.850  0.00  0.00    +0.000 C 
BRANCH  20  21
ATOM     21  C   UNL     1       0.371  14.178  19.983  0.00  0.00    +0.000 A 
ATOM     22  C   UNL     1       1.739  14.512  20.000  0.00  0.00    +0.000 A 
ATOM     23  C   UNL     1       2.228  15.633  19.326  0.00  0.00    +0.000 A 
ATOM     24  C   UNL     1       1.360  16.446  18.606  0.00  0.00    +0.000 A 
ATOM     25  C   UNL     1       0.010  16.125  18.539  0.00  0.00    +0.000 A 
ATOM     26  C   UNL     1      -0.478  14.996  19.206  0.00  0.00    +0.000 A 
ENDBRANCH  20  21
BRANCH  20  27
ATOM     27  C   UNL     1      -1.686  12.999  21.008  0.00  0.00    +0.000 A 
ATOM     28  C   UNL     1      -2.276  13.483  22.194  0.00  0.00    +0.000 A 
ATOM     29  C   UNL     1      -3.650  13.384  22.419  0.00  0.00    +0.000 A 
ATOM     30  C   UNL     1      -4.475  12.826  21.448  0.00  0.00    +0.000 A 
ATOM     31  C   UNL     1      -3.930  12.400  20.242  0.00  0.00    +0.000 A 
ATOM     32  C   UNL     1      -2.553  12.495  20.020  0.00  0.00    +0.000 A 
ENDBRANCH  20  27
BRANCH  20  33
ATOM     33  O   UNL     1       0.349  13.147  22.186  0.00  0.00    +0.000 OA
ATOM     34  H   UNL     1      -0.291  12.702  22.756  0.00  0.00    +0.000 HD
ENDBRANCH  20  33
ENDBRANCH   2  20
TORSDOF 7
ENDMDL
MODEL 7
REMARK VINA RESULT:      -7.6      2.912      8.955
REMARK  Name = 
REMARK  8 active torsions:
REMARK  status: ('A' for Active; 'I' for Inactive)
REMARK    1  A    between atoms: C_1  and  C_2
REMARK    2  A    between atoms: C_2  and  N_3
REMARK    3  A    between atoms: C_4  and  C_5
REMARK    4  A    between atoms: C_5  and  O_6
REMARK    5  A    between atoms: C_5  and  C_7
REMARK    6  A    between atoms: C_5  and  C_13
REMARK    7  A    between atoms: C_23  and  C_24
REMARK    8  A    between atoms: N_26  and  C_27
REMARK                            x       y       z     vdW  Elec       q    Type
REMARK                         _______ _______ _______ _____ _____    ______ ____
ROOT
ATOM      1  N   UNL     1       0.244  10.254  20.769  0.00  0.00    +0.000 N 
ATOM      2  C   UNL     1       0.232  11.538  20.241  0.00  0.00    +0.000 A 
ATOM      3  N   UNL     1       0.922  11.540  19.100  0.00  0.00    +0.000 NA
ATOM      4  C   UNL     1       1.390  10.281  18.901  0.00  0.00    +0.000 A 
ATOM      5  C   UNL     1       2.164   9.770  17.846  0.00  0.00    +0.000 A 
ATOM      6  C   UNL     1       2.542   8.421  17.871  0.00  0.00    +0.000 A 
ATOM      7  C   UNL     1       2.153   7.594  18.937  0.00  0.00    +0.000 A 
ATOM      8  C   UNL     1       1.389   8.107  20.000  0.00  0.00    +0.000 A 
ATOM      9  C   UNL     1       1.009   9.451  19.942  0.00  0.00    +0.000 A 
ENDROOT
BRANCH   7  10
ATOM     10  C   UNL     1       2.538   6.164  19.015  0.00  0.00    +0.000 C 
ATOM     11  O   UNL     1       3.215   5.657  18.127  0.00  0.00    +0.000 OA
ATOM     12  N   UNL     1       2.142   5.468  20.139  0.00  0.00    +0.000 N 
ATOM     13  H   UNL     1       1.683   5.974  20.888  0.00  0.00    +0.000 HD
BRANCH  12  14
ATOM     14  C   UNL     1       2.525   4.050  20.326  0.00  0.00    +0.000 C 
ATOM     15  C   UNL     1       2.151   3.412  21.675  0.00  0.00    +0.000 C 
ATOM     16  O   UNL     1       1.605   2.247  20.994  0.00  0.00    +0.000 OA
ATOM     17  C   UNL     1       1.545   3.012  19.760  0.00  0.00    +0.000 C 
ENDBRANCH  12  14
ENDBRANCH   7  10
BRANCH   1  19
ATOM     18  C   UNL     1       0.550   9.477  23.102  0.00  0.00    +0.000 C 
ATOM     19  C   UNL     1      -0.418   9.741  21.958  0.00  0.00    +0.000 C 
ENDBRANCH   1  19
BRANCH   2  20
ATOM     20  C   UNL     1      -0.436  12.811  20.835  0.00  0.00    +0.000 C 
BRANCH  20  21
ATOM     21  C   UNL     1       0.153  14.080  20.170  0.00  0.00    +0.000 A 
ATOM     22  C   UNL     1       1.383  14.602  20.616  0.00  0.00    +0.000 A 
ATOM     23  C   UNL     1       1.889  15.807  20.123  0.00  0.00    +0.000 A 
ATOM     24  C   UNL     1       1.181  16.519  19.161  0.00  0.00    +0.000 A 
ATOM     25  C   UNL     1      -0.019  16.013  18.674  0.00  0.00    +0.000 A 
ATOM     26  C   UNL     1      -0.520  14.802  19.160  0.00  0.00    +0.000 A 
ENDBRANCH  20  21
BRANCH  20  27
ATOM     27  C   UNL     1      -1.978  12.757  20.785  0.00  0.00    +0.000 A 
ATOM     28  C   UNL     1      -2.629  12.233  19.648  0.00  0.00    +0.000 A 
ATOM     29  C   UNL     1      -4.019  12.278  19.519  0.00  0.00    +0.000 A 
ATOM     30  C   UNL     1      -4.795  12.820  20.538  0.00  0.00    +0.000 A 
ATOM     31  C   UNL     1      -4.185  13.284  21.698  0.00  0.00    +0.000 A 
ATOM     32  C   UNL     1      -2.793  13.243  21.824  0.00  0.00    +0.000 A 
ENDBRANCH  20  27
BRANCH  20  33
ATOM     33  O   UNL     1      -0.121  12.824  22.234  0.00  0.00    +0.000 OA
ATOM     34  H   UNL     1      -0.889  12.443  22.681  0.00  0.00    +0.000 HD
ENDBRANCH  20  33
ENDBRANCH   2  20
TORSDOF 7
ENDMDL
MODEL 8
REMARK VINA RESULT:      -7.6      3.048      8.892
REMARK  Name = 
REMARK  8 active torsions:
REMARK  status: ('A' for Active; 'I' for Inactive)
REMARK    1  A    between atoms: C_1  and  C_2
REMARK    2  A    between atoms: C_2  and  N_3
REMARK    3  A    between atoms: C_4  and  C_5
REMARK    4  A    between atoms: C_5  and  O_6
REMARK    5  A    between atoms: C_5  and  C_7
REMARK    6  A    between atoms: C_5  and  C_13
REMARK    7  A    between atoms: C_23  and  C_24
REMARK    8  A    between atoms: N_26  and  C_27
REMARK                            x       y       z     vdW  Elec       q    Type
REMARK                         _______ _______ _______ _____ _____    ______ ____
ROOT
ATOM      1  N   UNL     1       0.081  10.114  20.797  0.00  0.00    +0.000 N 
ATOM      2  C   UNL     1      -0.051  11.333  20.146  0.00  0.00    +0.000 A 
ATOM      3  N   UNL     1       0.644  11.291  19.009  0.00  0.00    +0.000 NA
ATOM      4  C   UNL     1       1.234  10.069  18.933  0.00  0.00    +0.000 A 
ATOM      5  C   UNL     1       2.061   9.536  17.931  0.00  0.00    +0.000 A 
ATOM      6  C   UNL     1       2.568   8.239  18.087  0.00  0.00    +0.000 A 
ATOM      7  C   UNL     1       2.252   7.486  19.229  0.00  0.00    +0.000 A 
ATOM      8  C   UNL     1       1.434   8.023  20.239  0.00  0.00    +0.000 A 
ATOM      9  C   UNL     1       0.926   9.312  20.051  0.00  0.00    +0.000 A 
ENDROOT
BRANCH   7  10
ATOM     10  C   UNL     1       2.773   6.114  19.446  0.00  0.00    +0.000 C 
ATOM     11  O   UNL     1       3.964   5.873  19.284  0.00  0.00    +0.000 OA
ATOM     12  N   UNL     1       1.872   5.161  19.876  0.00  0.00    +0.000 N 
ATOM     13  H   UNL     1       0.927   5.452  20.100  0.00  0.00    +0.000 HD
BRANCH  12  14
ATOM     14  C   UNL     1       2.313   3.778  20.166  0.00  0.00    +0.000 C 
ATOM     15  C   UNL     1       2.360   3.372  21.650  0.00  0.00    +0.000 C 
ATOM     16  O   UNL     1       1.656   2.133  21.351  0.00  0.00    +0.000 OA
ATOM     17  C   UNL     1       1.226   2.697  20.083  0.00  0.00    +0.000 C 
ENDBRANCH  12  14
ENDBRANCH   7  10
BRANCH   1  19
ATOM     18  C   UNL     1       0.459   9.525  23.174  0.00  0.00    +0.000 C 
ATOM     19  C   UNL     1      -0.537   9.657  22.031  0.00  0.00    +0.000 C 
ENDBRANCH   1  19
BRANCH   2  20
ATOM     20  C   UNL     1      -0.843  12.587  20.615  0.00  0.00    +0.000 C 
BRANCH  20  21
ATOM     21  C   UNL     1      -0.087  13.877  20.206  0.00  0.00    +0.000 A 
ATOM     22  C   UNL     1      -0.558  14.658  19.133  0.00  0.00    +0.000 A 
ATOM     23  C   UNL     1       0.159  15.760  18.661  0.00  0.00    +0.000 A 
ATOM     24  C   UNL     1       1.363  16.116  19.256  0.00  0.00    +0.000 A 
ATOM     25  C   UNL     1       1.838  15.387  20.340  0.00  0.00    +0.000 A 
ATOM     26  C   UNL     1       1.116  14.290  20.820  0.00  0.00    +0.000 A 
ENDBRANCH  20  21
BRANCH  20  27
ATOM     27  C   UNL     1      -2.316  12.572  20.151  0.00  0.00    +0.000 A 
ATOM     28  C   UNL     1      -3.302  13.237  20.910  0.00  0.00    +0.000 A 
ATOM     29  C   UNL     1      -4.656  13.144  20.586  0.00  0.00    +0.000 A 
ATOM     30  C   UNL     1      -5.057  12.409  19.475  0.00  0.00    +0.000 A 
ATOM     31  C   UNL     1      -4.102  11.797  18.672  0.00  0.00    +0.000 A 
ATOM     32  C   UNL     1      -2.746  11.887  19.000  0.00  0.00    +0.000 A 
ENDBRANCH  20  27
BRANCH  20  33
ATOM     33  O   UNL     1      -0.914  12.516  22.045  0.00  0.00    +0.000 OA
ATOM     34  H   UNL     1      -0.898  13.430  22.356  0.00  0.00    +0.000 HD
ENDBRANCH  20  33
ENDBRANCH   2  20
TORSDOF 7
ENDMDL
MODEL 9
REMARK VINA RESULT:      -7.5      2.935      8.868
REMARK  Name = 
REMARK  8 active torsions:
REMARK  status: ('A' for Active; 'I' for Inactive)
REMARK    1  A    between atoms: C_1  and  C_2
REMARK    2  A    between atoms: C_2  and  N_3
REMARK    3  A    between atoms: C_4  and  C_5
REMARK    4  A    between atoms: C_5  and  O_6
REMARK    5  A    between atoms: C_5  and  C_7
REMARK    6  A    between atoms: C_5  and  C_13
REMARK    7  A    between atoms: C_23  and  C_24
REMARK    8  A    between atoms: N_26  and  C_27
REMARK                            x       y       z     vdW  Elec       q    Type
REMARK                         _______ _______ _______ _____ _____    ______ ____
ROOT
ATOM      1  N   UNL     1       0.892   9.903  21.002  0.00  0.00    +0.000 N 
ATOM      2  C   UNL     1       0.657  11.009  20.197  0.00  0.00    +0.000 A 
ATOM      3  N   UNL     1       0.980  10.703  18.940  0.00  0.00    +0.000 NA
ATOM      4  C   UNL     1       1.435   9.423  18.933  0.00  0.00    +0.000 A 
ATOM      5  C   UNL     1       1.891   8.641  17.859  0.00  0.00    +0.000 A 
ATOM      6  C   UNL     1       2.330   7.334  18.108  0.00  0.00    +0.000 A 
ATOM      7  C   UNL     1       2.315   6.816  19.412  0.00  0.00    +0.000 A 
ATOM      8  C   UNL     1       1.872   7.603  20.491  0.00  0.00    +0.000 A 
ATOM      9  C   UNL     1       1.421   8.897  20.214  0.00  0.00    +0.000 A 
ENDROOT
BRANCH   7  10
ATOM     10  C   UNL     1       2.781   5.444  19.728  0.00  0.00    +0.000 C 
ATOM     11  O   UNL     1       2.607   4.975  20.847  0.00  0.00    +0.000 OA
ATOM     12  N   UNL     1       3.364   4.728  18.702  0.00  0.00    +0.000 N 
ATOM     13  H   UNL     1       3.375   5.131  17.773  0.00  0.00    +0.000 HD
BRANCH  12  14
ATOM     14  C   UNL     1       3.813   3.333  18.913  0.00  0.00    +0.000 C 
ATOM     15  C   UNL     1       2.710   2.287  19.152  0.00  0.00    +0.000 C 
ATOM     16  O   UNL     1       3.320   1.393  18.179  0.00  0.00    +0.000 OA
ATOM     17  C   UNL     1       4.073   2.514  17.641  0.00  0.00    +0.000 C 
ENDBRANCH  12  14
ENDBRANCH   7  10
BRANCH   1  19
ATOM     18  C   UNL     1      -0.768   9.210  22.706  0.00  0.00    +0.000 C 
ATOM     19  C   UNL     1       0.636   9.726  22.422  0.00  0.00    +0.000 C 
ENDBRANCH   1  19
BRANCH   2  20
ATOM     20  C   UNL     1       0.127  12.408  20.624  0.00  0.00    +0.000 C 
BRANCH  20  21
ATOM     21  C   UNL     1       0.966  13.523  19.950  0.00  0.00    +0.000 A 
ATOM     22  C   UNL     1       2.348  13.613  20.202  0.00  0.00    +0.000 A 
ATOM     23  C   UNL     1       3.116  14.670  19.707  0.00  0.00    +0.000 A 
ATOM     24  C   UNL     1       2.521  15.663  18.938  0.00  0.00    +0.000 A 
ATOM     25  C   UNL     1       1.165  15.585  18.640  0.00  0.00    +0.000 A 
ATOM     26  C   UNL     1       0.399  14.521  19.127  0.00  0.00    +0.000 A 
ENDBRANCH  20  21
BRANCH  20  27
ATOM     27  C   UNL     1      -1.392  12.567  20.398  0.00  0.00    +0.000 A 
ATOM     28  C   UNL     1      -2.171  13.297  21.320  0.00  0.00    +0.000 A 
ATOM     29  C   UNL     1      -3.561  13.360  21.210  0.00  0.00    +0.000 A 
ATOM     30  C   UNL     1      -4.206  12.721  20.156  0.00  0.00    +0.000 A 
ATOM     31  C   UNL     1      -3.458  12.050  19.195  0.00  0.00    +0.000 A 
ATOM     32  C   UNL     1      -2.066  11.983  19.309  0.00  0.00    +0.000 A 
ENDBRANCH  20  27
BRANCH  20  33
ATOM     33  O   UNL     1       0.290  12.492  22.047  0.00  0.00    +0.000 OA
ATOM     34  H   UNL     1       1.134  12.938  22.190  0.00  0.00    +0.000 HD
ENDBRANCH  20  33
ENDBRANCH   2  20
TORSDOF 7
ENDMDL
