MODEL 1
REMARK VINA RESULT:      -9.0      0.000      0.000
REMARK  Name = 
REMARK  10 active torsions:
REMARK  status: ('A' for Active; 'I' for Inactive)
REMARK    1  A    between atoms: C_1  and  C_2
REMARK    2  A    between atoms: N_4  and  C_5
REMARK    3  A    between atoms: C_7  and  N_8
REMARK    4  A    between atoms: C_10  and  C_11
REMARK    5  A    between atoms: C_11  and  O_12
REMARK    6  A    between atoms: O_12  and  C_13
REMARK    7  A    between atoms: C_16  and  S_17
REMARK    8  A    between atoms: S_17  and  N_18
REMARK    9  A    between atoms: C_25  and  C_26
REMARK   10  A    between atoms: C_26  and  O_27
REMARK                            x       y       z     vdW  Elec       q    Type
REMARK                         _______ _______ _______ _____ _____    ______ ____
ROOT
ATOM      1  N   UNL     1       2.344   6.574  19.630  0.00  0.00    +0.000 N 
ATOM      2  C   UNL     1       2.175   7.895  19.352  0.00  0.00    +0.000 A 
ATOM      3  C   UNL     1       1.392   8.352  20.386  0.00  0.00    +0.000 A 
ATOM      4  N   UNL     1       1.102   7.310  21.225  0.00  0.00    +0.000 NA
ATOM      5  N   UNL     1       1.690   6.221  20.746  0.00  0.00    +0.000 NA
ENDROOT
BRANCH   1   8
ATOM      6  C   UNL     1       5.032   4.189  18.911  0.00  0.00    +0.000 C 
ATOM      7  C   UNL     1       4.524   5.472  19.549  0.00  0.00    +0.000 C 
ATOM      8  C   UNL     1       3.170   5.650  18.901  0.00  0.00    +0.000 C 
ATOM      9  C   UNL     1       2.676   4.212  18.810  0.00  0.00    +0.000 C 
ATOM     10  O   UNL     1       3.859   3.381  18.672  0.00  0.00    +0.000 OA
BRANCH   6  14
ATOM     11  C   UNL     1       5.113   4.188  13.944  0.00  0.00    +0.000 C 
ATOM     12  C   UNL     1       5.781   4.374  15.269  0.00  0.00    +0.000 A 
ATOM     13  C   UNL     1       5.166   4.163  16.434  0.00  0.00    +0.000 A 
ATOM     14  N   UNL     1       5.767   4.407  17.651  0.00  0.00    +0.000 N 
ATOM     15  C   UNL     1       7.104   4.781  17.734  0.00  0.00    +0.000 A 
ATOM     16  O   UNL     1       7.700   4.994  18.790  0.00  0.00    +0.000 OA
ATOM     17  N   UNL     1       7.748   4.935  16.534  0.00  0.00    +0.000 N 
ATOM     18  C   UNL     1       7.189   4.832  15.297  0.00  0.00    +0.000 A 
ATOM     19  O   UNL     1       7.800   5.110  14.279  0.00  0.00    +0.000 OA
ATOM     20  H   UNL     1       8.712   5.244  16.569  0.00  0.00    +0.000 HD
ENDBRANCH   6  14
BRANCH   9  21
ATOM     21  C   UNL     1       1.746   4.001  17.609  0.00  0.00    +0.000 C 
BRANCH  21  22
ATOM     22  O   UNL     1       2.045   2.780  16.939  0.00  0.00    +0.000 OA
ATOM     23  H   UNL     1       2.803   2.378  17.401  0.00  0.00    +0.000 HD
ENDBRANCH  21  22
ENDBRANCH   9  21
ENDBRANCH   1   8
BRANCH   3  24
ATOM     24  C   UNL     1       0.929   9.733  20.650  0.00  0.00    +0.000 C 
BRANCH  24  25
ATOM     25  O   UNL     1       0.797  10.468  19.429  0.00  0.00    +0.000 OA
BRANCH  25  26
ATOM     26  C   UNL     1      -0.489  10.783  19.089  0.00  0.00    +0.000 A 
ATOM     27  C   UNL     1      -1.244  11.789  19.699  0.00  0.00    +0.000 A 
ATOM     28  C   UNL     1      -2.559  12.009  19.307  0.00  0.00    +0.000 A 
ATOM     29  C   UNL     1      -3.105  11.227  18.291  0.00  0.00    +0.000 A 
ATOM     30  C   UNL     1      -2.349  10.263  17.629  0.00  0.00    +0.000 A 
ATOM     31  C   UNL     1      -1.033  10.045  18.034  0.00  0.00    +0.000 A 
BRANCH  29  32
ATOM     32  S   UNL     1      -4.789  11.504  17.816  0.00  0.00    +0.000 S 
ATOM     33  O   UNL     1      -4.833  11.819  16.411  0.00  0.00    +0.000 OA
ATOM     34  O   UNL     1      -5.613  10.488  18.429  0.00  0.00    +0.000 OA
BRANCH  32  35
ATOM     35  N   UNL     1      -5.026  12.923  18.655  0.00  0.00    +0.000 NA
ATOM     36  H   UNL     1      -4.238  13.570  18.652  0.00  0.00    +0.000 HD
ATOM     37  H   UNL     1      -5.979  13.277  18.671  0.00  0.00    +0.000 HD
ENDBRANCH  32  35
ENDBRANCH  29  32
ENDBRANCH  25  26
ENDBRANCH  24  25
ENDBRANCH   3  24
TORSDOF 9
ENDMDL
MODEL 2
REMARK VINA RESULT:      -8.8      0.840      1.190
REMARK  Name = 
REMARK  10 active torsions:
REMARK  status: ('A' for Active; 'I' for Inactive)
REMARK    1  A    between atoms: C_1  and  C_2
REMARK    2  A    between atoms: N_4  and  C_5
REMARK    3  A    between atoms: C_7  and  N_8
REMARK    4  A    between atoms: C_10  and  C_11
REMARK    5  A    between atoms: C_11  and  O_12
REMARK    6  A    between atoms: O_12  and  C_13
REMARK    7  A    between atoms: C_16  and  S_17
REMARK    8  A    between atoms: S_17  and  N_18
REMARK    9  A    between atoms: C_25  and  C_26
REMARK   10  A    between atoms: C_26  and  O_27
REMARK                            x       y       z     vdW  Elec       q    Type
REMARK                         _______ _______ _______ _____ _____    ______ ____
ROOT
ATOM      1  N   UNL     1       2.657   6.412  19.079  0.00  0.00    +0.000 N 
ATOM      2  C   UNL     1       2.350   7.709  18.807  0.00  0.00    +0.000 A 
ATOM      3  C   UNL     1       1.582   8.099  19.880  0.00  0.00    +0.000 A 
ATOM      4  N   UNL     1       1.435   7.040  20.735  0.00  0.00    +0.000 NA
ATOM      5  N   UNL     1       2.097   6.007  20.229  0.00  0.00    +0.000 NA
ENDROOT
BRANCH   1   8
ATOM      6  C   UNL     1       5.589   4.412  18.169  0.00  0.00    +0.000 C 
ATOM      7  C   UNL     1       4.961   5.653  18.781  0.00  0.00    +0.000 C 
ATOM      8  C   UNL     1       3.526   5.565  18.309  0.00  0.00    +0.000 C 
ATOM      9  C   UNL     1       3.266   4.066  18.382  0.00  0.00    +0.000 C 
ATOM     10  O   UNL     1       4.543   3.416  18.144  0.00  0.00    +0.000 OA
BRANCH   6  14
ATOM     11  C   UNL     1       5.391   3.475  13.293  0.00  0.00    +0.000 C 
ATOM     12  C   UNL     1       6.014   4.140  14.480  0.00  0.00    +0.000 A 
ATOM     13  C   UNL     1       5.586   3.955  15.730  0.00  0.00    +0.000 A 
ATOM     14  N   UNL     1       6.119   4.627  16.809  0.00  0.00    +0.000 N 
ATOM     15  C   UNL     1       7.224   5.462  16.667  0.00  0.00    +0.000 A 
ATOM     16  O   UNL     1       7.755   6.073  17.594  0.00  0.00    +0.000 OA
ATOM     17  N   UNL     1       7.696   5.599  15.388  0.00  0.00    +0.000 N 
ATOM     18  C   UNL     1       7.150   5.065  14.261  0.00  0.00    +0.000 A 
ATOM     19  O   UNL     1       7.557   5.340  13.145  0.00  0.00    +0.000 OA
ATOM     20  H   UNL     1       8.477   6.231  15.254  0.00  0.00    +0.000 HD
ENDBRANCH   6  14
BRANCH   9  21
ATOM     21  C   UNL     1       2.244   3.611  17.335  0.00  0.00    +0.000 C 
BRANCH  21  22
ATOM     22  O   UNL     1       1.040   4.365  17.432  0.00  0.00    +0.000 OA
ATOM     23  H   UNL     1       1.287   5.306  17.377  0.00  0.00    +0.000 HD
ENDBRANCH  21  22
ENDBRANCH   9  21
ENDBRANCH   1   8
BRANCH   3  24
ATOM     24  C   UNL     1       1.005   9.432  20.164  0.00  0.00    +0.000 C 
BRANCH  24  25
ATOM     25  O   UNL     1       0.784  10.160  18.952  0.00  0.00    +0.000 OA
BRANCH  25  26
ATOM     26  C   UNL     1      -0.529  10.422  18.676  0.00  0.00    +0.000 A 
ATOM     27  C   UNL     1      -1.262   9.801  17.660  0.00  0.00    +0.000 A 
ATOM     28  C   UNL     1      -2.584  10.163  17.432  0.00  0.00    +0.000 A 
ATOM     29  C   UNL     1      -3.171  11.136  18.238  0.00  0.00    +0.000 A 
ATOM     30  C   UNL     1      -2.476  11.721  19.294  0.00  0.00    +0.000 A 
ATOM     31  C   UNL     1      -1.149  11.356  19.511  0.00  0.00    +0.000 A 
BRANCH  29  32
ATOM     32  S   UNL     1      -4.849  11.604  17.923  0.00  0.00    +0.000 S 
ATOM     33  O   UNL     1      -4.951  12.102  16.575  0.00  0.00    +0.000 OA
ATOM     34  O   UNL     1      -5.720  10.583  18.461  0.00  0.00    +0.000 OA
BRANCH  32  35
ATOM     35  N   UNL     1      -4.911  12.915  18.947  0.00  0.00    +0.000 NA
ATOM     36  H   UNL     1      -5.722  12.951  19.563  0.00  0.00    +0.000 HD
ATOM     37  H   UNL     1      -4.014  13.280  19.259  0.00  0.00    +0.000 HD
ENDBRANCH  32  35
ENDBRANCH  29  32
ENDBRANCH  25  26
ENDBRANCH  24  25
ENDBRANCH   3  24
TORSDOF 9
ENDMDL
MODEL 3
REMARK VINA RESULT:      -8.7      0.977      1.070
REMARK  Name = 
REMARK  10 active torsions:
REMARK  status: ('A' for Active; 'I' for Inactive)
REMARK    1  A    between atoms: C_1  and  C_2
REMARK    2  A    between atoms: N_4  and  C_5
REMARK    3  A    between atoms: C_7  and  N_8
REMARK    4  A    between atoms: C_10  and  C_11
REMARK    5  A    between atoms: C_11  and  O_12
REMARK    6  A    between atoms: O_12  and  C_13
REMARK    7  A    between atoms: C_16  and  S_17
REMARK    8  A    between atoms: S_17  and  N_18
REMARK    9  A    between atoms: C_25  and  C_26
REMARK   10  A    between atoms: C_26  and  O_27
REMARK                            x       y       z     vdW  Elec       q    Type
REMARK                         _______ _______ _______ _____ _____    ______ ____
ROOT
ATOM      1  N   UNL     1       2.651   6.533  19.120  0.00  0.00    +0.000 N 
ATOM      2  C   UNL     1       2.265   7.794  18.787  0.00  0.00    +0.000 A 
ATOM      3  C   UNL     1       1.566   8.228  19.889  0.00  0.00    +0.000 A 
ATOM      4  N   UNL     1       1.534   7.228  20.823  0.00  0.00    +0.000 NA
ATOM      5  N   UNL     1       2.201   6.189  20.336  0.00  0.00    +0.000 NA
ENDROOT
BRANCH   1   8
ATOM      6  C   UNL     1       5.518   4.447  18.196  0.00  0.00    +0.000 C 
ATOM      7  C   UNL     1       4.929   5.699  18.824  0.00  0.00    +0.000 C 
ATOM      8  C   UNL     1       3.496   5.668  18.342  0.00  0.00    +0.000 C 
ATOM      9  C   UNL     1       3.184   4.179  18.390  0.00  0.00    +0.000 C 
ATOM     10  O   UNL     1       4.439   3.488  18.149  0.00  0.00    +0.000 OA
BRANCH   6  14
ATOM     11  C   UNL     1       5.376   3.524  13.316  0.00  0.00    +0.000 C 
ATOM     12  C   UNL     1       5.986   4.185  14.512  0.00  0.00    +0.000 A 
ATOM     13  C   UNL     1       5.543   3.997  15.756  0.00  0.00    +0.000 A 
ATOM     14  N   UNL     1       6.065   4.665  16.843  0.00  0.00    +0.000 N 
ATOM     15  C   UNL     1       7.172   5.499  16.716  0.00  0.00    +0.000 A 
ATOM     16  O   UNL     1       7.693   6.106  17.651  0.00  0.00    +0.000 OA
ATOM     17  N   UNL     1       7.660   5.639  15.443  0.00  0.00    +0.000 N 
ATOM     18  C   UNL     1       7.126   5.109  14.309  0.00  0.00    +0.000 A 
ATOM     19  O   UNL     1       7.546   5.386  13.198  0.00  0.00    +0.000 OA
ATOM     20  H   UNL     1       8.443   6.270  15.321  0.00  0.00    +0.000 HD
ENDBRANCH   6  14
BRANCH   9  21
ATOM     21  C   UNL     1       2.153   3.775  17.329  0.00  0.00    +0.000 C 
BRANCH  21  22
ATOM     22  O   UNL     1       0.890   3.491  17.923  0.00  0.00    +0.000 OA
ATOM     23  H   UNL     1       0.785   2.522  17.920  0.00  0.00    +0.000 HD
ENDBRANCH  21  22
ENDBRANCH   9  21
ENDBRANCH   1   8
BRANCH   3  24
ATOM     24  C   UNL     1       0.954   9.554  20.128  0.00  0.00    +0.000 C 
BRANCH  24  25
ATOM     25  O   UNL     1       0.643  10.202  18.890  0.00  0.00    +0.000 OA
BRANCH  25  26
ATOM     26  C   UNL     1      -0.646  10.645  18.785  0.00  0.00    +0.000 A 
ATOM     27  C   UNL     1      -1.182  11.700  19.530  0.00  0.00    +0.000 A 
ATOM     28  C   UNL     1      -2.517  12.053  19.378  0.00  0.00    +0.000 A 
ATOM     29  C   UNL     1      -3.306  11.354  18.466  0.00  0.00    +0.000 A 
ATOM     30  C   UNL     1      -2.773  10.341  17.671  0.00  0.00    +0.000 A 
ATOM     31  C   UNL     1      -1.435   9.990  17.835  0.00  0.00    +0.000 A 
BRANCH  29  32
ATOM     32  S   UNL     1      -5.011  11.800  18.299  0.00  0.00    +0.000 S 
ATOM     33  O   UNL     1      -5.814  10.604  18.339  0.00  0.00    +0.000 OA
ATOM     34  O   UNL     1      -5.268  12.957  19.125  0.00  0.00    +0.000 OA
BRANCH  32  35
ATOM     35  N   UNL     1      -4.954  12.309  16.715  0.00  0.00    +0.000 NA
ATOM     36  H   UNL     1      -5.755  12.855  16.401  0.00  0.00    +0.000 HD
ATOM     37  H   UNL     1      -4.026  12.499  16.341  0.00  0.00    +0.000 HD
ENDBRANCH  32  35
ENDBRANCH  29  32
ENDBRANCH  25  26
ENDBRANCH  24  25
ENDBRANCH   3  24
TORSDOF 9
ENDMDL
MODEL 4
REMARK VINA RESULT:      -8.6      1.987      2.324
REMARK  Name = 
REMARK  10 active torsions:
REMARK  status: ('A' for Active; 'I' for Inactive)
REMARK    1  A    between atoms: C_1  and  C_2
REMARK    2  A    between atoms: N_4  and  C_5
REMARK    3  A    between atoms: C_7  and  N_8
REMARK    4  A    between atoms: C_10  and  C_11
REMARK    5  A    between atoms: C_11  and  O_12
REMARK    6  A    between atoms: O_12  and  C_13
REMARK    7  A    between atoms: C_16  and  S_17
REMARK    8  A    between atoms: S_17  and  N_18
REMARK    9  A    between atoms: C_25  and  C_26
REMARK   10  A    between atoms: C_26  and  O_27
REMARK                            x       y       z     vdW  Elec       q    Type
REMARK                         _______ _______ _______ _____ _____    ______ ____
ROOT
ATOM      1  N   UNL     1       2.372   6.676  19.525  0.00  0.00    +0.000 N 
ATOM      2  C   UNL     1       2.137   7.960  19.141  0.00  0.00    +0.000 A 
ATOM      3  C   UNL     1       1.396   8.483  20.175  0.00  0.00    +0.000 A 
ATOM      4  N   UNL     1       1.193   7.512  21.119  0.00  0.00    +0.000 NA
ATOM      5  N   UNL     1       1.794   6.404  20.704  0.00  0.00    +0.000 NA
ENDROOT
BRANCH   1   8
ATOM      6  C   UNL     1       5.042   4.246  18.901  0.00  0.00    +0.000 C 
ATOM      7  C   UNL     1       4.544   5.557  19.487  0.00  0.00    +0.000 C 
ATOM      8  C   UNL     1       3.190   5.718  18.833  0.00  0.00    +0.000 C 
ATOM      9  C   UNL     1       2.687   4.281  18.801  0.00  0.00    +0.000 C 
ATOM     10  O   UNL     1       3.864   3.436  18.696  0.00  0.00    +0.000 OA
BRANCH   6  14
ATOM     11  C   UNL     1       5.077   4.184  13.933  0.00  0.00    +0.000 C 
ATOM     12  C   UNL     1       5.767   4.347  15.251  0.00  0.00    +0.000 A 
ATOM     13  C   UNL     1       5.152   4.185  16.423  0.00  0.00    +0.000 A 
ATOM     14  N   UNL     1       5.777   4.407  17.631  0.00  0.00    +0.000 N 
ATOM     15  C   UNL     1       7.134   4.705  17.699  0.00  0.00    +0.000 A 
ATOM     16  O   UNL     1       7.751   4.896  18.747  0.00  0.00    +0.000 OA
ATOM     17  N   UNL     1       7.774   4.809  16.492  0.00  0.00    +0.000 N 
ATOM     18  C   UNL     1       7.199   4.724  15.261  0.00  0.00    +0.000 A 
ATOM     19  O   UNL     1       7.816   4.955  14.235  0.00  0.00    +0.000 OA
ATOM     20  H   UNL     1       8.755   5.063  16.515  0.00  0.00    +0.000 HD
ENDBRANCH   6  14
BRANCH   9  21
ATOM     21  C   UNL     1       1.754   4.027  17.612  0.00  0.00    +0.000 C 
BRANCH  21  22
ATOM     22  O   UNL     1       2.002   2.751  17.029  0.00  0.00    +0.000 OA
ATOM     23  H   UNL     1       2.415   2.198  17.717  0.00  0.00    +0.000 HD
ENDBRANCH  21  22
ENDBRANCH   9  21
ENDBRANCH   1   8
BRANCH   3  24
ATOM     24  C   UNL     1       0.896   9.866  20.343  0.00  0.00    +0.000 C 
BRANCH  24  25
ATOM     25  O   UNL     1       0.516  10.109  21.701  0.00  0.00    +0.000 OA
BRANCH  25  26
ATOM     26  C   UNL     1      -0.593  10.894  21.852  0.00  0.00    +0.000 A 
ATOM     27  C   UNL     1      -1.264  11.089  23.063  0.00  0.00    +0.000 A 
ATOM     28  C   UNL     1      -2.407  11.877  23.108  0.00  0.00    +0.000 A 
ATOM     29  C   UNL     1      -2.863  12.481  21.938  0.00  0.00    +0.000 A 
ATOM     30  C   UNL     1      -2.173  12.348  20.735  0.00  0.00    +0.000 A 
ATOM     31  C   UNL     1      -1.032  11.550  20.698  0.00  0.00    +0.000 A 
BRANCH  29  32
ATOM     32  S   UNL     1      -4.334  13.465  22.005  0.00  0.00    +0.000 S 
ATOM     33  O   UNL     1      -5.456  12.610  22.299  0.00  0.00    +0.000 OA
ATOM     34  O   UNL     1      -4.044  14.676  22.738  0.00  0.00    +0.000 OA
BRANCH  32  35
ATOM     35  N   UNL     1      -4.414  13.856  20.388  0.00  0.00    +0.000 NA
ATOM     36  H   UNL     1      -3.854  14.660  20.105  0.00  0.00    +0.000 HD
ATOM     37  H   UNL     1      -4.556  13.079  19.748  0.00  0.00    +0.000 HD
ENDBRANCH  32  35
ENDBRANCH  29  32
ENDBRANCH  25  26
ENDBRANCH  24  25
ENDBRANCH   3  24
TORSDOF 9
ENDMDL
MODEL 5
REMARK VINA RESULT:      -8.5      0.688      1.097
REMARK  Name = 
REMARK  10 active torsions:
REMARK  status: ('A' for Active; 'I' for Inactive)
REMARK    1  A    between atoms: C_1  and  C_2
REMARK    2  A    between atoms: N_4  and  C_5
REMARK    3  A    between atoms: C_7  and  N_8
REMARK    4  A    between atoms: C_10  and  C_11
REMARK    5  A    between atoms: C_11  and  O_12
REMARK    6  A    between atoms: O_12  and  C_13
REMARK    7  A    between atoms: C_16  and  S_17
REMARK    8  A    between atoms: S_17  and  N_18
REMARK    9  A    between atoms: C_25  and  C_26
REMARK   10  A    between atoms: C_26  and  O_27
REMARK                            x       y       z     vdW  Elec       q    Type
REMARK                         _______ _______ _______ _____ _____    ______ ____
ROOT
ATOM      1  N   UNL     1       2.343   6.946  19.294  0.00  0.00    +0.000 N 
ATOM      2  C   UNL     1       1.974   8.119  18.711  0.00  0.00    +0.000 A 
ATOM      3  C   UNL     1       1.301   8.786  19.708  0.00  0.00    +0.000 A 
ATOM      4  N   UNL     1       1.268   8.001  20.830  0.00  0.00    +0.000 NA
ATOM      5  N   UNL     1       1.908   6.871  20.560  0.00  0.00    +0.000 NA
ENDROOT
BRANCH   1   8
ATOM      6  C   UNL     1       4.968   4.414  18.940  0.00  0.00    +0.000 C 
ATOM      7  C   UNL     1       4.485   5.775  19.414  0.00  0.00    +0.000 C 
ATOM      8  C   UNL     1       3.159   5.921  18.701  0.00  0.00    +0.000 C 
ATOM      9  C   UNL     1       2.619   4.498  18.751  0.00  0.00    +0.000 C 
ATOM     10  O   UNL     1       3.776   3.620  18.750  0.00  0.00    +0.000 OA
BRANCH   6  14
ATOM     11  C   UNL     1       5.160   4.079  13.987  0.00  0.00    +0.000 C 
ATOM     12  C   UNL     1       5.815   4.277  15.318  0.00  0.00    +0.000 A 
ATOM     13  C   UNL     1       5.154   4.212  16.474  0.00  0.00    +0.000 A 
ATOM     14  N   UNL     1       5.751   4.467  17.691  0.00  0.00    +0.000 N 
ATOM     15  C   UNL     1       7.119   4.697  17.791  0.00  0.00    +0.000 A 
ATOM     16  O   UNL     1       7.712   4.911  18.848  0.00  0.00    +0.000 OA
ATOM     17  N   UNL     1       7.803   4.701  16.603  0.00  0.00    +0.000 N 
ATOM     18  C   UNL     1       7.265   4.579  15.359  0.00  0.00    +0.000 A 
ATOM     19  O   UNL     1       7.926   4.721  14.344  0.00  0.00    +0.000 OA
ATOM     20  H   UNL     1       8.795   4.904  16.647  0.00  0.00    +0.000 HD
ENDBRANCH   6  14
BRANCH   9  21
ATOM     21  C   UNL     1       1.722   4.183  17.549  0.00  0.00    +0.000 C 
BRANCH  21  22
ATOM     22  O   UNL     1       1.871   2.827  17.140  0.00  0.00    +0.000 OA
ATOM     23  H   UNL     1       2.703   2.771  16.635  0.00  0.00    +0.000 HD
ENDBRANCH  21  22
ENDBRANCH   9  21
ENDBRANCH   1   8
BRANCH   3  24
ATOM     24  C   UNL     1       0.717  10.145  19.675  0.00  0.00    +0.000 C 
BRANCH  24  25
ATOM     25  O   UNL     1       0.192  10.442  18.377  0.00  0.00    +0.000 OA
BRANCH  25  26
ATOM     26  C   UNL     1      -1.159  10.649  18.342  0.00  0.00    +0.000 A 
ATOM     27  C   UNL     1      -2.064   9.845  17.641  0.00  0.00    +0.000 A 
ATOM     28  C   UNL     1      -3.417  10.160  17.635  0.00  0.00    +0.000 A 
ATOM     29  C   UNL     1      -3.859  11.273  18.348  0.00  0.00    +0.000 A 
ATOM     30  C   UNL     1      -2.982  12.049  19.102  0.00  0.00    +0.000 A 
ATOM     31  C   UNL     1      -1.625  11.729  19.096  0.00  0.00    +0.000 A 
BRANCH  29  32
ATOM     32  S   UNL     1      -5.583  11.675  18.314  0.00  0.00    +0.000 S 
ATOM     33  O   UNL     1      -5.798  12.735  17.362  0.00  0.00    +0.000 OA
ATOM     34  O   UNL     1      -6.343  10.446  18.319  0.00  0.00    +0.000 OA
BRANCH  32  35
ATOM     35  N   UNL     1      -5.686  12.342  19.836  0.00  0.00    +0.000 NA
ATOM     36  H   UNL     1      -5.100  11.904  20.547  0.00  0.00    +0.000 HD
ATOM     37  H   UNL     1      -5.876  13.341  19.873  0.00  0.00    +0.000 HD
ENDBRANCH  32  35
ENDBRANCH  29  32
ENDBRANCH  25  26
ENDBRANCH  24  25
ENDBRANCH   3  24
TORSDOF 9
ENDMDL
MODEL 6
REMARK VINA RESULT:      -8.5      2.435      2.823
REMARK  Name = 
REMARK  10 active torsions:
REMARK  status: ('A' for Active; 'I' for Inactive)
REMARK    1  A    between atoms: C_1  and  C_2
REMARK    2  A    between atoms: N_4  and  C_5
REMARK    3  A    between atoms: C_7  and  N_8
REMARK    4  A    between atoms: C_10  and  C_11
REMARK    5  A    between atoms: C_11  and  O_12
REMARK    6  A    between atoms: O_12  and  C_13
REMARK    7  A    between atoms: C_16  and  S_17
REMARK    8  A    between atoms: S_17  and  N_18
REMARK    9  A    between atoms: C_25  and  C_26
REMARK   10  A    between atoms: C_26  and  O_27
REMARK                            x       y       z     vdW  Elec       q    Type
REMARK                         _______ _______ _______ _____ _____    ______ ____
ROOT
ATOM      1  N   UNL     1       2.665   5.959  19.412  0.00  0.00    +0.000 N 
ATOM      2  C   UNL     1       2.635   7.313  19.533  0.00  0.00    +0.000 A 
ATOM      3  C   UNL     1       1.746   7.534  20.559  0.00  0.00    +0.000 A 
ATOM      4  N   UNL     1       1.262   6.332  21.000  0.00  0.00    +0.000 NA
ATOM      5  N   UNL     1       1.832   5.371  20.283  0.00  0.00    +0.000 NA
ENDROOT
BRANCH   1   8
ATOM      6  C   UNL     1       5.553   4.031  18.243  0.00  0.00    +0.000 C 
ATOM      7  C   UNL     1       4.952   5.194  19.015  0.00  0.00    +0.000 C 
ATOM      8  C   UNL     1       3.517   5.201  18.536  0.00  0.00    +0.000 C 
ATOM      9  C   UNL     1       3.223   3.713  18.409  0.00  0.00    +0.000 C 
ATOM     10  O   UNL     1       4.485   3.071  18.086  0.00  0.00    +0.000 OA
BRANCH   6  14
ATOM     11  C   UNL     1       5.538   3.533  13.300  0.00  0.00    +0.000 C 
ATOM     12  C   UNL     1       6.077   4.136  14.558  0.00  0.00    +0.000 A 
ATOM     13  C   UNL     1       5.641   3.802  15.774  0.00  0.00    +0.000 A 
ATOM     14  N   UNL     1       6.092   4.413  16.924  0.00  0.00    +0.000 N 
ATOM     15  C   UNL     1       7.125   5.345  16.889  0.00  0.00    +0.000 A 
ATOM     16  O   UNL     1       7.584   5.910  17.882  0.00  0.00    +0.000 OA
ATOM     17  N   UNL     1       7.612   5.637  15.642  0.00  0.00    +0.000 N 
ATOM     18  C   UNL     1       7.136   5.166  14.457  0.00  0.00    +0.000 A 
ATOM     19  O   UNL     1       7.542   5.575  13.382  0.00  0.00    +0.000 OA
ATOM     20  H   UNL     1       8.339   6.341  15.588  0.00  0.00    +0.000 HD
ENDBRANCH   6  14
BRANCH   9  21
ATOM     21  C   UNL     1       2.194   3.424  17.310  0.00  0.00    +0.000 C 
BRANCH  21  22
ATOM     22  O   UNL     1       1.055   4.270  17.440  0.00  0.00    +0.000 OA
ATOM     23  H   UNL     1       0.545   3.946  18.205  0.00  0.00    +0.000 HD
ENDBRANCH  21  22
ENDBRANCH   9  21
ENDBRANCH   1   8
BRANCH   3  24
ATOM     24  C   UNL     1       1.353   8.820  21.177  0.00  0.00    +0.000 C 
BRANCH  24  25
ATOM     25  O   UNL     1       0.303   9.443  20.429  0.00  0.00    +0.000 OA
BRANCH  25  26
ATOM     26  C   UNL     1      -0.469  10.314  21.147  0.00  0.00    +0.000 A 
ATOM     27  C   UNL     1      -0.647  10.256  22.532  0.00  0.00    +0.000 A 
ATOM     28  C   UNL     1      -1.483  11.166  23.167  0.00  0.00    +0.000 A 
ATOM     29  C   UNL     1      -2.124  12.144  22.409  0.00  0.00    +0.000 A 
ATOM     30  C   UNL     1      -1.909  12.257  21.037  0.00  0.00    +0.000 A 
ATOM     31  C   UNL     1      -1.075  11.335  20.408  0.00  0.00    +0.000 A 
BRANCH  29  32
ATOM     32  S   UNL     1      -3.203  13.285  23.227  0.00  0.00    +0.000 S 
ATOM     33  O   UNL     1      -2.428  14.095  24.133  0.00  0.00    +0.000 OA
ATOM     34  O   UNL     1      -4.117  13.835  22.253  0.00  0.00    +0.000 OA
BRANCH  32  35
ATOM     35  N   UNL     1      -4.043  12.177  24.143  0.00  0.00    +0.000 NA
ATOM     36  H   UNL     1      -4.651  11.548  23.620  0.00  0.00    +0.000 HD
ATOM     37  H   UNL     1      -3.580  11.856  24.990  0.00  0.00    +0.000 HD
ENDBRANCH  32  35
ENDBRANCH  29  32
ENDBRANCH  25  26
ENDBRANCH  24  25
ENDBRANCH   3  24
TORSDOF 9
ENDMDL
MODEL 7
REMARK VINA RESULT:      -8.5      2.386      2.734
REMARK  Name = 
REMARK  10 active torsions:
REMARK  status: ('A' for Active; 'I' for Inactive)
REMARK    1  A    between atoms: C_1  and  C_2
REMARK    2  A    between atoms: N_4  and  C_5
REMARK    3  A    between atoms: C_7  and  N_8
REMARK    4  A    between atoms: C_10  and  C_11
REMARK    5  A    between atoms: C_11  and  O_12
REMARK    6  A    between atoms: O_12  and  C_13
REMARK    7  A    between atoms: C_16  and  S_17
REMARK    8  A    between atoms: S_17  and  N_18
REMARK    9  A    between atoms: C_25  and  C_26
REMARK   10  A    between atoms: C_26  and  O_27
REMARK                            x       y       z     vdW  Elec       q    Type
REMARK                         _______ _______ _______ _____ _____    ______ ____
ROOT
ATOM      1  N   UNL     1       2.402   7.190  19.144  0.00  0.00    +0.000 N 
ATOM      2  C   UNL     1       2.003   8.385  18.631  0.00  0.00    +0.000 A 
ATOM      3  C   UNL     1       1.347   8.991  19.679  0.00  0.00    +0.000 A 
ATOM      4  N   UNL     1       1.353   8.149  20.759  0.00  0.00    +0.000 NA
ATOM      5  N   UNL     1       2.001   7.043  20.415  0.00  0.00    +0.000 NA
ENDROOT
BRANCH   1   8
ATOM      6  C   UNL     1       5.135   4.825  18.540  0.00  0.00    +0.000 C 
ATOM      7  C   UNL     1       4.617   6.161  19.046  0.00  0.00    +0.000 C 
ATOM      8  C   UNL     1       3.216   6.208  18.479  0.00  0.00    +0.000 C 
ATOM      9  C   UNL     1       2.779   4.755  18.604  0.00  0.00    +0.000 C 
ATOM     10  O   UNL     1       3.985   3.953  18.488  0.00  0.00    +0.000 OA
BRANCH   6  14
ATOM     11  C   UNL     1       5.086   3.753  13.688  0.00  0.00    +0.000 C 
ATOM     12  C   UNL     1       5.734   4.355  14.895  0.00  0.00    +0.000 A 
ATOM     13  C   UNL     1       5.207   4.286  16.119  0.00  0.00    +0.000 A 
ATOM     14  N   UNL     1       5.775   4.904  17.212  0.00  0.00    +0.000 N 
ATOM     15  C   UNL     1       7.005   5.548  17.121  0.00  0.00    +0.000 A 
ATOM     16  O   UNL     1       7.570   6.101  18.064  0.00  0.00    +0.000 OA
ATOM     17  N   UNL     1       7.570   5.562  15.873  0.00  0.00    +0.000 N 
ATOM     18  C   UNL     1       7.014   5.081  14.727  0.00  0.00    +0.000 A 
ATOM     19  O   UNL     1       7.527   5.246  13.633  0.00  0.00    +0.000 OA
ATOM     20  H   UNL     1       8.448   6.058  15.774  0.00  0.00    +0.000 HD
ENDBRANCH   6  14
BRANCH   9  21
ATOM     21  C   UNL     1       1.782   4.360  17.509  0.00  0.00    +0.000 C 
BRANCH  21  22
ATOM     22  O   UNL     1       1.097   3.158  17.848  0.00  0.00    +0.000 OA
ATOM     23  H   UNL     1       1.762   2.446  17.865  0.00  0.00    +0.000 HD
ENDBRANCH  21  22
ENDBRANCH   9  21
ENDBRANCH   1   8
BRANCH   3  24
ATOM     24  C   UNL     1       0.745  10.341  19.730  0.00  0.00    +0.000 C 
BRANCH  24  25
ATOM     25  O   UNL     1       0.713  10.833  21.074  0.00  0.00    +0.000 OA
BRANCH  25  26
ATOM     26  C   UNL     1      -0.496  11.335  21.470  0.00  0.00    +0.000 A 
ATOM     27  C   UNL     1      -1.348  12.080  20.650  0.00  0.00    +0.000 A 
ATOM     28  C   UNL     1      -2.542  12.580  21.156  0.00  0.00    +0.000 A 
ATOM     29  C   UNL     1      -2.882  12.315  22.481  0.00  0.00    +0.000 A 
ATOM     30  C   UNL     1      -2.075  11.523  23.294  0.00  0.00    +0.000 A 
ATOM     31  C   UNL     1      -0.877  11.032  22.780  0.00  0.00    +0.000 A 
BRANCH  29  32
ATOM     32  S   UNL     1      -4.396  12.977  23.119  0.00  0.00    +0.000 S 
ATOM     33  O   UNL     1      -4.204  14.371  23.429  0.00  0.00    +0.000 OA
ATOM     34  O   UNL     1      -5.490  12.486  22.313  0.00  0.00    +0.000 OA
BRANCH  32  35
ATOM     35  N   UNL     1      -4.413  12.142  24.560  0.00  0.00    +0.000 NA
ATOM     36  H   UNL     1      -5.261  12.246  25.116  0.00  0.00    +0.000 HD
ATOM     37  H   UNL     1      -3.895  11.267  24.574  0.00  0.00    +0.000 HD
ENDBRANCH  32  35
ENDBRANCH  29  32
ENDBRANCH  25  26
ENDBRANCH  24  25
ENDBRANCH   3  24
TORSDOF 9
ENDMDL
MODEL 8
REMARK VINA RESULT:      -8.4      2.114      2.547
REMARK  Name = 
REMARK  10 active torsions:
REMARK  status: ('A' for Active; 'I' for Inactive)
REMARK    1  A    between atoms: C_1  and  C_2
REMARK    2  A    between atoms: N_4  and  C_5
REMARK    3  A    between atoms: C_7  and  N_8
REMARK    4  A    between atoms: C_10  and  C_11
REMARK    5  A    between atoms: C_11  and  O_12
REMARK    6  A    between atoms: O_12  and  C_13
REMARK    7  A    between atoms: C_16  and  S_17
REMARK    8  A    between atoms: S_17  and  N_18
REMARK    9  A    between atoms: C_25  and  C_26
REMARK   10  A    between atoms: C_26  and  O_27
REMARK                            x       y       z     vdW  Elec       q    Type
REMARK                         _______ _______ _______ _____ _____    ______ ____
ROOT
ATOM      1  N   UNL     1       2.503   7.114  19.409  0.00  0.00    +0.000 N 
ATOM      2  C   UNL     1       2.012   7.104  20.678  0.00  0.00    +0.000 A 
ATOM      3  C   UNL     1       1.291   8.272  20.763  0.00  0.00    +0.000 A 
ATOM      4  N   UNL     1       1.387   8.946  19.575  0.00  0.00    +0.000 NA
ATOM      5  N   UNL     1       2.138   8.225  18.752  0.00  0.00    +0.000 NA
ENDROOT
BRANCH   1   8
ATOM      6  C   UNL     1       4.993   4.467  18.945  0.00  0.00    +0.000 C 
ATOM      7  C   UNL     1       4.588   5.841  19.453  0.00  0.00    +0.000 C 
ATOM      8  C   UNL     1       3.253   6.062  18.778  0.00  0.00    +0.000 C 
ATOM      9  C   UNL     1       2.647   4.666  18.820  0.00  0.00    +0.000 C 
ATOM     10  O   UNL     1       3.760   3.734  18.774  0.00  0.00    +0.000 OA
BRANCH   6  14
ATOM     11  C   UNL     1       5.050   4.148  13.988  0.00  0.00    +0.000 C 
ATOM     12  C   UNL     1       5.743   4.323  15.302  0.00  0.00    +0.000 A 
ATOM     13  C   UNL     1       5.111   4.270  16.475  0.00  0.00    +0.000 A 
ATOM     14  N   UNL     1       5.745   4.503  17.676  0.00  0.00    +0.000 N 
ATOM     15  C   UNL     1       7.121   4.696  17.742  0.00  0.00    +0.000 A 
ATOM     16  O   UNL     1       7.746   4.890  18.785  0.00  0.00    +0.000 OA
ATOM     17  N   UNL     1       7.774   4.687  16.537  0.00  0.00    +0.000 N 
ATOM     18  C   UNL     1       7.201   4.585  15.307  0.00  0.00    +0.000 A 
ATOM     19  O   UNL     1       7.840   4.713  14.276  0.00  0.00    +0.000 OA
ATOM     20  H   UNL     1       8.772   4.863  16.557  0.00  0.00    +0.000 HD
ENDBRANCH   6  14
BRANCH   9  21
ATOM     21  C   UNL     1       1.705   4.415  17.637  0.00  0.00    +0.000 C 
BRANCH  21  22
ATOM     22  O   UNL     1       1.495   3.021  17.436  0.00  0.00    +0.000 OA
ATOM     23  H   UNL     1       0.887   2.719  18.136  0.00  0.00    +0.000 HD
ENDBRANCH  21  22
ENDBRANCH   9  21
ENDBRANCH   1   8
BRANCH   3  24
ATOM     24  C   UNL     1       0.482   8.775  21.895  0.00  0.00    +0.000 C 
BRANCH  24  25
ATOM     25  O   UNL     1       0.672  10.182  22.071  0.00  0.00    +0.000 OA
BRANCH  25  26
ATOM     26  C   UNL     1      -0.468  10.930  21.963  0.00  0.00    +0.000 A 
ATOM     27  C   UNL     1      -0.912  11.528  20.780  0.00  0.00    +0.000 A 
ATOM     28  C   UNL     1      -2.066  12.302  20.780  0.00  0.00    +0.000 A 
ATOM     29  C   UNL     1      -2.780  12.458  21.966  0.00  0.00    +0.000 A 
ATOM     30  C   UNL     1      -2.388  11.819  23.140  0.00  0.00    +0.000 A 
ATOM     31  C   UNL     1      -1.225  11.050  23.132  0.00  0.00    +0.000 A 
BRANCH  29  32
ATOM     32  S   UNL     1      -4.237  13.464  21.956  0.00  0.00    +0.000 S 
ATOM     33  O   UNL     1      -5.382  12.633  22.231  0.00  0.00    +0.000 OA
ATOM     34  O   UNL     1      -3.955  14.689  22.669  0.00  0.00    +0.000 OA
BRANCH  32  35
ATOM     35  N   UNL     1      -4.254  13.815  20.329  0.00  0.00    +0.000 NA
ATOM     36  H   UNL     1      -4.595  14.744  20.085  0.00  0.00    +0.000 HD
ATOM     37  H   UNL     1      -3.527  13.373  19.770  0.00  0.00    +0.000 HD
ENDBRANCH  32  35
ENDBRANCH  29  32
ENDBRANCH  25  26
ENDBRANCH  24  25
ENDBRANCH   3  24
TORSDOF 9
ENDMDL
MODEL 9
REMARK VINA RESULT:      -8.3      3.152      3.806
REMARK  Name = 
REMARK  10 active torsions:
REMARK  status: ('A' for Active; 'I' for Inactive)
REMARK    1  A    between atoms: C_1  and  C_2
REMARK    2  A    between atoms: N_4  and  C_5
REMARK    3  A    between atoms: C_7  and  N_8
REMARK    4  A    between atoms: C_10  and  C_11
REMARK    5  A    between atoms: C_11  and  O_12
REMARK    6  A    between atoms: O_12  and  C_13
REMARK    7  A    between atoms: C_16  and  S_17
REMARK    8  A    between atoms: S_17  and  N_18
REMARK    9  A    between atoms: C_25  and  C_26
REMARK   10  A    between atoms: C_26  and  O_27
REMARK                            x       y       z     vdW  Elec       q    Type
REMARK                         _______ _______ _______ _____ _____    ______ ____
ROOT
ATOM      1  N   UNL     1       2.556   5.995  19.468  0.00  0.00    +0.000 N 
ATOM      2  C   UNL     1       2.425   7.349  19.486  0.00  0.00    +0.000 A 
ATOM      3  C   UNL     1       1.551   7.583  20.522  0.00  0.00    +0.000 A 
ATOM      4  N   UNL     1       1.173   6.386  21.069  0.00  0.00    +0.000 NA
ATOM      5  N   UNL     1       1.795   5.417  20.409  0.00  0.00    +0.000 NA
ENDROOT
BRANCH   1   8
ATOM      6  C   UNL     1       5.506   4.108  18.390  0.00  0.00    +0.000 C 
ATOM      7  C   UNL     1       4.866   5.275  19.124  0.00  0.00    +0.000 C 
ATOM      8  C   UNL     1       3.439   5.237  18.624  0.00  0.00    +0.000 C 
ATOM      9  C   UNL     1       3.181   3.739  18.530  0.00  0.00    +0.000 C 
ATOM     10  O   UNL     1       4.463   3.120  18.242  0.00  0.00    +0.000 OA
BRANCH   6  14
ATOM     11  C   UNL     1       5.498   3.573  13.451  0.00  0.00    +0.000 C 
ATOM     12  C   UNL     1       6.044   4.175  14.707  0.00  0.00    +0.000 A 
ATOM     13  C   UNL     1       5.597   3.859  15.923  0.00  0.00    +0.000 A 
ATOM     14  N   UNL     1       6.056   4.470  17.070  0.00  0.00    +0.000 N 
ATOM     15  C   UNL     1       7.106   5.383  17.032  0.00  0.00    +0.000 A 
ATOM     16  O   UNL     1       7.571   5.947  18.022  0.00  0.00    +0.000 OA
ATOM     17  N   UNL     1       7.602   5.657  15.784  0.00  0.00    +0.000 N 
ATOM     18  C   UNL     1       7.121   5.186  14.601  0.00  0.00    +0.000 A 
ATOM     19  O   UNL     1       7.538   5.578  13.524  0.00  0.00    +0.000 OA
ATOM     20  H   UNL     1       8.342   6.347  15.727  0.00  0.00    +0.000 HD
ENDBRANCH   6  14
BRANCH   9  21
ATOM     21  C   UNL     1       2.176   3.399  17.424  0.00  0.00    +0.000 C 
BRANCH  21  22
ATOM     22  O   UNL     1       1.081   4.310  17.429  0.00  0.00    +0.000 OA
ATOM     23  H   UNL     1       0.647   4.229  18.298  0.00  0.00    +0.000 HD
ENDBRANCH  21  22
ENDBRANCH   9  21
ENDBRANCH   1   8
BRANCH   3  24
ATOM     24  C   UNL     1       1.077   8.880  21.052  0.00  0.00    +0.000 C 
BRANCH  24  25
ATOM     25  O   UNL     1       0.414   9.635  20.033  0.00  0.00    +0.000 OA
BRANCH  25  26
ATOM     26  C   UNL     1       1.050  10.791  19.674  0.00  0.00    +0.000 A 
ATOM     27  C   UNL     1       1.675  10.998  18.441  0.00  0.00    +0.000 A 
ATOM     28  C   UNL     1       2.329  12.197  18.183  0.00  0.00    +0.000 A 
ATOM     29  C   UNL     1       2.337  13.190  19.160  0.00  0.00    +0.000 A 
ATOM     30  C   UNL     1       1.667  13.025  20.370  0.00  0.00    +0.000 A 
ATOM     31  C   UNL     1       1.020  11.817  20.622  0.00  0.00    +0.000 A 
BRANCH  29  32
ATOM     32  S   UNL     1       3.192  14.705  18.827  0.00  0.00    +0.000 S 
ATOM     33  O   UNL     1       4.374  14.415  18.054  0.00  0.00    +0.000 OA
ATOM     34  O   UNL     1       2.223  15.708  18.450  0.00  0.00    +0.000 OA
BRANCH  32  35
ATOM     35  N   UNL     1       3.682  15.032  20.384  0.00  0.00    +0.000 NA
ATOM     36  H   UNL     1       3.276  14.435  21.105  0.00  0.00    +0.000 HD
ATOM     37  H   UNL     1       4.628  15.390  20.488  0.00  0.00    +0.000 HD
ENDBRANCH  32  35
ENDBRANCH  29  32
ENDBRANCH  25  26
ENDBRANCH  24  25
ENDBRANCH   3  24
TORSDOF 9
ENDMDL
