MODEL 1
REMARK VINA RESULT:      -8.5      0.000      0.000
REMARK  Name = 
REMARK  3 active torsions:
REMARK  status: ('A' for Active; 'I' for Inactive)
REMARK    1  A    between atoms: C_6  and  N_7
REMARK    2  A    between atoms: N_7  and  C_8
REMARK    3  A    between atoms: C_16  and  N_17
REMARK                            x       y       z     vdW  Elec       q    Type
REMARK                         _______ _______ _______ _____ _____    ______ ____
ROOT
ATOM      1  N   UNL     1       4.773   3.282  16.680  0.00  0.00    +0.000 N 
ATOM      2  H   UNL     1       5.241   2.787  17.433  0.00  0.00    +0.000 HD
ENDROOT
BRANCH   1   8
ATOM      3  N   UNL     1       7.822   6.839  17.177  0.00  0.00    +0.000 N 
ATOM      4  C   UNL     1       7.205   5.900  16.377  0.00  0.00    +0.000 A 
ATOM      5  N   UNL     1       7.626   5.836  15.115  0.00  0.00    +0.000 NA
ATOM      6  C   UNL     1       7.008   4.953  14.310  0.00  0.00    +0.000 A 
ATOM      7  C   UNL     1       5.974   4.140  14.759  0.00  0.00    +0.000 A 
ATOM      8  C   UNL     1       5.679   4.211  16.118  0.00  0.00    +0.000 A 
ATOM      9  N   UNL     1       6.284   5.101  16.926  0.00  0.00    +0.000 NA
ATOM     10  C   UNL     1       5.201   3.266  13.802  0.00  0.00    +0.000 C 
ATOM     11  C   UNL     1       5.509   3.540  12.323  0.00  0.00    +0.000 C 
ATOM     12  C   UNL     1       7.008   3.708  12.114  0.00  0.00    +0.000 C 
ATOM     13  C   UNL     1       7.483   4.938  12.880  0.00  0.00    +0.000 C 
ATOM     14  H   UNL     1       8.704   7.092  16.756  0.00  0.00    +0.000 HD
ATOM     15  H   UNL     1       7.839   6.519  18.135  0.00  0.00    +0.000 HD
ENDBRANCH   1   8
BRANCH   1  16
ATOM     16  C   UNL     1       3.445   3.807  17.071  0.00  0.00    +0.000 C 
ATOM     17  C   UNL     1       2.526   2.642  17.538  0.00  0.00    +0.000 C 
ATOM     18  C   UNL     1       2.270   2.921  18.986  0.00  0.00    +0.000 A 
ATOM     19  C   UNL     1       1.511   2.159  19.867  0.00  0.00    +0.000 A 
ATOM     20  C   UNL     1       1.347   2.608  21.179  0.00  0.00    +0.000 A 
ATOM     21  C   UNL     1       1.942   3.806  21.597  0.00  0.00    +0.000 A 
ATOM     22  C   UNL     1       2.680   4.579  20.698  0.00  0.00    +0.000 A 
ATOM     23  C   UNL     1       2.829   4.133  19.387  0.00  0.00    +0.000 A 
ATOM     24  C   UNL     1       3.457   4.869  18.232  0.00  0.00    +0.000 C 
BRANCH  24  25
ATOM     25  N   UNL     1       2.636   6.046  17.904  0.00  0.00    +0.000 NA
ATOM     26  H   UNL     1       2.830   6.775  18.592  0.00  0.00    +0.000 HD
ATOM     27  H   UNL     1       1.660   5.786  18.050  0.00  0.00    +0.000 HD
ENDBRANCH  24  25
ENDBRANCH   1  16
TORSDOF 3
ENDMDL
MODEL 2
REMARK VINA RESULT:      -8.3      0.930      1.837
REMARK  Name = 
REMARK  3 active torsions:
REMARK  status: ('A' for Active; 'I' for Inactive)
REMARK    1  A    between atoms: C_6  and  N_7
REMARK    2  A    between atoms: N_7  and  C_8
REMARK    3  A    between atoms: C_16  and  N_17
REMARK                            x       y       z     vdW  Elec       q    Type
REMARK                         _______ _______ _______ _____ _____    ______ ____
ROOT
ATOM      1  N   UNL     1       4.248   3.753  16.214  0.00  0.00    +0.000 N 
ATOM      2  H   UNL     1       3.919   3.110  15.500  0.00  0.00    +0.000 HD
ENDROOT
BRANCH   1   8
ATOM      3  N   UNL     1       7.764   6.831  16.813  0.00  0.00    +0.000 N 
ATOM      4  C   UNL     1       7.091   5.930  16.015  0.00  0.00    +0.000 A 
ATOM      5  N   UNL     1       7.627   5.689  14.820  0.00  0.00    +0.000 NA
ATOM      6  C   UNL     1       6.962   4.843  14.012  0.00  0.00    +0.000 A 
ATOM      7  C   UNL     1       5.768   4.241  14.393  0.00  0.00    +0.000 A 
ATOM      8  C   UNL     1       5.346   4.478  15.698  0.00  0.00    +0.000 A 
ATOM      9  N   UNL     1       5.999   5.333  16.507  0.00  0.00    +0.000 NA
ATOM     10  C   UNL     1       4.970   3.414  13.416  0.00  0.00    +0.000 C 
ATOM     11  C   UNL     1       5.473   3.504  11.968  0.00  0.00    +0.000 C 
ATOM     12  C   UNL     1       6.994   3.421  11.927  0.00  0.00    +0.000 C 
ATOM     13  C   UNL     1       7.577   4.627  12.653  0.00  0.00    +0.000 C 
ATOM     14  H   UNL     1       8.715   6.907  16.483  0.00  0.00    +0.000 HD
ATOM     15  H   UNL     1       7.626   6.599  17.787  0.00  0.00    +0.000 HD
ENDBRANCH   1   8
BRANCH   1  16
ATOM     16  C   UNL     1       4.442   3.106  17.531  0.00  0.00    +0.000 C 
ATOM     17  C   UNL     1       4.425   4.175  18.660  0.00  0.00    +0.000 C 
ATOM     18  C   UNL     1       3.214   3.844  19.475  0.00  0.00    +0.000 A 
ATOM     19  C   UNL     1       2.747   4.518  20.598  0.00  0.00    +0.000 A 
ATOM     20  C   UNL     1       1.617   4.028  21.257  0.00  0.00    +0.000 A 
ATOM     21  C   UNL     1       0.967   2.878  20.789  0.00  0.00    +0.000 A 
ATOM     22  C   UNL     1       1.459   2.192  19.677  0.00  0.00    +0.000 A 
ATOM     23  C   UNL     1       2.594   2.677  19.031  0.00  0.00    +0.000 A 
ATOM     24  C   UNL     1       3.365   2.024  17.914  0.00  0.00    +0.000 C 
BRANCH  24  25
ATOM     25  N   UNL     1       3.986   0.786  18.414  0.00  0.00    +0.000 NA
ATOM     26  H   UNL     1       4.394   0.289  17.621  0.00  0.00    +0.000 HD
ATOM     27  H   UNL     1       3.235   0.187  18.755  0.00  0.00    +0.000 HD
ENDBRANCH  24  25
ENDBRANCH   1  16
TORSDOF 3
ENDMDL
MODEL 3
REMARK VINA RESULT:      -8.2      2.224      7.082
REMARK  Name = 
REMARK  3 active torsions:
REMARK  status: ('A' for Active; 'I' for Inactive)
REMARK    1  A    between atoms: C_6  and  N_7
REMARK    2  A    between atoms: N_7  and  C_8
REMARK    3  A    between atoms: C_16  and  N_17
REMARK                            x       y       z     vdW  Elec       q    Type
REMARK                         _______ _______ _______ _____ _____    ______ ____
ROOT
ATOM      1  N   UNL     1       4.547   5.830  17.191  0.00  0.00    +0.000 N 
ATOM      2  H   UNL     1       5.055   6.694  17.352  0.00  0.00    +0.000 HD
ENDROOT
BRANCH   1   8
ATOM      3  N   UNL     1       3.031   3.005  20.643  0.00  0.00    +0.000 N 
ATOM      4  C   UNL     1       3.016   4.231  20.012  0.00  0.00    +0.000 A 
ATOM      5  N   UNL     1       2.290   5.182  20.596  0.00  0.00    +0.000 NA
ATOM      6  C   UNL     1       2.230   6.374  19.973  0.00  0.00    +0.000 A 
ATOM      7  C   UNL     1       2.890   6.615  18.773  0.00  0.00    +0.000 A 
ATOM      8  C   UNL     1       3.703   5.589  18.299  0.00  0.00    +0.000 A 
ATOM      9  N   UNL     1       3.757   4.391  18.910  0.00  0.00    +0.000 NA
ATOM     10  C   UNL     1       2.688   7.908  18.023  0.00  0.00    +0.000 C 
ATOM     11  C   UNL     1       1.552   8.780  18.579  0.00  0.00    +0.000 C 
ATOM     12  C   UNL     1       1.607   8.816  20.101  0.00  0.00    +0.000 C 
ATOM     13  C   UNL     1       1.366   7.412  20.642  0.00  0.00    +0.000 C 
ATOM     14  H   UNL     1       2.753   3.133  21.605  0.00  0.00    +0.000 HD
ATOM     15  H   UNL     1       3.913   2.540  20.471  0.00  0.00    +0.000 HD
ENDBRANCH   1   8
BRANCH   1  16
ATOM     16  C   UNL     1       5.424   4.713  16.772  0.00  0.00    +0.000 C 
ATOM     17  C   UNL     1       4.757   3.915  15.616  0.00  0.00    +0.000 C 
ATOM     18  C   UNL     1       5.663   4.124  14.442  0.00  0.00    +0.000 A 
ATOM     19  C   UNL     1       5.498   3.626  13.155  0.00  0.00    +0.000 A 
ATOM     20  C   UNL     1       6.480   3.891  12.197  0.00  0.00    +0.000 A 
ATOM     21  C   UNL     1       7.610   4.650  12.533  0.00  0.00    +0.000 A 
ATOM     22  C   UNL     1       7.780   5.123  13.836  0.00  0.00    +0.000 A 
ATOM     23  C   UNL     1       6.804   4.844  14.790  0.00  0.00    +0.000 A 
ATOM     24  C   UNL     1       6.854   5.134  16.268  0.00  0.00    +0.000 C 
BRANCH  24  25
ATOM     25  N   UNL     1       7.913   4.319  16.885  0.00  0.00    +0.000 NA
ATOM     26  H   UNL     1       8.081   3.506  16.290  0.00  0.00    +0.000 HD
ATOM     27  H   UNL     1       7.540   3.946  17.758  0.00  0.00    +0.000 HD
ENDBRANCH  24  25
ENDBRANCH   1  16
TORSDOF 3
ENDMDL
MODEL 4
REMARK VINA RESULT:      -8.0      1.835      7.192
REMARK  Name = 
REMARK  3 active torsions:
REMARK  status: ('A' for Active; 'I' for Inactive)
REMARK    1  A    between atoms: C_6  and  N_7
REMARK    2  A    between atoms: N_7  and  C_8
REMARK    3  A    between atoms: C_16  and  N_17
REMARK                            x       y       z     vdW  Elec       q    Type
REMARK                         _______ _______ _______ _____ _____    ______ ____
ROOT
ATOM      1  N   UNL     1       4.321   5.318  16.826  0.00  0.00    +0.000 N 
ATOM      2  H   UNL     1       4.645   6.224  17.150  0.00  0.00    +0.000 HD
ENDROOT
BRANCH   1   8
ATOM      3  N   UNL     1       2.128   1.673  18.853  0.00  0.00    +0.000 N 
ATOM      4  C   UNL     1       2.373   3.029  18.782  0.00  0.00    +0.000 A 
ATOM      5  N   UNL     1       1.804   3.778  19.725  0.00  0.00    +0.000 NA
ATOM      6  C   UNL     1       1.997   5.107  19.648  0.00  0.00    +0.000 A 
ATOM      7  C   UNL     1       2.754   5.687  18.636  0.00  0.00    +0.000 A 
ATOM      8  C   UNL     1       3.389   4.810  17.760  0.00  0.00    +0.000 A 
ATOM      9  N   UNL     1       3.188   3.481  17.823  0.00  0.00    +0.000 NA
ATOM     10  C   UNL     1       2.834   7.186  18.489  0.00  0.00    +0.000 C 
ATOM     11  C   UNL     1       1.850   7.953  19.385  0.00  0.00    +0.000 C 
ATOM     12  C   UNL     1       1.829   7.354  20.785  0.00  0.00    +0.000 C 
ATOM     13  C   UNL     1       1.305   5.925  20.708  0.00  0.00    +0.000 C 
ATOM     14  H   UNL     1       1.828   1.448  19.789  0.00  0.00    +0.000 HD
ATOM     15  H   UNL     1       2.917   1.161  18.482  0.00  0.00    +0.000 HD
ENDBRANCH   1   8
BRANCH   1  16
ATOM     16  C   UNL     1       5.426   4.413  16.436  0.00  0.00    +0.000 C 
ATOM     17  C   UNL     1       5.004   3.548  15.215  0.00  0.00    +0.000 C 
ATOM     18  C   UNL     1       5.921   3.979  14.113  0.00  0.00    +0.000 A 
ATOM     19  C   UNL     1       5.938   3.512  12.804  0.00  0.00    +0.000 A 
ATOM     20  C   UNL     1       6.905   4.004  11.924  0.00  0.00    +0.000 A 
ATOM     21  C   UNL     1       7.838   4.956  12.358  0.00  0.00    +0.000 A 
ATOM     22  C   UNL     1       7.830   5.399  13.682  0.00  0.00    +0.000 A 
ATOM     23  C   UNL     1       6.872   4.895  14.558  0.00  0.00    +0.000 A 
ATOM     24  C   UNL     1       6.773   5.127  16.044  0.00  0.00    +0.000 C 
BRANCH  24  25
ATOM     25  N   UNL     1       7.933   4.512  16.709  0.00  0.00    +0.000 NA
ATOM     26  H   UNL     1       8.513   5.257  17.098  0.00  0.00    +0.000 HD
ATOM     27  H   UNL     1       8.501   4.074  15.984  0.00  0.00    +0.000 HD
ENDBRANCH  24  25
ENDBRANCH   1  16
TORSDOF 3
ENDMDL
MODEL 5
REMARK VINA RESULT:      -7.6      3.917      6.636
REMARK  Name = 
REMARK  3 active torsions:
REMARK  status: ('A' for Active; 'I' for Inactive)
REMARK    1  A    between atoms: C_6  and  N_7
REMARK    2  A    between atoms: N_7  and  C_8
REMARK    3  A    between atoms: C_16  and  N_17
REMARK                            x       y       z     vdW  Elec       q    Type
REMARK                         _______ _______ _______ _____ _____    ______ ____
ROOT
ATOM      1  N   UNL     1       2.192   6.493  18.348  0.00  0.00    +0.000 N 
ATOM      2  H   UNL     1       1.233   6.164  18.392  0.00  0.00    +0.000 HD
ENDROOT
BRANCH   1   8
ATOM      3  N   UNL     1       6.311   4.307  17.672  0.00  0.00    +0.000 N 
ATOM      4  C   UNL     1       5.085   4.375  18.302  0.00  0.00    +0.000 A 
ATOM      5  N   UNL     1       4.852   3.452  19.232  0.00  0.00    +0.000 NA
ATOM      6  C   UNL     1       3.647   3.477  19.829  0.00  0.00    +0.000 A 
ATOM      7  C   UNL     1       2.678   4.418  19.498  0.00  0.00    +0.000 A 
ATOM      8  C   UNL     1       3.057   5.401  18.588  0.00  0.00    +0.000 A 
ATOM      9  N   UNL     1       4.256   5.373  17.978  0.00  0.00    +0.000 NA
ATOM     10  C   UNL     1       1.286   4.334  20.075  0.00  0.00    +0.000 C 
ATOM     11  C   UNL     1       1.006   3.031  20.837  0.00  0.00    +0.000 C 
ATOM     12  C   UNL     1       2.190   2.669  21.725  0.00  0.00    +0.000 C 
ATOM     13  C   UNL     1       3.404   2.392  20.846  0.00  0.00    +0.000 C 
ATOM     14  H   UNL     1       6.942   3.771  18.249  0.00  0.00    +0.000 HD
ATOM     15  H   UNL     1       6.607   5.234  17.394  0.00  0.00    +0.000 HD
ENDBRANCH   1   8
BRANCH   1  16
ATOM     16  C   UNL     1       2.424   7.710  19.159  0.00  0.00    +0.000 C 
ATOM     17  C   UNL     1       2.455   8.966  18.242  0.00  0.00    +0.000 C 
ATOM     18  C   UNL     1       1.269   9.773  18.667  0.00  0.00    +0.000 A 
ATOM     19  C   UNL     1       0.846  10.988  18.139  0.00  0.00    +0.000 A 
ATOM     20  C   UNL     1      -0.266  11.618  18.703  0.00  0.00    +0.000 A 
ATOM     21  C   UNL     1      -0.943  11.031  19.780  0.00  0.00    +0.000 A 
ATOM     22  C   UNL     1      -0.494   9.823  20.322  0.00  0.00    +0.000 A 
ATOM     23  C   UNL     1       0.623   9.206  19.765  0.00  0.00    +0.000 A 
ATOM     24  C   UNL     1       1.350   7.989  20.275  0.00  0.00    +0.000 C 
BRANCH  24  25
ATOM     25  N   UNL     1       1.976   8.306  21.569  0.00  0.00    +0.000 NA
ATOM     26  H   UNL     1       2.461   7.473  21.904  0.00  0.00    +0.000 HD
ATOM     27  H   UNL     1       1.223   8.471  22.237  0.00  0.00    +0.000 HD
ENDBRANCH  24  25
ENDBRANCH   1  16
TORSDOF 3
ENDMDL
MODEL 6
REMARK VINA RESULT:      -7.6      1.267      2.999
REMARK  Name = 
REMARK  3 active torsions:
REMARK  status: ('A' for Active; 'I' for Inactive)
REMARK    1  A    between atoms: C_6  and  N_7
REMARK    2  A    between atoms: N_7  and  C_8
REMARK    3  A    between atoms: C_16  and  N_17
REMARK                            x       y       z     vdW  Elec       q    Type
REMARK                         _______ _______ _______ _____ _____    ______ ____
ROOT
ATOM      1  N   UNL     1       4.905   2.920  16.975  0.00  0.00    +0.000 N 
ATOM      2  H   UNL     1       5.372   2.599  17.818  0.00  0.00    +0.000 HD
ENDROOT
BRANCH   1   8
ATOM      3  N   UNL     1       6.770   4.435  12.923  0.00  0.00    +0.000 N 
ATOM      4  C   UNL     1       6.637   4.549  14.291  0.00  0.00    +0.000 A 
ATOM      5  N   UNL     1       7.254   5.585  14.856  0.00  0.00    +0.000 NA
ATOM      6  C   UNL     1       7.170   5.689  16.195  0.00  0.00    +0.000 A 
ATOM      7  C   UNL     1       6.475   4.764  16.966  0.00  0.00    +0.000 A 
ATOM      8  C   UNL     1       5.782   3.777  16.271  0.00  0.00    +0.000 A 
ATOM      9  N   UNL     1       5.873   3.659  14.934  0.00  0.00    +0.000 NA
ATOM     10  C   UNL     1       6.519   4.822  18.473  0.00  0.00    +0.000 C 
ATOM     11  C   UNL     1       7.551   5.815  19.028  0.00  0.00    +0.000 C 
ATOM     12  C   UNL     1       7.506   7.121  18.246  0.00  0.00    +0.000 C 
ATOM     13  C   UNL     1       7.913   6.851  16.802  0.00  0.00    +0.000 C 
ATOM     14  H   UNL     1       7.040   5.332  12.548  0.00  0.00    +0.000 HD
ATOM     15  H   UNL     1       5.946   3.996  12.532  0.00  0.00    +0.000 HD
ENDBRANCH   1   8
BRANCH   1  16
ATOM     16  C   UNL     1       3.540   3.434  17.230  0.00  0.00    +0.000 C 
ATOM     17  C   UNL     1       2.640   2.301  17.800  0.00  0.00    +0.000 C 
ATOM     18  C   UNL     1       2.298   2.752  19.185  0.00  0.00    +0.000 A 
ATOM     19  C   UNL     1       1.521   2.078  20.121  0.00  0.00    +0.000 A 
ATOM     20  C   UNL     1       1.272   2.685  21.355  0.00  0.00    +0.000 A 
ATOM     21  C   UNL     1       1.801   3.950  21.641  0.00  0.00    +0.000 A 
ATOM     22  C   UNL     1       2.557   4.632  20.685  0.00  0.00    +0.000 A 
ATOM     23  C   UNL     1       2.791   4.028  19.452  0.00  0.00    +0.000 A 
ATOM     24  C   UNL     1       3.453   4.636  18.242  0.00  0.00    +0.000 C 
BRANCH  24  25
ATOM     25  N   UNL     1       2.609   5.726  17.725  0.00  0.00    +0.000 NA
ATOM     26  H   UNL     1       2.486   5.588  16.721  0.00  0.00    +0.000 HD
ATOM     27  H   UNL     1       3.140   6.591  17.819  0.00  0.00    +0.000 HD
ENDBRANCH  24  25
ENDBRANCH   1  16
TORSDOF 3
ENDMDL
MODEL 7
REMARK VINA RESULT:      -7.6      4.674      7.867
REMARK  Name = 
REMARK  3 active torsions:
REMARK  status: ('A' for Active; 'I' for Inactive)
REMARK    1  A    between atoms: C_6  and  N_7
REMARK    2  A    between atoms: N_7  and  C_8
REMARK    3  A    between atoms: C_16  and  N_17
REMARK                            x       y       z     vdW  Elec       q    Type
REMARK                         _______ _______ _______ _____ _____    ______ ____
ROOT
ATOM      1  N   UNL     1       1.087   8.064  18.937  0.00  0.00    +0.000 N 
ATOM      2  H   UNL     1       0.746   7.945  17.988  0.00  0.00    +0.000 HD
ENDROOT
BRANCH   1   8
ATOM      3  N   UNL     1       2.616  12.313  17.595  0.00  0.00    +0.000 N 
ATOM      4  C   UNL     1       1.944  11.519  18.501  0.00  0.00    +0.000 A 
ATOM      5  N   UNL     1       1.354  12.152  19.512  0.00  0.00    +0.000 NA
ATOM      6  C   UNL     1       0.729  11.390  20.428  0.00  0.00    +0.000 A 
ATOM      7  C   UNL     1       0.693  10.003  20.336  0.00  0.00    +0.000 A 
ATOM      8  C   UNL     1       1.252   9.446  19.188  0.00  0.00    +0.000 A 
ATOM      9  N   UNL     1       1.890  10.202  18.275  0.00  0.00    +0.000 NA
ATOM     10  C   UNL     1       0.114   9.166  21.449  0.00  0.00    +0.000 C 
ATOM     11  C   UNL     1      -0.197   9.959  22.727  0.00  0.00    +0.000 C 
ATOM     12  C   UNL     1      -0.867  11.282  22.381  0.00  0.00    +0.000 C 
ATOM     13  C   UNL     1       0.107  12.138  21.579  0.00  0.00    +0.000 C 
ATOM     14  H   UNL     1       2.272  13.259  17.677  0.00  0.00    +0.000 HD
ATOM     15  H   UNL     1       2.591  11.888  16.678  0.00  0.00    +0.000 HD
ENDBRANCH   1   8
BRANCH   1  16
ATOM     16  C   UNL     1       2.241   7.192  19.252  0.00  0.00    +0.000 C 
ATOM     17  C   UNL     1       1.877   6.221  20.411  0.00  0.00    +0.000 C 
ATOM     18  C   UNL     1       1.928   4.859  19.792  0.00  0.00    +0.000 A 
ATOM     19  C   UNL     1       1.665   3.643  20.412  0.00  0.00    +0.000 A 
ATOM     20  C   UNL     1       1.811   2.464  19.677  0.00  0.00    +0.000 A 
ATOM     21  C   UNL     1       2.214   2.511  18.336  0.00  0.00    +0.000 A 
ATOM     22  C   UNL     1       2.503   3.736  17.728  0.00  0.00    +0.000 A 
ATOM     23  C   UNL     1       2.368   4.907  18.470  0.00  0.00    +0.000 A 
ATOM     24  C   UNL     1       2.757   6.304  18.059  0.00  0.00    +0.000 C 
BRANCH  24  25
ATOM     25  N   UNL     1       4.220   6.376  17.916  0.00  0.00    +0.000 NA
ATOM     26  H   UNL     1       4.627   5.544  18.346  0.00  0.00    +0.000 HD
ATOM     27  H   UNL     1       4.542   7.161  18.483  0.00  0.00    +0.000 HD
ENDBRANCH  24  25
ENDBRANCH   1  16
TORSDOF 3
ENDMDL
MODEL 8
REMARK VINA RESULT:      -7.6      4.647      7.049
REMARK  Name = 
REMARK  3 active torsions:
REMARK  status: ('A' for Active; 'I' for Inactive)
REMARK    1  A    between atoms: C_6  and  N_7
REMARK    2  A    between atoms: N_7  and  C_8
REMARK    3  A    between atoms: C_16  and  N_17
REMARK                            x       y       z     vdW  Elec       q    Type
REMARK                         _______ _______ _______ _____ _____    ______ ____
ROOT
ATOM      1  N   UNL     1       2.104   7.714  20.407  0.00  0.00    +0.000 N 
ATOM      2  H   UNL     1       2.858   8.344  20.661  0.00  0.00    +0.000 HD
ENDROOT
BRANCH   1   8
ATOM      3  N   UNL     1       4.635   6.759  16.550  0.00  0.00    +0.000 N 
ATOM      4  C   UNL     1       3.870   6.325  17.612  0.00  0.00    +0.000 A 
ATOM      5  N   UNL     1       3.756   5.006  17.753  0.00  0.00    +0.000 NA
ATOM      6  C   UNL     1       2.980   4.564  18.759  0.00  0.00    +0.000 A 
ATOM      7  C   UNL     1       2.321   5.433  19.621  0.00  0.00    +0.000 A 
ATOM      8  C   UNL     1       2.587   6.789  19.453  0.00  0.00    +0.000 A 
ATOM      9  N   UNL     1       3.352   7.239  18.440  0.00  0.00    +0.000 NA
ATOM     10  C   UNL     1       1.344   4.916  20.647  0.00  0.00    +0.000 C 
ATOM     11  C   UNL     1       0.998   3.428  20.483  0.00  0.00    +0.000 C 
ATOM     12  C   UNL     1       2.256   2.619  20.195  0.00  0.00    +0.000 C 
ATOM     13  C   UNL     1       2.842   3.067  18.861  0.00  0.00    +0.000 C 
ATOM     14  H   UNL     1       5.237   6.005  16.255  0.00  0.00    +0.000 HD
ATOM     15  H   UNL     1       5.073   7.642  16.778  0.00  0.00    +0.000 HD
ENDBRANCH   1   8
BRANCH   1  16
ATOM     16  C   UNL     1       0.849   8.422  20.065  0.00  0.00    +0.000 C 
ATOM     17  C   UNL     1      -0.067   8.522  21.317  0.00  0.00    +0.000 C 
ATOM     18  C   UNL     1      -0.156   9.989  21.603  0.00  0.00    +0.000 A 
ATOM     19  C   UNL     1      -0.851  10.602  22.639  0.00  0.00    +0.000 A 
ATOM     20  C   UNL     1      -0.854  11.997  22.717  0.00  0.00    +0.000 A 
ATOM     21  C   UNL     1      -0.165  12.761  21.766  0.00  0.00    +0.000 A 
ATOM     22  C   UNL     1       0.508  12.137  20.713  0.00  0.00    +0.000 A 
ATOM     23  C   UNL     1       0.497  10.747  20.633  0.00  0.00    +0.000 A 
ATOM     24  C   UNL     1       1.032   9.886  19.517  0.00  0.00    +0.000 C 
BRANCH  24  25
ATOM     25  N   UNL     1       0.236  10.119  18.302  0.00  0.00    +0.000 NA
ATOM     26  H   UNL     1       0.550   9.468  17.581  0.00  0.00    +0.000 HD
ATOM     27  H   UNL     1       0.477  11.048  17.954  0.00  0.00    +0.000 HD
ENDBRANCH  24  25
ENDBRANCH   1  16
TORSDOF 3
ENDMDL
MODEL 9
REMARK VINA RESULT:      -7.5      2.104      4.016
REMARK  Name = 
REMARK  3 active torsions:
REMARK  status: ('A' for Active; 'I' for Inactive)
REMARK    1  A    between atoms: C_6  and  N_7
REMARK    2  A    between atoms: N_7  and  C_8
REMARK    3  A    between atoms: C_16  and  N_17
REMARK                            x       y       z     vdW  Elec       q    Type
REMARK                         _______ _______ _______ _____ _____    ______ ____
ROOT
ATOM      1  N   UNL     1       4.748   3.408  18.523  0.00  0.00    +0.000 N 
ATOM      2  H   UNL     1       5.307   3.530  19.361  0.00  0.00    +0.000 HD
ENDROOT
BRANCH   1   8
ATOM      3  N   UNL     1       5.332   4.081  13.896  0.00  0.00    +0.000 N 
ATOM      4  C   UNL     1       5.628   4.426  15.199  0.00  0.00    +0.000 A 
ATOM      5  N   UNL     1       6.422   5.482  15.360  0.00  0.00    +0.000 NA
ATOM      6  C   UNL     1       6.755   5.809  16.622  0.00  0.00    +0.000 A 
ATOM      7  C   UNL     1       6.299   5.085  17.718  0.00  0.00    +0.000 A 
ATOM      8  C   UNL     1       5.395   4.061  17.449  0.00  0.00    +0.000 A 
ATOM      9  N   UNL     1       5.068   3.721  16.188  0.00  0.00    +0.000 NA
ATOM     10  C   UNL     1       6.804   5.382  19.108  0.00  0.00    +0.000 C 
ATOM     11  C   UNL     1       7.988   6.359  19.145  0.00  0.00    +0.000 C 
ATOM     12  C   UNL     1       7.749   7.520  18.188  0.00  0.00    +0.000 C 
ATOM     13  C   UNL     1       7.686   6.985  16.762  0.00  0.00    +0.000 C 
ATOM     14  H   UNL     1       5.504   4.879  13.303  0.00  0.00    +0.000 HD
ATOM     15  H   UNL     1       4.415   3.657  13.852  0.00  0.00    +0.000 HD
ENDBRANCH   1   8
BRANCH   1  16
ATOM     16  C   UNL     1       3.317   3.732  18.729  0.00  0.00    +0.000 C 
ATOM     17  C   UNL     1       3.121   4.435  20.101  0.00  0.00    +0.000 C 
ATOM     18  C   UNL     1       2.646   5.812  19.755  0.00  0.00    +0.000 A 
ATOM     19  C   UNL     1       2.341   6.842  20.637  0.00  0.00    +0.000 A 
ATOM     20  C   UNL     1       1.865   8.052  20.124  0.00  0.00    +0.000 A 
ATOM     21  C   UNL     1       1.703   8.220  18.742  0.00  0.00    +0.000 A 
ATOM     22  C   UNL     1       1.987   7.169  17.865  0.00  0.00    +0.000 A 
ATOM     23  C   UNL     1       2.448   5.962  18.384  0.00  0.00    +0.000 A 
ATOM     24  C   UNL     1       2.678   4.671  17.640  0.00  0.00    +0.000 C 
BRANCH  24  25
ATOM     25  N   UNL     1       1.386   4.153  17.161  0.00  0.00    +0.000 NA
ATOM     26  H   UNL     1       1.067   3.434  17.812  0.00  0.00    +0.000 HD
ATOM     27  H   UNL     1       1.562   3.666  16.282  0.00  0.00    +0.000 HD
ENDBRANCH  24  25
ENDBRANCH   1  16
TORSDOF 3
ENDMDL
