MODEL 1
REMARK VINA RESULT:      -6.6      0.000      0.000
REMARK  Name = 
REMARK  8 active torsions:
REMARK  status: ('A' for Active; 'I' for Inactive)
REMARK    1  A    between atoms: C_1  and  O_2
REMARK    2  A    between atoms: O_2  and  C_3
REMARK    3  A    between atoms: C_10  and  C_11
REMARK    4  A    between atoms: C_14  and  O_15
REMARK    5  A    between atoms: C_19  and  O_20
REMARK    6  A    between atoms: O_20  and  C_21
REMARK    7  A    between atoms: C_22  and  O_23
REMARK    8  A    between atoms: O_23  and  C_24
REMARK                            x       y       z     vdW  Elec       q    Type
REMARK                         _______ _______ _______ _____ _____    ______ ____
ROOT
ATOM      1  C   UNL     1       1.137   7.948  20.591  0.00  0.00    +0.000 A 
ATOM      2  C   UNL     1       1.207   6.712  21.218  0.00  0.00    +0.000 A 
ATOM      3  C   UNL     1       2.050   5.710  20.724  0.00  0.00    +0.000 A 
ATOM      4  O   UNL     1       1.969   4.519  21.480  0.00  0.00    +0.000 OA
ATOM      5  C   UNL     1       2.648   3.385  21.100  0.00  0.00    +0.000 A 
ATOM      6  O   UNL     1       2.546   2.320  21.716  0.00  0.00    +0.000 OA
ATOM      7  C   UNL     1       3.531   3.520  19.957  0.00  0.00    +0.000 A 
ATOM      8  C   UNL     1       3.658   4.634  19.216  0.00  0.00    +0.000 A 
ATOM      9  C   UNL     1       2.834   5.835  19.564  0.00  0.00    +0.000 A 
ATOM     10  C   UNL     1       2.687   7.068  18.881  0.00  0.00    +0.000 A 
ATOM     11  C   UNL     1       1.894   8.142  19.420  0.00  0.00    +0.000 A 
ENDROOT
BRANCH   8  12
ATOM     12  C   UNL     1       4.716   4.485  18.198  0.00  0.00    +0.000 A 
ATOM     13  C   UNL     1       4.388   4.056  16.903  0.00  0.00    +0.000 A 
ATOM     14  C   UNL     1       5.359   4.040  15.897  0.00  0.00    +0.000 A 
ATOM     15  C   UNL     1       6.661   4.428  16.199  0.00  0.00    +0.000 A 
ATOM     16  C   UNL     1       7.032   4.735  17.503  0.00  0.00    +0.000 A 
ATOM     17  C   UNL     1       6.061   4.750  18.510  0.00  0.00    +0.000 A 
BRANCH  15  18
ATOM     18  O   UNL     1       7.597   4.569  15.219  0.00  0.00    +0.000 OA
ATOM     19  H   UNL     1       8.212   5.275  15.484  0.00  0.00    +0.000 HD
ENDBRANCH  15  18
ENDBRANCH   8  12
BRANCH   1  21
ATOM     20  C   UNL     1       0.230   9.202  22.419  0.00  0.00    +0.000 C 
ATOM     21  O   UNL     1       0.289   8.934  21.022  0.00  0.00    +0.000 OA
ENDBRANCH   1  21
BRANCH  10  22
ATOM     22  O   UNL     1       2.961   7.235  17.535  0.00  0.00    +0.000 OA
ATOM     23  C   UNL     1       4.260   7.633  17.140  0.00  0.00    +0.000 C 
ENDBRANCH  10  22
BRANCH  11  24
ATOM     24  O   UNL     1       1.948   9.304  18.676  0.00  0.00    +0.000 OA
ATOM     25  C   UNL     1       0.788   9.767  17.996  0.00  0.00    +0.000 C 
ENDBRANCH  11  24
TORSDOF 5
ENDMDL
MODEL 2
REMARK VINA RESULT:      -6.5      2.603      5.164
REMARK  Name = 
REMARK  8 active torsions:
REMARK  status: ('A' for Active; 'I' for Inactive)
REMARK    1  A    between atoms: C_1  and  O_2
REMARK    2  A    between atoms: O_2  and  C_3
REMARK    3  A    between atoms: C_10  and  C_11
REMARK    4  A    between atoms: C_14  and  O_15
REMARK    5  A    between atoms: C_19  and  O_20
REMARK    6  A    between atoms: O_20  and  C_21
REMARK    7  A    between atoms: C_22  and  O_23
REMARK    8  A    between atoms: O_23  and  C_24
REMARK                            x       y       z     vdW  Elec       q    Type
REMARK                         _______ _______ _______ _____ _____    ______ ____
ROOT
ATOM      1  C   UNL     1       2.179   3.772  17.836  0.00  0.00    +0.000 A 
ATOM      2  C   UNL     1       2.953   3.359  16.761  0.00  0.00    +0.000 A 
ATOM      3  C   UNL     1       4.182   3.970  16.492  0.00  0.00    +0.000 A 
ATOM      4  O   UNL     1       4.813   3.430  15.349  0.00  0.00    +0.000 OA
ATOM      5  C   UNL     1       5.986   3.960  14.864  0.00  0.00    +0.000 A 
ATOM      6  O   UNL     1       6.522   3.538  13.835  0.00  0.00    +0.000 OA
ATOM      7  C   UNL     1       6.586   5.018  15.654  0.00  0.00    +0.000 A 
ATOM      8  C   UNL     1       6.037   5.554  16.758  0.00  0.00    +0.000 A 
ATOM      9  C   UNL     1       4.705   5.052  17.223  0.00  0.00    +0.000 A 
ATOM     10  C   UNL     1       3.866   5.525  18.262  0.00  0.00    +0.000 A 
ATOM     11  C   UNL     1       2.640   4.854  18.609  0.00  0.00    +0.000 A 
ENDROOT
BRANCH   8  12
ATOM     12  C   UNL     1       6.947   6.528  17.392  0.00  0.00    +0.000 A 
ATOM     13  C   UNL     1       7.047   7.831  16.880  0.00  0.00    +0.000 A 
ATOM     14  C   UNL     1       7.802   8.797  17.552  0.00  0.00    +0.000 A 
ATOM     15  C   UNL     1       8.475   8.448  18.719  0.00  0.00    +0.000 A 
ATOM     16  C   UNL     1       8.489   7.133  19.170  0.00  0.00    +0.000 A 
ATOM     17  C   UNL     1       7.735   6.165  18.498  0.00  0.00    +0.000 A 
BRANCH  15  18
ATOM     18  O   UNL     1       9.096   9.391  19.480  0.00  0.00    +0.000 OA
ATOM     19  H   UNL     1       9.468  10.065  18.886  0.00  0.00    +0.000 HD
ENDBRANCH  15  18
ENDBRANCH   8  12
BRANCH   1  21
ATOM     20  C   UNL     1       0.898   2.057  18.911  0.00  0.00    +0.000 C 
ATOM     21  O   UNL     1       0.950   3.225  18.099  0.00  0.00    +0.000 OA
ENDBRANCH   1  21
BRANCH  10  22
ATOM     22  O   UNL     1       3.932   6.808  18.776  0.00  0.00    +0.000 OA
ATOM     23  C   UNL     1       3.356   7.873  18.044  0.00  0.00    +0.000 C 
ENDBRANCH  10  22
BRANCH  11  24
ATOM     24  O   UNL     1       2.004   5.388  19.713  0.00  0.00    +0.000 OA
ATOM     25  C   UNL     1       2.149   4.770  20.985  0.00  0.00    +0.000 C 
ENDBRANCH  11  24
TORSDOF 5
ENDMDL
MODEL 3
REMARK VINA RESULT:      -6.4      2.609      5.251
REMARK  Name = 
REMARK  8 active torsions:
REMARK  status: ('A' for Active; 'I' for Inactive)
REMARK    1  A    between atoms: C_1  and  O_2
REMARK    2  A    between atoms: O_2  and  C_3
REMARK    3  A    between atoms: C_10  and  C_11
REMARK    4  A    between atoms: C_14  and  O_15
REMARK    5  A    between atoms: C_19  and  O_20
REMARK    6  A    between atoms: O_20  and  C_21
REMARK    7  A    between atoms: C_22  and  O_23
REMARK    8  A    between atoms: O_23  and  C_24
REMARK                            x       y       z     vdW  Elec       q    Type
REMARK                         _______ _______ _______ _____ _____    ______ ____
ROOT
ATOM      1  C   UNL     1       2.253   3.698  17.789  0.00  0.00    +0.000 A 
ATOM      2  C   UNL     1       3.104   3.323  16.758  0.00  0.00    +0.000 A 
ATOM      3  C   UNL     1       4.296   4.019  16.531  0.00  0.00    +0.000 A 
ATOM      4  O   UNL     1       5.017   3.506  15.429  0.00  0.00    +0.000 OA
ATOM      5  C   UNL     1       6.168   4.112  14.985  0.00  0.00    +0.000 A 
ATOM      6  O   UNL     1       6.780   3.712  13.990  0.00  0.00    +0.000 OA
ATOM      7  C   UNL     1       6.652   5.227  15.776  0.00  0.00    +0.000 A 
ATOM      8  C   UNL     1       6.015   5.741  16.842  0.00  0.00    +0.000 A 
ATOM      9  C   UNL     1       4.704   5.151  17.260  0.00  0.00    +0.000 A 
ATOM     10  C   UNL     1       3.786   5.579  18.250  0.00  0.00    +0.000 A 
ATOM     11  C   UNL     1       2.598   4.826  18.557  0.00  0.00    +0.000 A 
ENDROOT
BRANCH   8  12
ATOM     12  C   UNL     1       6.822   6.792  17.494  0.00  0.00    +0.000 A 
ATOM     13  C   UNL     1       7.677   6.463  18.557  0.00  0.00    +0.000 A 
ATOM     14  C   UNL     1       8.542   7.423  19.090  0.00  0.00    +0.000 A 
ATOM     15  C   UNL     1       8.529   8.716  18.574  0.00  0.00    +0.000 A 
ATOM     16  C   UNL     1       7.601   9.091  17.609  0.00  0.00    +0.000 A 
ATOM     17  C   UNL     1       6.735   8.132  17.075  0.00  0.00    +0.000 A 
BRANCH  15  18
ATOM     18  O   UNL     1       9.455   9.636  18.963  0.00  0.00    +0.000 OA
ATOM     19  H   UNL     1       9.930   9.283  19.735  0.00  0.00    +0.000 HD
ENDBRANCH  15  18
ENDBRANCH   8  12
BRANCH   1  21
ATOM     20  C   UNL     1       1.024   2.011  18.964  0.00  0.00    +0.000 C 
ATOM     21  O   UNL     1       1.057   3.066  18.009  0.00  0.00    +0.000 OA
ENDBRANCH   1  21
BRANCH  10  22
ATOM     22  O   UNL     1       3.734   6.873  18.737  0.00  0.00    +0.000 OA
ATOM     23  C   UNL     1       3.048   7.862  17.993  0.00  0.00    +0.000 C 
ENDBRANCH  10  22
BRANCH  11  24
ATOM     24  O   UNL     1       1.875   5.333  19.619  0.00  0.00    +0.000 OA
ATOM     25  C   UNL     1       2.101   4.837  20.933  0.00  0.00    +0.000 C 
ENDBRANCH  11  24
TORSDOF 5
ENDMDL
MODEL 4
REMARK VINA RESULT:      -6.0      1.908      6.446
REMARK  Name = 
REMARK  8 active torsions:
REMARK  status: ('A' for Active; 'I' for Inactive)
REMARK    1  A    between atoms: C_1  and  O_2
REMARK    2  A    between atoms: O_2  and  C_3
REMARK    3  A    between atoms: C_10  and  C_11
REMARK    4  A    between atoms: C_14  and  O_15
REMARK    5  A    between atoms: C_19  and  O_20
REMARK    6  A    between atoms: O_20  and  C_21
REMARK    7  A    between atoms: C_22  and  O_23
REMARK    8  A    between atoms: O_23  and  C_24
REMARK                            x       y       z     vdW  Elec       q    Type
REMARK                         _______ _______ _______ _____ _____    ______ ____
ROOT
ATOM      1  C   UNL     1       4.566   2.679  19.631  0.00  0.00    +0.000 A 
ATOM      2  C   UNL     1       5.450   3.508  18.955  0.00  0.00    +0.000 A 
ATOM      3  C   UNL     1       5.077   4.811  18.606  0.00  0.00    +0.000 A 
ATOM      4  O   UNL     1       6.098   5.493  17.906  0.00  0.00    +0.000 OA
ATOM      5  C   UNL     1       5.893   6.751  17.392  0.00  0.00    +0.000 A 
ATOM      6  O   UNL     1       6.754   7.340  16.731  0.00  0.00    +0.000 OA
ATOM      7  C   UNL     1       4.622   7.374  17.708  0.00  0.00    +0.000 A 
ATOM      8  C   UNL     1       3.626   6.776  18.385  0.00  0.00    +0.000 A 
ATOM      9  C   UNL     1       3.807   5.364  18.848  0.00  0.00    +0.000 A 
ATOM     10  C   UNL     1       2.884   4.479  19.458  0.00  0.00    +0.000 A 
ATOM     11  C   UNL     1       3.274   3.167  19.904  0.00  0.00    +0.000 A 
ENDROOT
BRANCH   8  12
ATOM     12  C   UNL     1       2.512   7.712  18.638  0.00  0.00    +0.000 A 
ATOM     13  C   UNL     1       1.990   7.846  19.934  0.00  0.00    +0.000 A 
ATOM     14  C   UNL     1       1.029   8.824  20.210  0.00  0.00    +0.000 A 
ATOM     15  C   UNL     1       0.577   9.646  19.181  0.00  0.00    +0.000 A 
ATOM     16  C   UNL     1       0.990   9.443  17.870  0.00  0.00    +0.000 A 
ATOM     17  C   UNL     1       1.950   8.465  17.592  0.00  0.00    +0.000 A 
BRANCH  15  18
ATOM     18  O   UNL     1      -0.243  10.703  19.437  0.00  0.00    +0.000 OA
ATOM     19  H   UNL     1      -1.082  10.359  19.791  0.00  0.00    +0.000 HD
ENDBRANCH  15  18
ENDBRANCH   8  12
BRANCH   1  21
ATOM     20  C   UNL     1       5.389   1.118  21.251  0.00  0.00    +0.000 C 
ATOM     21  O   UNL     1       4.883   1.383  19.947  0.00  0.00    +0.000 OA
ENDBRANCH   1  21
BRANCH  10  22
ATOM     22  O   UNL     1       1.511   4.619  19.361  0.00  0.00    +0.000 OA
ATOM     23  C   UNL     1       0.834   4.031  18.267  0.00  0.00    +0.000 C 
ENDBRANCH  10  22
BRANCH  11  24
ATOM     24  O   UNL     1       2.275   2.483  20.569  0.00  0.00    +0.000 OA
ATOM     25  C   UNL     1       2.024   2.753  21.942  0.00  0.00    +0.000 C 
ENDBRANCH  11  24
TORSDOF 5
ENDMDL
MODEL 5
REMARK VINA RESULT:      -6.0      0.449      1.083
REMARK  Name = 
REMARK  8 active torsions:
REMARK  status: ('A' for Active; 'I' for Inactive)
REMARK    1  A    between atoms: C_1  and  O_2
REMARK    2  A    between atoms: O_2  and  C_3
REMARK    3  A    between atoms: C_10  and  C_11
REMARK    4  A    between atoms: C_14  and  O_15
REMARK    5  A    between atoms: C_19  and  O_20
REMARK    6  A    between atoms: O_20  and  C_21
REMARK    7  A    between atoms: C_22  and  O_23
REMARK    8  A    between atoms: O_23  and  C_24
REMARK                            x       y       z     vdW  Elec       q    Type
REMARK                         _______ _______ _______ _____ _____    ______ ____
ROOT
ATOM      1  C   UNL     1       0.869   8.065  20.732  0.00  0.00    +0.000 A 
ATOM      2  C   UNL     1       1.027   6.794  21.267  0.00  0.00    +0.000 A 
ATOM      3  C   UNL     1       1.937   5.893  20.704  0.00  0.00    +0.000 A 
ATOM      4  O   UNL     1       1.943   4.647  21.370  0.00  0.00    +0.000 OA
ATOM      5  C   UNL     1       2.699   3.595  20.910  0.00  0.00    +0.000 A 
ATOM      6  O   UNL     1       2.673   2.483  21.447  0.00  0.00    +0.000 OA
ATOM      7  C   UNL     1       3.567   3.874  19.783  0.00  0.00    +0.000 A 
ATOM      8  C   UNL     1       3.613   5.046  19.125  0.00  0.00    +0.000 A 
ATOM      9  C   UNL     1       2.707   6.157  19.557  0.00  0.00    +0.000 A 
ATOM     10  C   UNL     1       2.473   7.423  18.966  0.00  0.00    +0.000 A 
ATOM     11  C   UNL     1       1.607   8.396  19.580  0.00  0.00    +0.000 A 
ENDROOT
BRANCH   8  12
ATOM     12  C   UNL     1       4.677   5.045  18.101  0.00  0.00    +0.000 A 
ATOM     13  C   UNL     1       5.960   5.512  18.423  0.00  0.00    +0.000 A 
ATOM     14  C   UNL     1       7.006   5.391  17.503  0.00  0.00    +0.000 A 
ATOM     15  C   UNL     1       6.756   4.827  16.255  0.00  0.00    +0.000 A 
ATOM     16  C   UNL     1       5.466   4.475  15.875  0.00  0.00    +0.000 A 
ATOM     17  C   UNL     1       4.419   4.597  16.794  0.00  0.00    +0.000 A 
BRANCH  15  18
ATOM     18  O   UNL     1       7.774   4.556  15.391  0.00  0.00    +0.000 OA
ATOM     19  H   UNL     1       8.083   5.397  15.012  0.00  0.00    +0.000 HD
ENDBRANCH  15  18
ENDBRANCH   8  12
BRANCH   1  21
ATOM     20  C   UNL     1       0.025   9.279  22.616  0.00  0.00    +0.000 C 
ATOM     21  O   UNL     1      -0.045   8.955  21.232  0.00  0.00    +0.000 OA
ENDBRANCH   1  21
BRANCH  10  22
ATOM     22  O   UNL     1       2.730   7.707  17.636  0.00  0.00    +0.000 OA
ATOM     23  C   UNL     1       4.000   8.213  17.274  0.00  0.00    +0.000 C 
ENDBRANCH  10  22
BRANCH  11  24
ATOM     24  O   UNL     1       1.578   9.611  18.923  0.00  0.00    +0.000 OA
ATOM     25  C   UNL     1       0.403  10.016  18.232  0.00  0.00    +0.000 C 
ENDBRANCH  11  24
TORSDOF 5
ENDMDL
MODEL 6
REMARK VINA RESULT:      -5.8      5.522     10.890
REMARK  Name = 
REMARK  8 active torsions:
REMARK  status: ('A' for Active; 'I' for Inactive)
REMARK    1  A    between atoms: C_1  and  O_2
REMARK    2  A    between atoms: O_2  and  C_3
REMARK    3  A    between atoms: C_10  and  C_11
REMARK    4  A    between atoms: C_14  and  O_15
REMARK    5  A    between atoms: C_19  and  O_20
REMARK    6  A    between atoms: O_20  and  C_21
REMARK    7  A    between atoms: C_22  and  O_23
REMARK    8  A    between atoms: O_23  and  C_24
REMARK                            x       y       z     vdW  Elec       q    Type
REMARK                         _______ _______ _______ _____ _____    ______ ____
ROOT
ATOM      1  C   UNL     1       0.368  11.258  18.976  0.00  0.00    +0.000 A 
ATOM      2  C   UNL     1      -0.823  11.085  18.286  0.00  0.00    +0.000 A 
ATOM      3  C   UNL     1      -2.024  11.585  18.802  0.00  0.00    +0.000 A 
ATOM      4  O   UNL     1      -3.129  11.293  17.971  0.00  0.00    +0.000 OA
ATOM      5  C   UNL     1      -4.411  11.616  18.349  0.00  0.00    +0.000 A 
ATOM      6  O   UNL     1      -5.394  11.319  17.662  0.00  0.00    +0.000 OA
ATOM      7  C   UNL     1      -4.546  12.366  19.583  0.00  0.00    +0.000 A 
ATOM      8  C   UNL     1      -3.527  12.684  20.399  0.00  0.00    +0.000 A 
ATOM      9  C   UNL     1      -2.143  12.236  20.042  0.00  0.00    +0.000 A 
ATOM     10  C   UNL     1      -0.937  12.328  20.781  0.00  0.00    +0.000 A 
ATOM     11  C   UNL     1       0.322  11.900  20.229  0.00  0.00    +0.000 A 
ENDROOT
BRANCH   8  12
ATOM     12  C   UNL     1      -3.977  13.546  21.510  0.00  0.00    +0.000 A 
ATOM     13  C   UNL     1      -4.650  12.983  22.606  0.00  0.00    +0.000 A 
ATOM     14  C   UNL     1      -4.960  13.767  23.722  0.00  0.00    +0.000 A 
ATOM     15  C   UNL     1      -4.620  15.116  23.724  0.00  0.00    +0.000 A 
ATOM     16  C   UNL     1      -4.068  15.717  22.598  0.00  0.00    +0.000 A 
ATOM     17  C   UNL     1      -3.757  14.934  21.482  0.00  0.00    +0.000 A 
BRANCH  15  18
ATOM     18  O   UNL     1      -4.770  15.876  24.845  0.00  0.00    +0.000 OA
ATOM     19  H   UNL     1      -4.012  16.482  24.906  0.00  0.00    +0.000 HD
ENDBRANCH  15  18
ENDBRANCH   8  12
BRANCH   1  21
ATOM     20  C   UNL     1       1.540   9.436  17.954  0.00  0.00    +0.000 C 
ATOM     21  O   UNL     1       1.553  10.742  18.521  0.00  0.00    +0.000 OA
ENDBRANCH   1  21
BRANCH  10  22
ATOM     22  O   UNL     1      -0.890  12.478  22.155  0.00  0.00    +0.000 OA
ATOM     23  C   UNL     1      -1.260  11.390  22.980  0.00  0.00    +0.000 C 
ENDBRANCH  10  22
BRANCH  11  24
ATOM     24  O   UNL     1       1.406  12.160  21.044  0.00  0.00    +0.000 OA
ATOM     25  C   UNL     1       2.239  13.282  20.780  0.00  0.00    +0.000 C 
ENDBRANCH  11  24
TORSDOF 5
ENDMDL
MODEL 7
REMARK VINA RESULT:      -5.7      5.589     10.991
REMARK  Name = 
REMARK  8 active torsions:
REMARK  status: ('A' for Active; 'I' for Inactive)
REMARK    1  A    between atoms: C_1  and  O_2
REMARK    2  A    between atoms: O_2  and  C_3
REMARK    3  A    between atoms: C_10  and  C_11
REMARK    4  A    between atoms: C_14  and  O_15
REMARK    5  A    between atoms: C_19  and  O_20
REMARK    6  A    between atoms: O_20  and  C_21
REMARK    7  A    between atoms: C_22  and  O_23
REMARK    8  A    between atoms: O_23  and  C_24
REMARK                            x       y       z     vdW  Elec       q    Type
REMARK                         _______ _______ _______ _____ _____    ______ ____
ROOT
ATOM      1  C   UNL     1       0.337  11.330  18.963  0.00  0.00    +0.000 A 
ATOM      2  C   UNL     1      -0.865  11.174  18.287  0.00  0.00    +0.000 A 
ATOM      3  C   UNL     1      -2.058  11.655  18.836  0.00  0.00    +0.000 A 
ATOM      4  O   UNL     1      -3.176  11.385  18.014  0.00  0.00    +0.000 OA
ATOM      5  C   UNL     1      -4.452  11.693  18.422  0.00  0.00    +0.000 A 
ATOM      6  O   UNL     1      -5.445  11.414  17.742  0.00  0.00    +0.000 OA
ATOM      7  C   UNL     1      -4.569  12.407  19.679  0.00  0.00    +0.000 A 
ATOM      8  C   UNL     1      -3.538  12.704  20.488  0.00  0.00    +0.000 A 
ATOM      9  C   UNL     1      -2.159  12.270  20.097  0.00  0.00    +0.000 A 
ATOM     10  C   UNL     1      -0.942  12.344  20.818  0.00  0.00    +0.000 A 
ATOM     11  C   UNL     1       0.309  11.934  20.235  0.00  0.00    +0.000 A 
ENDROOT
BRANCH   8  12
ATOM     12  C   UNL     1      -3.973  13.532  21.631  0.00  0.00    +0.000 A 
ATOM     13  C   UNL     1      -3.575  14.875  21.716  0.00  0.00    +0.000 A 
ATOM     14  C   UNL     1      -4.090  15.701  22.720  0.00  0.00    +0.000 A 
ATOM     15  C   UNL     1      -4.981  15.172  23.649  0.00  0.00    +0.000 A 
ATOM     16  C   UNL     1      -5.287  13.816  23.655  0.00  0.00    +0.000 A 
ATOM     17  C   UNL     1      -4.772  12.988  22.652  0.00  0.00    +0.000 A 
BRANCH  15  18
ATOM     18  O   UNL     1      -5.616  15.975  24.548  0.00  0.00    +0.000 OA
ATOM     19  H   UNL     1      -5.376  15.680  25.443  0.00  0.00    +0.000 HD
ENDBRANCH  15  18
ENDBRANCH   8  12
BRANCH   1  21
ATOM     20  C   UNL     1       1.512   9.512  17.938  0.00  0.00    +0.000 C 
ATOM     21  O   UNL     1       1.516  10.831  18.475  0.00  0.00    +0.000 OA
ENDBRANCH   1  21
BRANCH  10  22
ATOM     22  O   UNL     1      -0.873  12.454  22.196  0.00  0.00    +0.000 OA
ATOM     23  C   UNL     1      -1.256  11.351  22.995  0.00  0.00    +0.000 C 
ENDBRANCH  10  22
BRANCH  11  24
ATOM     24  O   UNL     1       1.406  12.174  21.040  0.00  0.00    +0.000 OA
ATOM     25  C   UNL     1       2.240  13.297  20.787  0.00  0.00    +0.000 C 
ENDBRANCH  11  24
TORSDOF 5
ENDMDL
MODEL 8
REMARK VINA RESULT:      -5.7      4.139      7.630
REMARK  Name = 
REMARK  8 active torsions:
REMARK  status: ('A' for Active; 'I' for Inactive)
REMARK    1  A    between atoms: C_1  and  O_2
REMARK    2  A    between atoms: O_2  and  C_3
REMARK    3  A    between atoms: C_10  and  C_11
REMARK    4  A    between atoms: C_14  and  O_15
REMARK    5  A    between atoms: C_19  and  O_20
REMARK    6  A    between atoms: O_20  and  C_21
REMARK    7  A    between atoms: C_22  and  O_23
REMARK    8  A    between atoms: O_23  and  C_24
REMARK                            x       y       z     vdW  Elec       q    Type
REMARK                         _______ _______ _______ _____ _____    ______ ____
ROOT
ATOM      1  C   UNL     1      -3.008  13.489  21.432  0.00  0.00    +0.000 A 
ATOM      2  C   UNL     1      -3.429  13.059  20.181  0.00  0.00    +0.000 A 
ATOM      3  C   UNL     1      -2.702  12.091  19.480  0.00  0.00    +0.000 A 
ATOM      4  O   UNL     1      -3.272  11.799  18.220  0.00  0.00    +0.000 OA
ATOM      5  C   UNL     1      -2.654  10.944  17.338  0.00  0.00    +0.000 A 
ATOM      6  O   UNL     1      -3.108  10.720  16.212  0.00  0.00    +0.000 OA
ATOM      7  C   UNL     1      -1.458  10.280  17.820  0.00  0.00    +0.000 A 
ATOM      8  C   UNL     1      -0.886  10.509  19.015  0.00  0.00    +0.000 A 
ATOM      9  C   UNL     1      -1.497  11.524  19.931  0.00  0.00    +0.000 A 
ATOM     10  C   UNL     1      -1.029  12.034  21.167  0.00  0.00    +0.000 A 
ATOM     11  C   UNL     1      -1.806  12.964  21.945  0.00  0.00    +0.000 A 
ENDROOT
BRANCH   8  12
ATOM     12  C   UNL     1       0.250   9.596  19.250  0.00  0.00    +0.000 A 
ATOM     13  C   UNL     1       0.440   9.023  20.517  0.00  0.00    +0.000 A 
ATOM     14  C   UNL     1       1.430   8.056  20.713  0.00  0.00    +0.000 A 
ATOM     15  C   UNL     1       2.243   7.685  19.646  0.00  0.00    +0.000 A 
ATOM     16  C   UNL     1       2.152   8.331  18.419  0.00  0.00    +0.000 A 
ATOM     17  C   UNL     1       1.162   9.300  18.221  0.00  0.00    +0.000 A 
BRANCH  15  18
ATOM     18  O   UNL     1       3.116   6.645  19.757  0.00  0.00    +0.000 OA
ATOM     19  H   UNL     1       2.699   5.955  20.302  0.00  0.00    +0.000 HD
ENDBRANCH  15  18
ENDBRANCH   8  12
BRANCH   1  21
ATOM     20  C   UNL     1      -4.999  14.788  21.724  0.00  0.00    +0.000 C 
ATOM     21  O   UNL     1      -3.672  14.467  22.125  0.00  0.00    +0.000 OA
ENDBRANCH   1  21
BRANCH  10  22
ATOM     22  O   UNL     1       0.297  11.994  21.559  0.00  0.00    +0.000 OA
ATOM     23  C   UNL     1       1.243  12.791  20.873  0.00  0.00    +0.000 C 
ENDBRANCH  10  22
BRANCH  11  24
ATOM     24  O   UNL     1      -1.246  13.273  23.169  0.00  0.00    +0.000 OA
ATOM     25  C   UNL     1      -0.859  14.612  23.454  0.00  0.00    +0.000 C 
ENDBRANCH  11  24
TORSDOF 5
ENDMDL
MODEL 9
REMARK VINA RESULT:      -5.7      7.383     10.653
REMARK  Name = 
REMARK  8 active torsions:
REMARK  status: ('A' for Active; 'I' for Inactive)
REMARK    1  A    between atoms: C_1  and  O_2
REMARK    2  A    between atoms: O_2  and  C_3
REMARK    3  A    between atoms: C_10  and  C_11
REMARK    4  A    between atoms: C_14  and  O_15
REMARK    5  A    between atoms: C_19  and  O_20
REMARK    6  A    between atoms: O_20  and  C_21
REMARK    7  A    between atoms: C_22  and  O_23
REMARK    8  A    between atoms: O_23  and  C_24
REMARK                            x       y       z     vdW  Elec       q    Type
REMARK                         _______ _______ _______ _____ _____    ______ ____
ROOT
ATOM      1  C   UNL     1      -3.634  11.042  16.993  0.00  0.00    +0.000 A 
ATOM      2  C   UNL     1      -2.261  11.003  17.194  0.00  0.00    +0.000 A 
ATOM      3  C   UNL     1      -1.702  11.485  18.382  0.00  0.00    +0.000 A 
ATOM      4  O   UNL     1      -0.293  11.381  18.394  0.00  0.00    +0.000 OA
ATOM      5  C   UNL     1       0.451  11.888  19.433  0.00  0.00    +0.000 A 
ATOM      6  O   UNL     1       1.686  11.856  19.435  0.00  0.00    +0.000 OA
ATOM      7  C   UNL     1      -0.296  12.426  20.554  0.00  0.00    +0.000 A 
ATOM      8  C   UNL     1      -1.635  12.531  20.600  0.00  0.00    +0.000 A 
ATOM      9  C   UNL     1      -2.440  12.081  19.420  0.00  0.00    +0.000 A 
ATOM     10  C   UNL     1      -3.829  12.198  19.167  0.00  0.00    +0.000 A 
ATOM     11  C   UNL     1      -4.434  11.628  17.991  0.00  0.00    +0.000 A 
ENDROOT
BRANCH   8  12
ATOM     12  C   UNL     1      -2.091  13.014  21.919  0.00  0.00    +0.000 A 
ATOM     13  C   UNL     1      -2.001  14.378  22.236  0.00  0.00    +0.000 A 
ATOM     14  C   UNL     1      -2.553  14.863  23.426  0.00  0.00    +0.000 A 
ATOM     15  C   UNL     1      -3.168  13.976  24.305  0.00  0.00    +0.000 A 
ATOM     16  C   UNL     1      -3.154  12.607  24.066  0.00  0.00    +0.000 A 
ATOM     17  C   UNL     1      -2.602  12.120  22.877  0.00  0.00    +0.000 A 
BRANCH  15  18
ATOM     18  O   UNL     1      -3.844  14.427  25.398  0.00  0.00    +0.000 OA
ATOM     19  H   UNL     1      -4.733  14.703  25.114  0.00  0.00    +0.000 HD
ENDBRANCH  15  18
ENDBRANCH   8  12
BRANCH   1  21
ATOM     20  C   UNL     1      -3.349  10.240  14.754  0.00  0.00    +0.000 C 
ATOM     21  O   UNL     1      -4.209  10.619  15.823  0.00  0.00    +0.000 OA
ENDBRANCH   1  21
BRANCH  10  22
ATOM     22  O   UNL     1      -4.644  13.130  19.785  0.00  0.00    +0.000 OA
ATOM     23  C   UNL     1      -5.378  12.750  20.933  0.00  0.00    +0.000 C 
ENDBRANCH  10  22
BRANCH  11  24
ATOM     24  O   UNL     1      -5.810  11.745  17.959  0.00  0.00    +0.000 OA
ATOM     25  C   UNL     1      -6.625  10.655  18.371  0.00  0.00    +0.000 C 
ENDBRANCH  11  24
TORSDOF 5
ENDMDL
