MODEL 1
REMARK VINA RESULT:      -7.4      0.000      0.000
REMARK  Name = 
REMARK  5 active torsions:
REMARK  status: ('A' for Active; 'I' for Inactive)
REMARK    1  A    between atoms: C_1  and  O_2
REMARK    2  A    between atoms: O_2  and  C_3
REMARK    3  A    between atoms: C_6  and  C_7
REMARK    4  A    between atoms: N_8  and  N_9
REMARK    5  A    between atoms: C_10  and  C_12
REMARK                            x       y       z     vdW  Elec       q    Type
REMARK                         _______ _______ _______ _____ _____    ______ ____
ROOT
ATOM      1  C   UNL     1       4.604   4.999  16.646  0.00  0.00    +0.000 A 
ATOM      2  C   UNL     1       4.775   6.377  16.777  0.00  0.00    +0.000 A 
ATOM      3  C   UNL     1       3.973   7.095  17.651  0.00  0.00    +0.000 A 
ATOM      4  C   UNL     1       2.975   6.456  18.398  0.00  0.00    +0.000 A 
ATOM      5  C   UNL     1       2.739   5.059  18.252  0.00  0.00    +0.000 A 
ATOM      6  C   UNL     1       1.722   4.340  18.937  0.00  0.00    +0.000 A 
ATOM      7  C   UNL     1       1.535   2.967  18.758  0.00  0.00    +0.000 A 
ATOM      8  C   UNL     1       2.357   2.265  17.892  0.00  0.00    +0.000 A 
ATOM      9  C   UNL     1       3.363   2.941  17.203  0.00  0.00    +0.000 A 
ATOM     10  C   UNL     1       3.574   4.330  17.357  0.00  0.00    +0.000 A 
ENDROOT
BRANCH   1  12
ATOM     11  C   UNL     1       6.796   4.385  15.966  0.00  0.00    +0.000 C 
ATOM     12  O   UNL     1       5.387   4.238  15.804  0.00  0.00    +0.000 OA
ENDBRANCH   1  12
BRANCH   4  13
ATOM     13  C   UNL     1       2.213   7.310  19.348  0.00  0.00    +0.000 C 
ATOM     14  N   UNL     1       1.781   8.481  18.994  0.00  0.00    +0.000 NA
BRANCH  14  15
ATOM     15  N   UNL     1       1.114   9.189  19.944  0.00  0.00    +0.000 N 
ATOM     16  C   UNL     1       0.094  10.072  19.592  0.00  0.00    +0.000 C 
ATOM     17  O   UNL     1      -0.267  10.265  18.433  0.00  0.00    +0.000 OA
ATOM     18  H   UNL     1       1.363   9.090  20.920  0.00  0.00    +0.000 HD
BRANCH  16  19
ATOM     19  C   UNL     1      -0.528  10.758  20.725  0.00  0.00    +0.000 A 
ATOM     20  C   UNL     1      -1.352  11.871  20.670  0.00  0.00    +0.000 A 
ATOM     21  C   UNL     1      -1.809  12.283  21.955  0.00  0.00    +0.000 A 
ATOM     22  C   UNL     1      -1.314  11.480  22.957  0.00  0.00    +0.000 A 
ATOM     23  S   UNL     1      -0.304  10.244  22.348  0.00  0.00    +0.000 S 
ENDBRANCH  16  19
ENDBRANCH  14  15
ENDBRANCH   4  13
TORSDOF 4
ENDMDL
MODEL 2
REMARK VINA RESULT:      -7.3      1.330      1.496
REMARK  Name = 
REMARK  5 active torsions:
REMARK  status: ('A' for Active; 'I' for Inactive)
REMARK    1  A    between atoms: C_1  and  O_2
REMARK    2  A    between atoms: O_2  and  C_3
REMARK    3  A    between atoms: C_6  and  C_7
REMARK    4  A    between atoms: N_8  and  N_9
REMARK    5  A    between atoms: C_10  and  C_12
REMARK                            x       y       z     vdW  Elec       q    Type
REMARK                         _______ _______ _______ _____ _____    ______ ____
ROOT
ATOM      1  C   UNL     1       4.867   4.686  16.543  0.00  0.00    +0.000 A 
ATOM      2  C   UNL     1       5.210   6.034  16.440  0.00  0.00    +0.000 A 
ATOM      3  C   UNL     1       4.444   6.996  17.081  0.00  0.00    +0.000 A 
ATOM      4  C   UNL     1       3.312   6.634  17.823  0.00  0.00    +0.000 A 
ATOM      5  C   UNL     1       2.903   5.273  17.908  0.00  0.00    +0.000 A 
ATOM      6  C   UNL     1       1.747   4.822  18.601  0.00  0.00    +0.000 A 
ATOM      7  C   UNL     1       1.393   3.472  18.656  0.00  0.00    +0.000 A 
ATOM      8  C   UNL     1       2.180   2.526  18.023  0.00  0.00    +0.000 A 
ATOM      9  C   UNL     1       3.320   2.934  17.332  0.00  0.00    +0.000 A 
ATOM     10  C   UNL     1       3.702   4.292  17.252  0.00  0.00    +0.000 A 
ENDROOT
BRANCH   1  12
ATOM     11  C   UNL     1       6.177   4.023  14.676  0.00  0.00    +0.000 C 
ATOM     12  O   UNL     1       5.605   3.692  15.940  0.00  0.00    +0.000 OA
ENDBRANCH   1  12
BRANCH   4  13
ATOM     13  C   UNL     1       2.597   7.738  18.517  0.00  0.00    +0.000 C 
ATOM     14  N   UNL     1       1.934   8.629  17.847  0.00  0.00    +0.000 NA
BRANCH  14  15
ATOM     15  N   UNL     1       1.334   9.608  18.576  0.00  0.00    +0.000 N 
ATOM     16  C   UNL     1       0.038  10.028  18.280  0.00  0.00    +0.000 C 
ATOM     17  O   UNL     1      -0.636   9.555  17.367  0.00  0.00    +0.000 OA
ATOM     18  H   UNL     1       1.832  10.051  19.338  0.00  0.00    +0.000 HD
BRANCH  16  19
ATOM     19  C   UNL     1      -0.468  11.087  19.154  0.00  0.00    +0.000 A 
ATOM     20  C   UNL     1      -0.776  10.975  20.501  0.00  0.00    +0.000 A 
ATOM     21  C   UNL     1      -1.229  12.202  21.066  0.00  0.00    +0.000 A 
ATOM     22  C   UNL     1      -1.263  13.214  20.135  0.00  0.00    +0.000 A 
ATOM     23  S   UNL     1      -0.758  12.683  18.592  0.00  0.00    +0.000 S 
ENDBRANCH  16  19
ENDBRANCH  14  15
ENDBRANCH   4  13
TORSDOF 4
ENDMDL
MODEL 3
REMARK VINA RESULT:      -7.3      1.647      2.945
REMARK  Name = 
REMARK  5 active torsions:
REMARK  status: ('A' for Active; 'I' for Inactive)
REMARK    1  A    between atoms: C_1  and  O_2
REMARK    2  A    between atoms: O_2  and  C_3
REMARK    3  A    between atoms: C_6  and  C_7
REMARK    4  A    between atoms: N_8  and  N_9
REMARK    5  A    between atoms: C_10  and  C_12
REMARK                            x       y       z     vdW  Elec       q    Type
REMARK                         _______ _______ _______ _____ _____    ______ ____
ROOT
ATOM      1  C   UNL     1       2.917   3.268  18.150  0.00  0.00    +0.000 A 
ATOM      2  C   UNL     1       2.021   3.538  19.183  0.00  0.00    +0.000 A 
ATOM      3  C   UNL     1       1.793   4.846  19.581  0.00  0.00    +0.000 A 
ATOM      4  C   UNL     1       2.468   5.910  18.967  0.00  0.00    +0.000 A 
ATOM      5  C   UNL     1       3.428   5.668  17.943  0.00  0.00    +0.000 A 
ATOM      6  C   UNL     1       4.186   6.681  17.297  0.00  0.00    +0.000 A 
ATOM      7  C   UNL     1       5.115   6.388  16.295  0.00  0.00    +0.000 A 
ATOM      8  C   UNL     1       5.315   5.076  15.901  0.00  0.00    +0.000 A 
ATOM      9  C   UNL     1       4.588   4.058  16.516  0.00  0.00    +0.000 A 
ATOM     10  C   UNL     1       3.647   4.320  17.537  0.00  0.00    +0.000 A 
ENDROOT
BRANCH   1  12
ATOM     11  C   UNL     1       3.895   1.151  18.602  0.00  0.00    +0.000 C 
ATOM     12  O   UNL     1       3.164   1.987  17.707  0.00  0.00    +0.000 OA
ENDBRANCH   1  12
BRANCH   4  13
ATOM     13  C   UNL     1       2.105   7.276  19.429  0.00  0.00    +0.000 C 
ATOM     14  N   UNL     1       1.606   7.470  20.611  0.00  0.00    +0.000 NA
BRANCH  14  15
ATOM     15  N   UNL     1       1.290   8.754  20.928  0.00  0.00    +0.000 N 
ATOM     16  C   UNL     1       0.060   9.066  21.504  0.00  0.00    +0.000 C 
ATOM     17  O   UNL     1      -0.801   8.227  21.762  0.00  0.00    +0.000 OA
ATOM     18  H   UNL     1       1.947   9.501  20.736  0.00  0.00    +0.000 HD
BRANCH  16  19
ATOM     19  C   UNL     1      -0.131  10.489  21.788  0.00  0.00    +0.000 A 
ATOM     20  C   UNL     1       0.500  11.551  21.161  0.00  0.00    +0.000 A 
ATOM     21  C   UNL     1       0.075  12.817  21.659  0.00  0.00    +0.000 A 
ATOM     22  C   UNL     1      -0.861  12.686  22.659  0.00  0.00    +0.000 A 
ATOM     23  S   UNL     1      -1.218  11.049  22.993  0.00  0.00    +0.000 S 
ENDBRANCH  16  19
ENDBRANCH  14  15
ENDBRANCH   4  13
TORSDOF 4
ENDMDL
MODEL 4
REMARK VINA RESULT:      -7.2      2.199      3.546
REMARK  Name = 
REMARK  5 active torsions:
REMARK  status: ('A' for Active; 'I' for Inactive)
REMARK    1  A    between atoms: C_1  and  O_2
REMARK    2  A    between atoms: O_2  and  C_3
REMARK    3  A    between atoms: C_6  and  C_7
REMARK    4  A    between atoms: N_8  and  N_9
REMARK    5  A    between atoms: C_10  and  C_12
REMARK                            x       y       z     vdW  Elec       q    Type
REMARK                         _______ _______ _______ _____ _____    ______ ____
ROOT
ATOM      1  C   UNL     1       3.670   3.909  17.646  0.00  0.00    +0.000 A 
ATOM      2  C   UNL     1       2.428   4.425  18.017  0.00  0.00    +0.000 A 
ATOM      3  C   UNL     1       2.244   5.797  18.103  0.00  0.00    +0.000 A 
ATOM      4  C   UNL     1       3.299   6.680  17.838  0.00  0.00    +0.000 A 
ATOM      5  C   UNL     1       4.594   6.188  17.506  0.00  0.00    +0.000 A 
ATOM      6  C   UNL     1       5.728   7.009  17.264  0.00  0.00    +0.000 A 
ATOM      7  C   UNL     1       6.977   6.473  16.939  0.00  0.00    +0.000 A 
ATOM      8  C   UNL     1       7.135   5.101  16.842  0.00  0.00    +0.000 A 
ATOM      9  C   UNL     1       6.043   4.267  17.076  0.00  0.00    +0.000 A 
ATOM     10  C   UNL     1       4.769   4.776  17.412  0.00  0.00    +0.000 A 
ENDROOT
BRANCH   1  12
ATOM     11  C   UNL     1       3.087   1.716  18.349  0.00  0.00    +0.000 C 
ATOM     12  O   UNL     1       3.898   2.556  17.529  0.00  0.00    +0.000 OA
ENDBRANCH   1  12
BRANCH   4  13
ATOM     13  C   UNL     1       2.977   8.130  17.902  0.00  0.00    +0.000 C 
ATOM     14  N   UNL     1       1.768   8.555  17.702  0.00  0.00    +0.000 NA
BRANCH  14  15
ATOM     15  N   UNL     1       1.584   9.901  17.762  0.00  0.00    +0.000 N 
ATOM     16  C   UNL     1       0.962  10.489  18.862  0.00  0.00    +0.000 C 
ATOM     17  O   UNL     1       0.549   9.851  19.830  0.00  0.00    +0.000 OA
ATOM     18  H   UNL     1       1.889  10.490  16.997  0.00  0.00    +0.000 HD
BRANCH  16  19
ATOM     19  C   UNL     1       0.839  11.945  18.780  0.00  0.00    +0.000 A 
ATOM     20  C   UNL     1      -0.333  12.671  18.645  0.00  0.00    +0.000 A 
ATOM     21  C   UNL     1      -0.109  14.078  18.615  0.00  0.00    +0.000 A 
ATOM     22  C   UNL     1       1.227  14.387  18.719  0.00  0.00    +0.000 A 
ATOM     23  S   UNL     1       2.200  12.988  18.847  0.00  0.00    +0.000 S 
ENDBRANCH  16  19
ENDBRANCH  14  15
ENDBRANCH   4  13
TORSDOF 4
ENDMDL
MODEL 5
REMARK VINA RESULT:      -7.2      1.680      1.840
REMARK  Name = 
REMARK  5 active torsions:
REMARK  status: ('A' for Active; 'I' for Inactive)
REMARK    1  A    between atoms: C_1  and  O_2
REMARK    2  A    between atoms: O_2  and  C_3
REMARK    3  A    between atoms: C_6  and  C_7
REMARK    4  A    between atoms: N_8  and  N_9
REMARK    5  A    between atoms: C_10  and  C_12
REMARK                            x       y       z     vdW  Elec       q    Type
REMARK                         _______ _______ _______ _____ _____    ______ ____
ROOT
ATOM      1  C   UNL     1       5.205   4.945  16.795  0.00  0.00    +0.000 A 
ATOM      2  C   UNL     1       5.429   6.319  16.707  0.00  0.00    +0.000 A 
ATOM      3  C   UNL     1       4.466   7.210  17.158  0.00  0.00    +0.000 A 
ATOM      4  C   UNL     1       3.254   6.747  17.688  0.00  0.00    +0.000 A 
ATOM      5  C   UNL     1       2.970   5.353  17.746  0.00  0.00    +0.000 A 
ATOM      6  C   UNL     1       1.753   4.800  18.228  0.00  0.00    +0.000 A 
ATOM      7  C   UNL     1       1.527   3.422  18.266  0.00  0.00    +0.000 A 
ATOM      8  C   UNL     1       2.508   2.550  17.826  0.00  0.00    +0.000 A 
ATOM      9  C   UNL     1       3.713   3.059  17.345  0.00  0.00    +0.000 A 
ATOM     10  C   UNL     1       3.970   4.447  17.288  0.00  0.00    +0.000 A 
ENDROOT
BRANCH   1  12
ATOM     11  C   UNL     1       6.456   4.045  14.988  0.00  0.00    +0.000 C 
ATOM     12  O   UNL     1       6.137   4.020  16.378  0.00  0.00    +0.000 OA
ENDBRANCH   1  12
BRANCH   4  13
ATOM     13  C   UNL     1       2.318   7.786  18.196  0.00  0.00    +0.000 C 
ATOM     14  N   UNL     1       2.073   8.857  17.507  0.00  0.00    +0.000 NA
BRANCH  14  15
ATOM     15  N   UNL     1       1.218   9.753  18.070  0.00  0.00    +0.000 N 
ATOM     16  C   UNL     1       1.592  11.084  18.247  0.00  0.00    +0.000 C 
ATOM     17  O   UNL     1       2.688  11.531  17.916  0.00  0.00    +0.000 OA
ATOM     18  H   UNL     1       0.301   9.455  18.377  0.00  0.00    +0.000 HD
BRANCH  16  19
ATOM     19  C   UNL     1       0.564  11.923  18.865  0.00  0.00    +0.000 A 
ATOM     20  C   UNL     1       0.643  13.284  19.111  0.00  0.00    +0.000 A 
ATOM     21  C   UNL     1      -0.541  13.805  19.708  0.00  0.00    +0.000 A 
ATOM     22  C   UNL     1      -1.487  12.827  19.910  0.00  0.00    +0.000 A 
ATOM     23  S   UNL     1      -0.946  11.294  19.386  0.00  0.00    +0.000 S 
ENDBRANCH  16  19
ENDBRANCH  14  15
ENDBRANCH   4  13
TORSDOF 4
ENDMDL
MODEL 6
REMARK VINA RESULT:      -7.2      2.303      3.558
REMARK  Name = 
REMARK  5 active torsions:
REMARK  status: ('A' for Active; 'I' for Inactive)
REMARK    1  A    between atoms: C_1  and  O_2
REMARK    2  A    between atoms: O_2  and  C_3
REMARK    3  A    between atoms: C_6  and  C_7
REMARK    4  A    between atoms: N_8  and  N_9
REMARK    5  A    between atoms: C_10  and  C_12
REMARK                            x       y       z     vdW  Elec       q    Type
REMARK                         _______ _______ _______ _____ _____    ______ ____
ROOT
ATOM      1  C   UNL     1       3.160   3.672  17.824  0.00  0.00    +0.000 A 
ATOM      2  C   UNL     1       2.274   4.315  18.687  0.00  0.00    +0.000 A 
ATOM      3  C   UNL     1       2.254   5.700  18.756  0.00  0.00    +0.000 A 
ATOM      4  C   UNL     1       3.130   6.469  17.977  0.00  0.00    +0.000 A 
ATOM      5  C   UNL     1       4.082   5.845  17.123  0.00  0.00    +0.000 A 
ATOM      6  C   UNL     1       5.033   6.545  16.332  0.00  0.00    +0.000 A 
ATOM      7  C   UNL     1       5.945   5.882  15.507  0.00  0.00    +0.000 A 
ATOM      8  C   UNL     1       5.937   4.499  15.441  0.00  0.00    +0.000 A 
ATOM      9  C   UNL     1       5.018   3.781  16.205  0.00  0.00    +0.000 A 
ATOM     10  C   UNL     1       4.087   4.421  17.054  0.00  0.00    +0.000 A 
ENDROOT
BRANCH   1  12
ATOM     11  C   UNL     1       3.435   1.580  18.916  0.00  0.00    +0.000 C 
ATOM     12  O   UNL     1       3.206   2.300  17.706  0.00  0.00    +0.000 OA
ENDBRANCH   1  12
BRANCH   4  13
ATOM     13  C   UNL     1       2.984   7.945  18.085  0.00  0.00    +0.000 C 
ATOM     14  N   UNL     1       1.943   8.550  17.601  0.00  0.00    +0.000 NA
BRANCH  14  15
ATOM     15  N   UNL     1       1.917   9.903  17.733  0.00  0.00    +0.000 N 
ATOM     16  C   UNL     1       1.102  10.513  18.686  0.00  0.00    +0.000 C 
ATOM     17  O   UNL     1       0.373   9.889  19.454  0.00  0.00    +0.000 OA
ATOM     18  H   UNL     1       2.484  10.483  17.128  0.00  0.00    +0.000 HD
BRANCH  16  19
ATOM     19  C   UNL     1       1.185  11.974  18.706  0.00  0.00    +0.000 A 
ATOM     20  C   UNL     1       2.297  12.745  18.407  0.00  0.00    +0.000 A 
ATOM     21  C   UNL     1       2.039  14.143  18.503  0.00  0.00    +0.000 A 
ATOM     22  C   UNL     1       0.741  14.401  18.881  0.00  0.00    +0.000 A 
ATOM     23  S   UNL     1      -0.153  12.965  19.122  0.00  0.00    +0.000 S 
ENDBRANCH  16  19
ENDBRANCH  14  15
ENDBRANCH   4  13
TORSDOF 4
ENDMDL
MODEL 7
REMARK VINA RESULT:      -7.2      1.668      1.825
REMARK  Name = 
REMARK  5 active torsions:
REMARK  status: ('A' for Active; 'I' for Inactive)
REMARK    1  A    between atoms: C_1  and  O_2
REMARK    2  A    between atoms: O_2  and  C_3
REMARK    3  A    between atoms: C_6  and  C_7
REMARK    4  A    between atoms: N_8  and  N_9
REMARK    5  A    between atoms: C_10  and  C_12
REMARK                            x       y       z     vdW  Elec       q    Type
REMARK                         _______ _______ _______ _____ _____    ______ ____
ROOT
ATOM      1  C   UNL     1       5.317   5.003  17.406  0.00  0.00    +0.000 A 
ATOM      2  C   UNL     1       5.410   6.384  17.237  0.00  0.00    +0.000 A 
ATOM      3  C   UNL     1       4.279   7.177  17.367  0.00  0.00    +0.000 A 
ATOM      4  C   UNL     1       3.032   6.606  17.651  0.00  0.00    +0.000 A 
ATOM      5  C   UNL     1       2.890   5.195  17.780  0.00  0.00    +0.000 A 
ATOM      6  C   UNL     1       1.659   4.530  18.024  0.00  0.00    +0.000 A 
ATOM      7  C   UNL     1       1.576   3.140  18.144  0.00  0.00    +0.000 A 
ATOM      8  C   UNL     1       2.719   2.368  18.028  0.00  0.00    +0.000 A 
ATOM      9  C   UNL     1       3.943   2.989  17.786  0.00  0.00    +0.000 A 
ATOM     10  C   UNL     1       4.060   4.391  17.653  0.00  0.00    +0.000 A 
ENDROOT
BRANCH   1  12
ATOM     11  C   UNL     1       7.636   4.698  17.819  0.00  0.00    +0.000 C 
ATOM     12  O   UNL     1       6.413   4.174  17.305  0.00  0.00    +0.000 OA
ENDBRANCH   1  12
BRANCH   4  13
ATOM     13  C   UNL     1       1.898   7.552  17.828  0.00  0.00    +0.000 C 
ATOM     14  N   UNL     1       2.084   8.835  17.767  0.00  0.00    +0.000 NA
BRANCH  14  15
ATOM     15  N   UNL     1       0.985   9.612  17.962  0.00  0.00    +0.000 N 
ATOM     16  C   UNL     1       0.547   9.921  19.248  0.00  0.00    +0.000 C 
ATOM     17  O   UNL     1       1.107   9.526  20.269  0.00  0.00    +0.000 OA
ATOM     18  H   UNL     1       0.466   9.966  17.168  0.00  0.00    +0.000 HD
BRANCH  16  19
ATOM     19  C   UNL     1      -0.646  10.767  19.294  0.00  0.00    +0.000 A 
ATOM     20  C   UNL     1      -0.926  11.756  20.222  0.00  0.00    +0.000 A 
ATOM     21  C   UNL     1      -2.167  12.411  19.973  0.00  0.00    +0.000 A 
ATOM     22  C   UNL     1      -2.805  11.897  18.867  0.00  0.00    +0.000 A 
ATOM     23  S   UNL     1      -1.912  10.634  18.142  0.00  0.00    +0.000 S 
ENDBRANCH  16  19
ENDBRANCH  14  15
ENDBRANCH   4  13
TORSDOF 4
ENDMDL
MODEL 8
REMARK VINA RESULT:      -7.1      1.816      3.058
REMARK  Name = 
REMARK  5 active torsions:
REMARK  status: ('A' for Active; 'I' for Inactive)
REMARK    1  A    between atoms: C_1  and  O_2
REMARK    2  A    between atoms: O_2  and  C_3
REMARK    3  A    between atoms: C_6  and  C_7
REMARK    4  A    between atoms: N_8  and  N_9
REMARK    5  A    between atoms: C_10  and  C_12
REMARK                            x       y       z     vdW  Elec       q    Type
REMARK                         _______ _______ _______ _____ _____    ______ ____
ROOT
ATOM      1  C   UNL     1       3.721   3.695  19.031  0.00  0.00    +0.000 A 
ATOM      2  C   UNL     1       2.928   3.953  20.149  0.00  0.00    +0.000 A 
ATOM      3  C   UNL     1       2.427   5.228  20.365  0.00  0.00    +0.000 A 
ATOM      4  C   UNL     1       2.722   6.273  19.480  0.00  0.00    +0.000 A 
ATOM      5  C   UNL     1       3.570   6.059  18.357  0.00  0.00    +0.000 A 
ATOM      6  C   UNL     1       3.955   7.069  17.435  0.00  0.00    +0.000 A 
ATOM      7  C   UNL     1       4.789   6.803  16.346  0.00  0.00    +0.000 A 
ATOM      8  C   UNL     1       5.264   5.519  16.139  0.00  0.00    +0.000 A 
ATOM      9  C   UNL     1       4.908   4.505  17.026  0.00  0.00    +0.000 A 
ATOM     10  C   UNL     1       4.072   4.742  18.140  0.00  0.00    +0.000 A 
ENDROOT
BRANCH   1  12
ATOM     11  C   UNL     1       3.271   1.456  18.377  0.00  0.00    +0.000 C 
ATOM     12  O   UNL     1       4.227   2.442  18.763  0.00  0.00    +0.000 OA
ENDBRANCH   1  12
BRANCH   4  13
ATOM     13  C   UNL     1       2.086   7.586  19.775  0.00  0.00    +0.000 C 
ATOM     14  N   UNL     1       1.671   7.873  20.970  0.00  0.00    +0.000 NA
BRANCH  14  15
ATOM     15  N   UNL     1       1.086   9.090  21.128  0.00  0.00    +0.000 N 
ATOM     16  C   UNL     1      -0.192   9.204  21.673  0.00  0.00    +0.000 C 
ATOM     17  O   UNL     1      -0.861   8.241  22.042  0.00  0.00    +0.000 OA
ATOM     18  H   UNL     1       1.573   9.929  20.837  0.00  0.00    +0.000 HD
BRANCH  16  19
ATOM     19  C   UNL     1      -0.683  10.579  21.779  0.00  0.00    +0.000 A 
ATOM     20  C   UNL     1      -1.002  11.258  22.943  0.00  0.00    +0.000 A 
ATOM     21  C   UNL     1      -1.435  12.594  22.701  0.00  0.00    +0.000 A 
ATOM     22  C   UNL     1      -1.444  12.895  21.359  0.00  0.00    +0.000 A 
ATOM     23  S   UNL     1      -0.938  11.573  20.402  0.00  0.00    +0.000 S 
ENDBRANCH  16  19
ENDBRANCH  14  15
ENDBRANCH   4  13
TORSDOF 4
ENDMDL
MODEL 9
REMARK VINA RESULT:      -7.1      1.290      1.518
REMARK  Name = 
REMARK  5 active torsions:
REMARK  status: ('A' for Active; 'I' for Inactive)
REMARK    1  A    between atoms: C_1  and  O_2
REMARK    2  A    between atoms: O_2  and  C_3
REMARK    3  A    between atoms: C_6  and  C_7
REMARK    4  A    between atoms: N_8  and  N_9
REMARK    5  A    between atoms: C_10  and  C_12
REMARK                            x       y       z     vdW  Elec       q    Type
REMARK                         _______ _______ _______ _____ _____    ______ ____
ROOT
ATOM      1  C   UNL     1       3.790   4.727  17.581  0.00  0.00    +0.000 A 
ATOM      2  C   UNL     1       3.937   6.079  17.276  0.00  0.00    +0.000 A 
ATOM      3  C   UNL     1       3.291   7.038  18.041  0.00  0.00    +0.000 A 
ATOM      4  C   UNL     1       2.474   6.666  19.116  0.00  0.00    +0.000 A 
ATOM      5  C   UNL     1       2.260   5.293  19.426  0.00  0.00    +0.000 A 
ATOM      6  C   UNL     1       1.415   4.826  20.469  0.00  0.00    +0.000 A 
ATOM      7  C   UNL     1       1.243   3.465  20.733  0.00  0.00    +0.000 A 
ATOM      8  C   UNL     1       1.909   2.524  19.966  0.00  0.00    +0.000 A 
ATOM      9  C   UNL     1       2.744   2.948  18.934  0.00  0.00    +0.000 A 
ATOM     10  C   UNL     1       2.935   4.316  18.638  0.00  0.00    +0.000 A 
ENDROOT
BRANCH   1  12
ATOM     11  C   UNL     1       5.575   4.146  16.126  0.00  0.00    +0.000 C 
ATOM     12  O   UNL     1       4.424   3.737  16.862  0.00  0.00    +0.000 OA
ENDBRANCH   1  12
BRANCH   4  13
ATOM     13  C   UNL     1       1.877   7.776  19.906  0.00  0.00    +0.000 C 
ATOM     14  N   UNL     1       1.579   8.908  19.347  0.00  0.00    +0.000 NA
BRANCH  14  15
ATOM     15  N   UNL     1       1.058   9.864  20.162  0.00  0.00    +0.000 N 
ATOM     16  C   UNL     1      -0.241  10.332  19.976  0.00  0.00    +0.000 C 
ATOM     17  O   UNL     1      -0.988   9.924  19.088  0.00  0.00    +0.000 OA
ATOM     18  H   UNL     1       1.619  10.254  20.910  0.00  0.00    +0.000 HD
BRANCH  16  19
ATOM     19  C   UNL     1      -0.657  11.358  20.932  0.00  0.00    +0.000 A 
ATOM     20  C   UNL     1      -0.831  11.197  22.298  0.00  0.00    +0.000 A 
ATOM     21  C   UNL     1      -1.224  12.402  22.949  0.00  0.00    +0.000 A 
ATOM     22  C   UNL     1      -1.349  13.447  22.063  0.00  0.00    +0.000 A 
ATOM     23  S   UNL     1      -0.998  12.973  20.459  0.00  0.00    +0.000 S 
ENDBRANCH  16  19
ENDBRANCH  14  15
ENDBRANCH   4  13
TORSDOF 4
ENDMDL
