MODEL 1
REMARK VINA RESULT:      -7.6      0.000      0.000
REMARK  Name = 
REMARK  7 active torsions:
REMARK  status: ('A' for Active; 'I' for Inactive)
REMARK    1  A    between atoms: C_1  and  O_2
REMARK    2  A    between atoms: O_2  and  C_3
REMARK    3  A    between atoms: C_6  and  C_7
REMARK    4  A    between atoms: C_9  and  S_10
REMARK    5  A    between atoms: S_10  and  N_13
REMARK    6  A    between atoms: C_15  and  C_16
REMARK    7  A    between atoms: C_18  and  C_19
REMARK                            x       y       z     vdW  Elec       q    Type
REMARK                         _______ _______ _______ _____ _____    ______ ____
ROOT
ATOM      1  S   UNL     1       4.125   3.361  18.709  0.00  0.00    +0.000 S 
ATOM      2  O   UNL     1       3.097   2.604  18.018  0.00  0.00    +0.000 OA
ATOM      3  O   UNL     1       4.877   2.771  19.803  0.00  0.00    +0.000 OA
ENDROOT
BRANCH   1  10
ATOM      4  C   UNL     1       6.425   4.694  17.911  0.00  0.00    +0.000 A 
ATOM      5  C   UNL     1       7.331   5.097  16.920  0.00  0.00    +0.000 A 
ATOM      6  C   UNL     1       7.073   4.853  15.568  0.00  0.00    +0.000 A 
ATOM      7  C   UNL     1       5.907   4.195  15.176  0.00  0.00    +0.000 A 
ATOM      8  C   UNL     1       5.625   3.930  13.727  0.00  0.00    +0.000 C 
ATOM      9  C   UNL     1       5.008   3.770  16.158  0.00  0.00    +0.000 A 
ATOM     10  C   UNL     1       5.268   4.012  17.517  0.00  0.00    +0.000 A 
BRANCH   4  12
ATOM     11  C   UNL     1       7.731   5.739  19.601  0.00  0.00    +0.000 C 
ATOM     12  O   UNL     1       6.628   4.905  19.248  0.00  0.00    +0.000 OA
ENDBRANCH   4  12
ENDBRANCH   1  10
BRANCH   1  13
ATOM     13  N   UNL     1       3.276   4.731  19.364  0.00  0.00    +0.000 N 
ATOM     14  N   UNL     1       3.184   5.947  18.742  0.00  0.00    +0.000 NA
ATOM     15  C   UNL     1       2.363   6.657  19.522  0.00  0.00    +0.000 A 
ATOM     16  C   UNL     1       2.063   8.077  19.217  0.00  0.00    +0.000 C 
ATOM     17  C   UNL     1       1.856   5.891  20.592  0.00  0.00    +0.000 A 
ATOM     18  C   UNL     1       2.409   4.636  20.447  0.00  0.00    +0.000 A 
ATOM     19  C   UNL     1       2.175   3.408  21.250  0.00  0.00    +0.000 C 
ENDBRANCH   1  13
TORSDOF 3
ENDMDL
MODEL 2
REMARK VINA RESULT:      -7.4      3.048      5.067
REMARK  Name = 
REMARK  7 active torsions:
REMARK  status: ('A' for Active; 'I' for Inactive)
REMARK    1  A    between atoms: C_1  and  O_2
REMARK    2  A    between atoms: O_2  and  C_3
REMARK    3  A    between atoms: C_6  and  C_7
REMARK    4  A    between atoms: C_9  and  S_10
REMARK    5  A    between atoms: S_10  and  N_13
REMARK    6  A    between atoms: C_15  and  C_16
REMARK    7  A    between atoms: C_18  and  C_19
REMARK                            x       y       z     vdW  Elec       q    Type
REMARK                         _______ _______ _______ _____ _____    ______ ____
ROOT
ATOM      1  S   UNL     1       5.642   5.863  15.924  0.00  0.00    +0.000 S 
ATOM      2  O   UNL     1       6.355   4.719  15.384  0.00  0.00    +0.000 OA
ATOM      3  O   UNL     1       5.098   6.884  15.046  0.00  0.00    +0.000 OA
ENDROOT
BRANCH   1  10
ATOM      4  C   UNL     1       3.533   6.183  17.699  0.00  0.00    +0.000 A 
ATOM      5  C   UNL     1       2.474   5.663  18.456  0.00  0.00    +0.000 A 
ATOM      6  C   UNL     1       2.258   4.284  18.538  0.00  0.00    +0.000 A 
ATOM      7  C   UNL     1       3.091   3.394  17.860  0.00  0.00    +0.000 A 
ATOM      8  C   UNL     1       2.863   1.914  17.944  0.00  0.00    +0.000 C 
ATOM      9  C   UNL     1       4.137   3.904  17.085  0.00  0.00    +0.000 A 
ATOM     10  C   UNL     1       4.352   5.289  17.000  0.00  0.00    +0.000 A 
BRANCH   4  12
ATOM     11  C   UNL     1       2.698   8.405  17.841  0.00  0.00    +0.000 C 
ATOM     12  O   UNL     1       3.789   7.523  17.583  0.00  0.00    +0.000 OA
ENDBRANCH   4  12
ENDBRANCH   1  10
BRANCH   1  13
ATOM     13  N   UNL     1       6.811   6.649  16.945  0.00  0.00    +0.000 N 
ATOM     14  N   UNL     1       7.047   7.998  16.946  0.00  0.00    +0.000 NA
ATOM     15  C   UNL     1       7.919   8.181  17.943  0.00  0.00    +0.000 A 
ATOM     16  C   UNL     1       8.483   9.523  18.222  0.00  0.00    +0.000 C 
ATOM     17  C   UNL     1       8.184   6.984  18.640  0.00  0.00    +0.000 A 
ATOM     18  C   UNL     1       7.421   6.015  18.022  0.00  0.00    +0.000 A 
ATOM     19  C   UNL     1       7.255   4.582  18.377  0.00  0.00    +0.000 C 
ENDBRANCH   1  13
TORSDOF 3
ENDMDL
MODEL 3
REMARK VINA RESULT:      -7.3      1.551      5.181
REMARK  Name = 
REMARK  7 active torsions:
REMARK  status: ('A' for Active; 'I' for Inactive)
REMARK    1  A    between atoms: C_1  and  O_2
REMARK    2  A    between atoms: O_2  and  C_3
REMARK    3  A    between atoms: C_6  and  C_7
REMARK    4  A    between atoms: C_9  and  S_10
REMARK    5  A    between atoms: S_10  and  N_13
REMARK    6  A    between atoms: C_15  and  C_16
REMARK    7  A    between atoms: C_18  and  C_19
REMARK                            x       y       z     vdW  Elec       q    Type
REMARK                         _______ _______ _______ _____ _____    ______ ____
ROOT
ATOM      1  S   UNL     1       4.263   3.428  18.661  0.00  0.00    +0.000 S 
ATOM      2  O   UNL     1       5.073   3.003  19.788  0.00  0.00    +0.000 OA
ATOM      3  O   UNL     1       3.417   2.484  17.952  0.00  0.00    +0.000 OA
ENDROOT
BRANCH   1  10
ATOM      4  C   UNL     1       2.547   4.820  20.341  0.00  0.00    +0.000 A 
ATOM      5  C   UNL     1       1.867   5.990  20.708  0.00  0.00    +0.000 A 
ATOM      6  C   UNL     1       1.892   7.123  19.890  0.00  0.00    +0.000 A 
ATOM      7  C   UNL     1       2.600   7.115  18.688  0.00  0.00    +0.000 A 
ATOM      8  C   UNL     1       2.631   8.328  17.807  0.00  0.00    +0.000 C 
ATOM      9  C   UNL     1       3.299   5.960  18.323  0.00  0.00    +0.000 A 
ATOM     10  C   UNL     1       3.277   4.823  19.147  0.00  0.00    +0.000 A 
BRANCH   4  12
ATOM     11  C   UNL     1       1.330   2.963  21.191  0.00  0.00    +0.000 C 
ATOM     12  O   UNL     1       2.558   3.684  21.104  0.00  0.00    +0.000 OA
ENDBRANCH   4  12
ENDBRANCH   1  10
BRANCH   1  13
ATOM     13  N   UNL     1       5.419   4.031  17.509  0.00  0.00    +0.000 N 
ATOM     14  N   UNL     1       5.304   3.879  16.153  0.00  0.00    +0.000 NA
ATOM     15  C   UNL     1       6.327   4.579  15.653  0.00  0.00    +0.000 A 
ATOM     16  C   UNL     1       6.591   4.603  14.195  0.00  0.00    +0.000 C 
ATOM     17  C   UNL     1       7.051   5.250  16.660  0.00  0.00    +0.000 A 
ATOM     18  C   UNL     1       6.422   4.933  17.846  0.00  0.00    +0.000 A 
ATOM     19  C   UNL     1       6.714   5.413  19.222  0.00  0.00    +0.000 C 
ENDBRANCH   1  13
TORSDOF 3
ENDMDL
MODEL 4
REMARK VINA RESULT:      -7.1      2.484      5.457
REMARK  Name = 
REMARK  7 active torsions:
REMARK  status: ('A' for Active; 'I' for Inactive)
REMARK    1  A    between atoms: C_1  and  O_2
REMARK    2  A    between atoms: O_2  and  C_3
REMARK    3  A    between atoms: C_6  and  C_7
REMARK    4  A    between atoms: C_9  and  S_10
REMARK    5  A    between atoms: S_10  and  N_13
REMARK    6  A    between atoms: C_15  and  C_16
REMARK    7  A    between atoms: C_18  and  C_19
REMARK                            x       y       z     vdW  Elec       q    Type
REMARK                         _______ _______ _______ _____ _____    ______ ____
ROOT
ATOM      1  S   UNL     1       6.766   5.499  17.637  0.00  0.00    +0.000 S 
ATOM      2  O   UNL     1       7.494   6.755  17.669  0.00  0.00    +0.000 OA
ATOM      3  O   UNL     1       7.295   4.314  18.290  0.00  0.00    +0.000 OA
ENDROOT
BRANCH   1  10
ATOM      4  C   UNL     1       4.519   4.942  19.168  0.00  0.00    +0.000 A 
ATOM      5  C   UNL     1       3.242   5.273  19.643  0.00  0.00    +0.000 A 
ATOM      6  C   UNL     1       2.558   6.387  19.148  0.00  0.00    +0.000 A 
ATOM      7  C   UNL     1       3.136   7.199  18.172  0.00  0.00    +0.000 A 
ATOM      8  C   UNL     1       2.406   8.396  17.638  0.00  0.00    +0.000 C 
ATOM      9  C   UNL     1       4.418   6.890  17.708  0.00  0.00    +0.000 A 
ATOM     10  C   UNL     1       5.107   5.773  18.208  0.00  0.00    +0.000 A 
BRANCH   4  12
ATOM     11  C   UNL     1       4.496   2.673  19.877  0.00  0.00    +0.000 C 
ATOM     12  O   UNL     1       5.235   3.865  19.619  0.00  0.00    +0.000 OA
ENDBRANCH   4  12
ENDBRANCH   1  10
BRANCH   1  13
ATOM     13  N   UNL     1       6.640   5.125  15.942  0.00  0.00    +0.000 N 
ATOM     14  N   UNL     1       7.539   5.536  14.995  0.00  0.00    +0.000 NA
ATOM     15  C   UNL     1       7.130   4.941  13.870  0.00  0.00    +0.000 A 
ATOM     16  C   UNL     1       7.818   5.197  12.582  0.00  0.00    +0.000 C 
ATOM     17  C   UNL     1       6.033   4.085  14.093  0.00  0.00    +0.000 A 
ATOM     18  C   UNL     1       5.761   4.170  15.443  0.00  0.00    +0.000 A 
ATOM     19  C   UNL     1       4.752   3.433  16.246  0.00  0.00    +0.000 C 
ENDBRANCH   1  13
TORSDOF 3
ENDMDL
MODEL 5
REMARK VINA RESULT:      -6.6      2.790      5.351
REMARK  Name = 
REMARK  7 active torsions:
REMARK  status: ('A' for Active; 'I' for Inactive)
REMARK    1  A    between atoms: C_1  and  O_2
REMARK    2  A    between atoms: O_2  and  C_3
REMARK    3  A    between atoms: C_6  and  C_7
REMARK    4  A    between atoms: C_9  and  S_10
REMARK    5  A    between atoms: S_10  and  N_13
REMARK    6  A    between atoms: C_15  and  C_16
REMARK    7  A    between atoms: C_18  and  C_19
REMARK                            x       y       z     vdW  Elec       q    Type
REMARK                         _______ _______ _______ _____ _____    ______ ____
ROOT
ATOM      1  S   UNL     1       5.478   5.987  16.183  0.00  0.00    +0.000 S 
ATOM      2  O   UNL     1       5.990   4.655  15.917  0.00  0.00    +0.000 OA
ATOM      3  O   UNL     1       5.138   6.886  15.093  0.00  0.00    +0.000 OA
ENDROOT
BRANCH   1  10
ATOM      4  C   UNL     1       3.577   4.626  17.679  0.00  0.00    +0.000 A 
ATOM      5  C   UNL     1       2.538   4.605  18.619  0.00  0.00    +0.000 A 
ATOM      6  C   UNL     1       2.000   5.793  19.123  0.00  0.00    +0.000 A 
ATOM      7  C   UNL     1       2.491   7.029  18.704  0.00  0.00    +0.000 A 
ATOM      8  C   UNL     1       1.919   8.306  19.242  0.00  0.00    +0.000 C 
ATOM      9  C   UNL     1       3.543   7.060  17.782  0.00  0.00    +0.000 A 
ATOM     10  C   UNL     1       4.086   5.867  17.278  0.00  0.00    +0.000 A 
BRANCH   4  12
ATOM     11  C   UNL     1       3.753   2.256  17.745  0.00  0.00    +0.000 C 
ATOM     12  O   UNL     1       4.142   3.495  17.154  0.00  0.00    +0.000 OA
ENDBRANCH   4  12
ENDBRANCH   1  10
BRANCH   1  13
ATOM     13  N   UNL     1       6.745   6.757  17.093  0.00  0.00    +0.000 N 
ATOM     14  N   UNL     1       7.029   8.095  17.034  0.00  0.00    +0.000 NA
ATOM     15  C   UNL     1       7.977   8.274  17.960  0.00  0.00    +0.000 A 
ATOM     16  C   UNL     1       8.608   9.601  18.156  0.00  0.00    +0.000 C 
ATOM     17  C   UNL     1       8.248   7.089  18.674  0.00  0.00    +0.000 A 
ATOM     18  C   UNL     1       7.408   6.132  18.143  0.00  0.00    +0.000 A 
ATOM     19  C   UNL     1       7.216   4.718  18.554  0.00  0.00    +0.000 C 
ENDBRANCH   1  13
TORSDOF 3
ENDMDL
MODEL 6
REMARK VINA RESULT:      -6.6      1.632      5.324
REMARK  Name = 
REMARK  7 active torsions:
REMARK  status: ('A' for Active; 'I' for Inactive)
REMARK    1  A    between atoms: C_1  and  O_2
REMARK    2  A    between atoms: O_2  and  C_3
REMARK    3  A    between atoms: C_6  and  C_7
REMARK    4  A    between atoms: C_9  and  S_10
REMARK    5  A    between atoms: S_10  and  N_13
REMARK    6  A    between atoms: C_15  and  C_16
REMARK    7  A    between atoms: C_18  and  C_19
REMARK                            x       y       z     vdW  Elec       q    Type
REMARK                         _______ _______ _______ _____ _____    ______ ____
ROOT
ATOM      1  S   UNL     1       5.342   4.376  19.070  0.00  0.00    +0.000 S 
ATOM      2  O   UNL     1       6.415   4.964  19.852  0.00  0.00    +0.000 OA
ATOM      3  O   UNL     1       4.981   2.979  19.232  0.00  0.00    +0.000 OA
ENDROOT
BRANCH   1  10
ATOM      4  C   UNL     1       2.919   5.081  20.227  0.00  0.00    +0.000 A 
ATOM      5  C   UNL     1       1.838   5.961  20.375  0.00  0.00    +0.000 A 
ATOM      6  C   UNL     1       1.704   7.082  19.550  0.00  0.00    +0.000 A 
ATOM      7  C   UNL     1       2.650   7.352  18.561  0.00  0.00    +0.000 A 
ATOM      8  C   UNL     1       2.512   8.553  17.674  0.00  0.00    +0.000 C 
ATOM      9  C   UNL     1       3.744   6.492  18.419  0.00  0.00    +0.000 A 
ATOM     10  C   UNL     1       3.880   5.368  19.251  0.00  0.00    +0.000 A 
BRANCH   4  12
ATOM     11  C   UNL     1       1.921   3.284  21.421  0.00  0.00    +0.000 C 
ATOM     12  O   UNL     1       3.100   3.971  21.007  0.00  0.00    +0.000 OA
ENDBRANCH   4  12
ENDBRANCH   1  10
BRANCH   1  13
ATOM     13  N   UNL     1       5.861   4.574  17.421  0.00  0.00    +0.000 N 
ATOM     14  N   UNL     1       5.291   3.932  16.354  0.00  0.00    +0.000 NA
ATOM     15  C   UNL     1       5.907   4.451  15.287  0.00  0.00    +0.000 A 
ATOM     16  C   UNL     1       5.611   3.954  13.923  0.00  0.00    +0.000 C 
ATOM     17  C   UNL     1       6.803   5.479  15.643  0.00  0.00    +0.000 A 
ATOM     18  C   UNL     1       6.723   5.586  17.016  0.00  0.00    +0.000 A 
ATOM     19  C   UNL     1       7.398   6.549  17.924  0.00  0.00    +0.000 C 
ENDBRANCH   1  13
TORSDOF 3
ENDMDL
MODEL 7
REMARK VINA RESULT:      -6.5      1.562      5.324
REMARK  Name = 
REMARK  7 active torsions:
REMARK  status: ('A' for Active; 'I' for Inactive)
REMARK    1  A    between atoms: C_1  and  O_2
REMARK    2  A    between atoms: O_2  and  C_3
REMARK    3  A    between atoms: C_6  and  C_7
REMARK    4  A    between atoms: C_9  and  S_10
REMARK    5  A    between atoms: S_10  and  N_13
REMARK    6  A    between atoms: C_15  and  C_16
REMARK    7  A    between atoms: C_18  and  C_19
REMARK                            x       y       z     vdW  Elec       q    Type
REMARK                         _______ _______ _______ _____ _____    ______ ____
ROOT
ATOM      1  S   UNL     1       4.588   3.942  18.450  0.00  0.00    +0.000 S 
ATOM      2  O   UNL     1       5.404   3.321  19.477  0.00  0.00    +0.000 OA
ATOM      3  O   UNL     1       3.972   3.146  17.404  0.00  0.00    +0.000 OA
ENDROOT
BRANCH   1  10
ATOM      4  C   UNL     1       2.604   4.463  20.321  0.00  0.00    +0.000 A 
ATOM      5  C   UNL     1       1.698   5.334  20.941  0.00  0.00    +0.000 A 
ATOM      6  C   UNL     1       1.505   6.632  20.461  0.00  0.00    +0.000 A 
ATOM      7  C   UNL     1       2.216   7.092  19.352  0.00  0.00    +0.000 A 
ATOM      8  C   UNL     1       2.014   8.484  18.833  0.00  0.00    +0.000 C 
ATOM      9  C   UNL     1       3.138   6.238  18.740  0.00  0.00    +0.000 A 
ATOM     10  C   UNL     1       3.335   4.934  19.224  0.00  0.00    +0.000 A 
BRANCH   4  12
ATOM     11  C   UNL     1       1.855   2.618  21.620  0.00  0.00    +0.000 C 
ATOM     12  O   UNL     1       2.834   3.183  20.750  0.00  0.00    +0.000 OA
ENDBRANCH   4  12
ENDBRANCH   1  10
BRANCH   1  13
ATOM     13  N   UNL     1       5.670   5.055  17.664  0.00  0.00    +0.000 N 
ATOM     14  N   UNL     1       6.249   6.131  18.282  0.00  0.00    +0.000 NA
ATOM     15  C   UNL     1       7.078   6.635  17.362  0.00  0.00    +0.000 A 
ATOM     16  C   UNL     1       7.850   7.871  17.632  0.00  0.00    +0.000 C 
ATOM     17  C   UNL     1       7.107   5.851  16.191  0.00  0.00    +0.000 A 
ATOM     18  C   UNL     1       6.237   4.805  16.419  0.00  0.00    +0.000 A 
ATOM     19  C   UNL     1       5.923   3.639  15.554  0.00  0.00    +0.000 C 
ENDBRANCH   1  13
TORSDOF 3
ENDMDL
MODEL 8
REMARK VINA RESULT:      -6.5      1.761      2.873
REMARK  Name = 
REMARK  7 active torsions:
REMARK  status: ('A' for Active; 'I' for Inactive)
REMARK    1  A    between atoms: C_1  and  O_2
REMARK    2  A    between atoms: O_2  and  C_3
REMARK    3  A    between atoms: C_6  and  C_7
REMARK    4  A    between atoms: C_9  and  S_10
REMARK    5  A    between atoms: S_10  and  N_13
REMARK    6  A    between atoms: C_15  and  C_16
REMARK    7  A    between atoms: C_18  and  C_19
REMARK                            x       y       z     vdW  Elec       q    Type
REMARK                         _______ _______ _______ _____ _____    ______ ____
ROOT
ATOM      1  S   UNL     1       3.497   5.004  18.342  0.00  0.00    +0.000 S 
ATOM      2  O   UNL     1       3.612   6.183  19.181  0.00  0.00    +0.000 OA
ATOM      3  O   UNL     1       2.319   4.786  17.520  0.00  0.00    +0.000 OA
ENDROOT
BRANCH   1  10
ATOM      4  C   UNL     1       6.221   5.127  17.822  0.00  0.00    +0.000 A 
ATOM      5  C   UNL     1       7.322   4.917  16.981  0.00  0.00    +0.000 A 
ATOM      6  C   UNL     1       7.148   4.500  15.659  0.00  0.00    +0.000 A 
ATOM      7  C   UNL     1       5.869   4.277  15.148  0.00  0.00    +0.000 A 
ATOM      8  C   UNL     1       5.676   3.828  13.730  0.00  0.00    +0.000 C 
ATOM      9  C   UNL     1       4.765   4.463  15.985  0.00  0.00    +0.000 A 
ATOM     10  C   UNL     1       4.940   4.879  17.315  0.00  0.00    +0.000 A 
BRANCH   4  12
ATOM     11  C   UNL     1       7.658   5.735  19.617  0.00  0.00    +0.000 C 
ATOM     12  O   UNL     1       6.334   5.534  19.125  0.00  0.00    +0.000 OA
ENDBRANCH   4  12
ENDBRANCH   1  10
BRANCH   1  13
ATOM     13  N   UNL     1       3.582   3.675  19.461  0.00  0.00    +0.000 N 
ATOM     14  N   UNL     1       4.691   2.892  19.641  0.00  0.00    +0.000 NA
ATOM     15  C   UNL     1       4.364   2.084  20.656  0.00  0.00    +0.000 A 
ATOM     16  C   UNL     1       5.295   1.024  21.112  0.00  0.00    +0.000 C 
ATOM     17  C   UNL     1       3.096   2.390  21.188  0.00  0.00    +0.000 A 
ATOM     18  C   UNL     1       2.625   3.453  20.446  0.00  0.00    +0.000 A 
ATOM     19  C   UNL     1       1.369   4.229  20.607  0.00  0.00    +0.000 C 
ENDBRANCH   1  13
TORSDOF 3
ENDMDL
MODEL 9
REMARK VINA RESULT:      -6.5      1.768      5.288
REMARK  Name = 
REMARK  7 active torsions:
REMARK  status: ('A' for Active; 'I' for Inactive)
REMARK    1  A    between atoms: C_1  and  O_2
REMARK    2  A    between atoms: O_2  and  C_3
REMARK    3  A    between atoms: C_6  and  C_7
REMARK    4  A    between atoms: C_9  and  S_10
REMARK    5  A    between atoms: S_10  and  N_13
REMARK    6  A    between atoms: C_15  and  C_16
REMARK    7  A    between atoms: C_18  and  C_19
REMARK                            x       y       z     vdW  Elec       q    Type
REMARK                         _______ _______ _______ _____ _____    ______ ____
ROOT
ATOM      1  S   UNL     1       5.193   4.366  19.219  0.00  0.00    +0.000 S 
ATOM      2  O   UNL     1       6.316   5.127  19.735  0.00  0.00    +0.000 OA
ATOM      3  O   UNL     1       5.012   2.969  19.576  0.00  0.00    +0.000 OA
ENDROOT
BRANCH   1  10
ATOM      4  C   UNL     1       2.762   4.762  20.499  0.00  0.00    +0.000 A 
ATOM      5  C   UNL     1       1.642   5.552  20.793  0.00  0.00    +0.000 A 
ATOM      6  C   UNL     1       1.437   6.777  20.150  0.00  0.00    +0.000 A 
ATOM      7  C   UNL     1       2.350   7.242  19.203  0.00  0.00    +0.000 A 
ATOM      8  C   UNL     1       2.135   8.555  18.512  0.00  0.00    +0.000 C 
ATOM      9  C   UNL     1       3.481   6.471  18.919  0.00  0.00    +0.000 A 
ATOM     10  C   UNL     1       3.689   5.242  19.567  0.00  0.00    +0.000 A 
BRANCH   4  12
ATOM     11  C   UNL     1       1.876   2.820  21.548  0.00  0.00    +0.000 C 
ATOM     12  O   UNL     1       3.012   3.557  21.099  0.00  0.00    +0.000 OA
ENDBRANCH   4  12
ENDBRANCH   1  10
BRANCH   1  13
ATOM     13  N   UNL     1       5.398   4.421  17.492  0.00  0.00    +0.000 N 
ATOM     14  N   UNL     1       6.572   4.749  16.868  0.00  0.00    +0.000 NA
ATOM     15  C   UNL     1       6.321   4.556  15.569  0.00  0.00    +0.000 A 
ATOM     16  C   UNL     1       7.342   4.875  14.543  0.00  0.00    +0.000 C 
ATOM     17  C   UNL     1       5.032   4.029  15.352  0.00  0.00    +0.000 A 
ATOM     18  C   UNL     1       4.468   3.894  16.604  0.00  0.00    +0.000 A 
ATOM     19  C   UNL     1       3.149   3.326  16.983  0.00  0.00    +0.000 C 
ENDBRANCH   1  13
TORSDOF 3
ENDMDL
