MODEL 1
REMARK VINA RESULT:      -7.7      0.000      0.000
REMARK  Name = 
REMARK  7 active torsions:
REMARK  status: ('A' for Active; 'I' for Inactive)
REMARK    1  A    between atoms: C_1  and  O_2
REMARK    2  A    between atoms: O_2  and  C_3
REMARK    3  A    between atoms: C_13  and  O_14
REMARK    4  A    between atoms: O_14  and  C_15
REMARK    5  A    between atoms: C_15  and  C_16
REMARK    6  A    between atoms: C_22  and  O_23
REMARK    7  A    between atoms: O_23  and  C_24
REMARK                            x       y       z     vdW  Elec       q    Type
REMARK                         _______ _______ _______ _____ _____    ______ ____
ROOT
ATOM      1  C   UNL     1       1.005  16.013  19.040  0.00  0.00    +0.000 A 
ATOM      2  C   UNL     1       0.126  16.392  20.053  0.00  0.00    +0.000 A 
ATOM      3  C   UNL     1      -0.345  15.446  20.967  0.00  0.00    +0.000 A 
ATOM      4  C   UNL     1       0.055  14.108  20.882  0.00  0.00    +0.000 A 
ATOM      5  C   UNL     1       0.934  13.721  19.862  0.00  0.00    +0.000 A 
ATOM      6  C   UNL     1       1.414  14.680  18.955  0.00  0.00    +0.000 A 
ATOM      7  C   UNL     1       1.382  12.285  19.774  0.00  0.00    +0.000 C 
ATOM      8  C   UNL     1       0.372  11.318  20.453  0.00  0.00    +0.000 C 
ATOM      9  C   UNL     1       0.858   9.869  20.406  0.00  0.00    +0.000 A 
ATOM     10  C   UNL     1       1.314   9.319  19.203  0.00  0.00    +0.000 A 
ATOM     11  C   UNL     1       1.815   8.011  19.123  0.00  0.00    +0.000 A 
ATOM     12  C   UNL     1       1.784   7.195  20.268  0.00  0.00    +0.000 A 
ATOM     13  C   UNL     1       1.265   7.718  21.459  0.00  0.00    +0.000 A 
ATOM     14  C   UNL     1       0.793   9.038  21.530  0.00  0.00    +0.000 A 
ATOM     15  C   UNL     1       0.249   9.570  22.830  0.00  0.00    +0.000 C 
ATOM     16  C   UNL     1      -0.614  10.812  22.608  0.00  0.00    +0.000 C 
ATOM     17  N   UNL     1       0.150  11.797  21.837  0.00  0.00    +0.000 NA
ATOM     18  C   UNL     1      -0.525  13.099  21.847  0.00  0.00    +0.000 C 
ENDROOT
BRANCH   1  20
ATOM     19  C   UNL     1       0.865  18.092  17.905  0.00  0.00    +0.000 C 
ATOM     20  O   UNL     1       1.519  16.841  18.079  0.00  0.00    +0.000 OA
ENDBRANCH   1  20
BRANCH  12  21
ATOM     21  O   UNL     1       2.274   5.918  20.144  0.00  0.00    +0.000 OA
ATOM     22  C   UNL     1       1.428   4.860  20.584  0.00  0.00    +0.000 C 
ENDBRANCH  12  21
BRANCH  11  23
ATOM     23  O   UNL     1       2.304   7.477  17.949  0.00  0.00    +0.000 OA
BRANCH  23  24
ATOM     24  C   UNL     1       3.728   7.555  17.793  0.00  0.00    +0.000 C 
BRANCH  24  25
ATOM     25  C   UNL     1       4.303   6.390  17.021  0.00  0.00    +0.000 A 
ATOM     26  C   UNL     1       3.922   5.084  17.383  0.00  0.00    +0.000 A 
ATOM     27  C   UNL     1       4.437   3.980  16.708  0.00  0.00    +0.000 A 
ATOM     28  C   UNL     1       5.325   4.168  15.654  0.00  0.00    +0.000 A 
ATOM     29  C   UNL     1       5.685   5.461  15.265  0.00  0.00    +0.000 A 
ATOM     30  C   UNL     1       5.171   6.568  15.942  0.00  0.00    +0.000 A 
ENDBRANCH  24  25
ENDBRANCH  23  24
ENDBRANCH  11  23
TORSDOF 5
ENDMDL
MODEL 2
REMARK VINA RESULT:      -7.6      3.320      8.769
REMARK  Name = 
REMARK  7 active torsions:
REMARK  status: ('A' for Active; 'I' for Inactive)
REMARK    1  A    between atoms: C_1  and  O_2
REMARK    2  A    between atoms: O_2  and  C_3
REMARK    3  A    between atoms: C_13  and  O_14
REMARK    4  A    between atoms: O_14  and  C_15
REMARK    5  A    between atoms: C_15  and  C_16
REMARK    6  A    between atoms: C_22  and  O_23
REMARK    7  A    between atoms: O_23  and  C_24
REMARK                            x       y       z     vdW  Elec       q    Type
REMARK                         _______ _______ _______ _____ _____    ______ ____
ROOT
ATOM      1  C   UNL     1       6.152   5.177  14.904  0.00  0.00    +0.000 A 
ATOM      2  C   UNL     1       6.485   3.927  15.421  0.00  0.00    +0.000 A 
ATOM      3  C   UNL     1       5.883   3.468  16.595  0.00  0.00    +0.000 A 
ATOM      4  C   UNL     1       4.941   4.251  17.271  0.00  0.00    +0.000 A 
ATOM      5  C   UNL     1       4.607   5.512  16.757  0.00  0.00    +0.000 A 
ATOM      6  C   UNL     1       5.206   5.960  15.568  0.00  0.00    +0.000 A 
ATOM      7  C   UNL     1       3.581   6.355  17.470  0.00  0.00    +0.000 C 
ATOM      8  C   UNL     1       3.461   5.978  18.972  0.00  0.00    +0.000 C 
ATOM      9  C   UNL     1       2.382   6.801  19.676  0.00  0.00    +0.000 A 
ATOM     10  C   UNL     1       2.347   8.192  19.526  0.00  0.00    +0.000 A 
ATOM     11  C   UNL     1       1.347   8.981  20.113  0.00  0.00    +0.000 A 
ATOM     12  C   UNL     1       0.394   8.371  20.946  0.00  0.00    +0.000 A 
ATOM     13  C   UNL     1       0.463   6.987  21.155  0.00  0.00    +0.000 A 
ATOM     14  C   UNL     1       1.453   6.207  20.539  0.00  0.00    +0.000 A 
ATOM     15  C   UNL     1       1.493   4.721  20.780  0.00  0.00    +0.000 C 
ATOM     16  C   UNL     1       2.858   4.133  20.423  0.00  0.00    +0.000 C 
ATOM     17  N   UNL     1       3.205   4.521  19.052  0.00  0.00    +0.000 NA
ATOM     18  C   UNL     1       4.359   3.753  18.573  0.00  0.00    +0.000 C 
ENDROOT
BRANCH   1  20
ATOM     19  C   UNL     1       7.502   4.899  12.972  0.00  0.00    +0.000 C 
ATOM     20  O   UNL     1       6.683   5.740  13.775  0.00  0.00    +0.000 OA
ENDBRANCH   1  20
BRANCH  12  21
ATOM     21  O   UNL     1      -0.562   9.181  21.509  0.00  0.00    +0.000 OA
ATOM     22  C   UNL     1      -0.366   9.555  22.870  0.00  0.00    +0.000 C 
ENDBRANCH  12  21
BRANCH  11  23
ATOM     23  O   UNL     1       1.285  10.348  19.934  0.00  0.00    +0.000 OA
BRANCH  23  24
ATOM     24  C   UNL     1       0.921  10.773  18.613  0.00  0.00    +0.000 C 
BRANCH  24  25
ATOM     25  C   UNL     1      -0.573  10.831  18.402  0.00  0.00    +0.000 A 
ATOM     26  C   UNL     1      -1.177   9.871  17.568  0.00  0.00    +0.000 A 
ATOM     27  C   UNL     1      -2.550   9.894  17.334  0.00  0.00    +0.000 A 
ATOM     28  C   UNL     1      -3.337  10.865  17.941  0.00  0.00    +0.000 A 
ATOM     29  C   UNL     1      -2.753  11.804  18.797  0.00  0.00    +0.000 A 
ATOM     30  C   UNL     1      -1.378  11.783  19.031  0.00  0.00    +0.000 A 
ENDBRANCH  24  25
ENDBRANCH  23  24
ENDBRANCH  11  23
TORSDOF 5
ENDMDL
MODEL 3
REMARK VINA RESULT:      -7.3      0.978      1.347
REMARK  Name = 
REMARK  7 active torsions:
REMARK  status: ('A' for Active; 'I' for Inactive)
REMARK    1  A    between atoms: C_1  and  O_2
REMARK    2  A    between atoms: O_2  and  C_3
REMARK    3  A    between atoms: C_13  and  O_14
REMARK    4  A    between atoms: O_14  and  C_15
REMARK    5  A    between atoms: C_15  and  C_16
REMARK    6  A    between atoms: C_22  and  O_23
REMARK    7  A    between atoms: O_23  and  C_24
REMARK                            x       y       z     vdW  Elec       q    Type
REMARK                         _______ _______ _______ _____ _____    ______ ____
ROOT
ATOM      1  C   UNL     1       2.360  15.461  18.257  0.00  0.00    +0.000 A 
ATOM      2  C   UNL     1       1.436  16.033  19.128  0.00  0.00    +0.000 A 
ATOM      3  C   UNL     1       0.744  15.236  20.042  0.00  0.00    +0.000 A 
ATOM      4  C   UNL     1       0.964  13.855  20.100  0.00  0.00    +0.000 A 
ATOM      5  C   UNL     1       1.889  13.275  19.221  0.00  0.00    +0.000 A 
ATOM      6  C   UNL     1       2.592  14.085  18.314  0.00  0.00    +0.000 A 
ATOM      7  C   UNL     1       2.144  11.791  19.288  0.00  0.00    +0.000 C 
ATOM      8  C   UNL     1       0.945  11.022  19.906  0.00  0.00    +0.000 C 
ATOM      9  C   UNL     1       1.231   9.524  20.018  0.00  0.00    +0.000 A 
ATOM     10  C   UNL     1       1.738   8.820  18.920  0.00  0.00    +0.000 A 
ATOM     11  C   UNL     1       2.062   7.458  18.992  0.00  0.00    +0.000 A 
ATOM     12  C   UNL     1       1.795   6.752  20.178  0.00  0.00    +0.000 A 
ATOM     13  C   UNL     1       1.225   7.435  21.260  0.00  0.00    +0.000 A 
ATOM     14  C   UNL     1       0.932   8.806  21.182  0.00  0.00    +0.000 A 
ATOM     15  C   UNL     1       0.326   9.511  22.367  0.00  0.00    +0.000 C 
ATOM     16  C   UNL     1      -0.331  10.829  21.957  0.00  0.00    +0.000 C 
ATOM     17  N   UNL     1       0.640  11.641  21.217  0.00  0.00    +0.000 NA
ATOM     18  C   UNL     1       0.150  13.013  21.055  0.00  0.00    +0.000 C 
ENDROOT
BRANCH   1  20
ATOM     19  C   UNL     1       2.552  17.376  16.869  0.00  0.00    +0.000 C 
ATOM     20  O   UNL     1       3.085  16.134  17.309  0.00  0.00    +0.000 OA
ENDBRANCH   1  20
BRANCH  12  21
ATOM     21  O   UNL     1       2.118   5.417  20.203  0.00  0.00    +0.000 OA
ATOM     22  C   UNL     1       1.055   4.504  20.462  0.00  0.00    +0.000 C 
ENDBRANCH  12  21
BRANCH  11  23
ATOM     23  O   UNL     1       2.600   6.769  17.924  0.00  0.00    +0.000 OA
BRANCH  23  24
ATOM     24  C   UNL     1       3.910   7.195  17.524  0.00  0.00    +0.000 C 
BRANCH  24  25
ATOM     25  C   UNL     1       4.753   6.072  16.968  0.00  0.00    +0.000 A 
ATOM     26  C   UNL     1       6.056   6.361  16.520  0.00  0.00    +0.000 A 
ATOM     27  C   UNL     1       6.865   5.358  15.988  0.00  0.00    +0.000 A 
ATOM     28  C   UNL     1       6.387   4.055  15.911  0.00  0.00    +0.000 A 
ATOM     29  C   UNL     1       5.106   3.751  16.381  0.00  0.00    +0.000 A 
ATOM     30  C   UNL     1       4.295   4.754  16.913  0.00  0.00    +0.000 A 
ENDBRANCH  24  25
ENDBRANCH  23  24
ENDBRANCH  11  23
TORSDOF 5
ENDMDL
MODEL 4
REMARK VINA RESULT:      -7.3      4.255      6.076
REMARK  Name = 
REMARK  7 active torsions:
REMARK  status: ('A' for Active; 'I' for Inactive)
REMARK    1  A    between atoms: C_1  and  O_2
REMARK    2  A    between atoms: O_2  and  C_3
REMARK    3  A    between atoms: C_13  and  O_14
REMARK    4  A    between atoms: O_14  and  C_15
REMARK    5  A    between atoms: C_15  and  C_16
REMARK    6  A    between atoms: C_22  and  O_23
REMARK    7  A    between atoms: O_23  and  C_24
REMARK                            x       y       z     vdW  Elec       q    Type
REMARK                         _______ _______ _______ _____ _____    ______ ____
ROOT
ATOM      1  C   UNL     1      -1.824  15.216  25.109  0.00  0.00    +0.000 A 
ATOM      2  C   UNL     1      -3.029  15.898  25.263  0.00  0.00    +0.000 A 
ATOM      3  C   UNL     1      -4.070  15.699  24.354  0.00  0.00    +0.000 A 
ATOM      4  C   UNL     1      -3.924  14.816  23.278  0.00  0.00    +0.000 A 
ATOM      5  C   UNL     1      -2.712  14.132  23.117  0.00  0.00    +0.000 A 
ATOM      6  C   UNL     1      -1.673  14.327  24.043  0.00  0.00    +0.000 A 
ATOM      7  C   UNL     1      -2.551  13.167  21.970  0.00  0.00    +0.000 C 
ATOM      8  C   UNL     1      -3.520  13.489  20.799  0.00  0.00    +0.000 C 
ATOM      9  C   UNL     1      -3.388  12.476  19.662  0.00  0.00    +0.000 A 
ATOM     10  C   UNL     1      -2.125  12.140  19.161  0.00  0.00    +0.000 A 
ATOM     11  C   UNL     1      -1.954  11.180  18.153  0.00  0.00    +0.000 A 
ATOM     12  C   UNL     1      -3.088  10.592  17.567  0.00  0.00    +0.000 A 
ATOM     13  C   UNL     1      -4.359  10.974  18.016  0.00  0.00    +0.000 A 
ATOM     14  C   UNL     1      -4.514  11.917  19.045  0.00  0.00    +0.000 A 
ATOM     15  C   UNL     1      -5.895  12.298  19.510  0.00  0.00    +0.000 C 
ATOM     16  C   UNL     1      -5.882  13.623  20.272  0.00  0.00    +0.000 C 
ATOM     17  N   UNL     1      -4.893  13.546  21.353  0.00  0.00    +0.000 NA
ATOM     18  C   UNL     1      -5.047  14.674  22.277  0.00  0.00    +0.000 C 
ENDROOT
BRANCH   1  20
ATOM     19  C   UNL     1      -0.667  16.508  26.729  0.00  0.00    +0.000 C 
ATOM     20  O   UNL     1      -0.729  15.339  25.922  0.00  0.00    +0.000 OA
ENDBRANCH   1  20
BRANCH  12  21
ATOM     21  O   UNL     1      -2.876   9.665  16.576  0.00  0.00    +0.000 OA
ATOM     22  C   UNL     1      -3.405   9.968  15.289  0.00  0.00    +0.000 C 
ENDBRANCH  12  21
BRANCH  11  23
ATOM     23  O   UNL     1      -0.708  10.815  17.685  0.00  0.00    +0.000 OA
BRANCH  23  24
ATOM     24  C   UNL     1       0.362  10.958  18.630  0.00  0.00    +0.000 C 
BRANCH  24  25
ATOM     25  C   UNL     1       1.033   9.647  18.966  0.00  0.00    +0.000 A 
ATOM     26  C   UNL     1       1.766   8.985  17.963  0.00  0.00    +0.000 A 
ATOM     27  C   UNL     1       2.390   7.766  18.225  0.00  0.00    +0.000 A 
ATOM     28  C   UNL     1       2.301   7.205  19.494  0.00  0.00    +0.000 A 
ATOM     29  C   UNL     1       1.603   7.869  20.506  0.00  0.00    +0.000 A 
ATOM     30  C   UNL     1       0.976   9.088  20.244  0.00  0.00    +0.000 A 
ENDBRANCH  24  25
ENDBRANCH  23  24
ENDBRANCH  11  23
TORSDOF 5
ENDMDL
MODEL 5
REMARK VINA RESULT:      -7.1      2.922      9.711
REMARK  Name = 
REMARK  7 active torsions:
REMARK  status: ('A' for Active; 'I' for Inactive)
REMARK    1  A    between atoms: C_1  and  O_2
REMARK    2  A    between atoms: O_2  and  C_3
REMARK    3  A    between atoms: C_13  and  O_14
REMARK    4  A    between atoms: O_14  and  C_15
REMARK    5  A    between atoms: C_15  and  C_16
REMARK    6  A    between atoms: C_22  and  O_23
REMARK    7  A    between atoms: O_23  and  C_24
REMARK                            x       y       z     vdW  Elec       q    Type
REMARK                         _______ _______ _______ _____ _____    ______ ____
ROOT
ATOM      1  C   UNL     1       2.023   4.550  20.321  0.00  0.00    +0.000 A 
ATOM      2  C   UNL     1       2.396   4.501  18.980  0.00  0.00    +0.000 A 
ATOM      3  C   UNL     1       2.462   5.674  18.225  0.00  0.00    +0.000 A 
ATOM      4  C   UNL     1       2.156   6.914  18.798  0.00  0.00    +0.000 A 
ATOM      5  C   UNL     1       1.775   6.967  20.145  0.00  0.00    +0.000 A 
ATOM      6  C   UNL     1       1.724   5.784  20.902  0.00  0.00    +0.000 A 
ATOM      7  C   UNL     1       1.459   8.299  20.775  0.00  0.00    +0.000 C 
ATOM      8  C   UNL     1       1.034   9.355  19.718  0.00  0.00    +0.000 C 
ATOM      9  C   UNL     1       0.766  10.718  20.357  0.00  0.00    +0.000 A 
ATOM     10  C   UNL     1      -0.052  10.816  21.489  0.00  0.00    +0.000 A 
ATOM     11  C   UNL     1      -0.285  12.038  22.137  0.00  0.00    +0.000 A 
ATOM     12  C   UNL     1       0.251  13.217  21.589  0.00  0.00    +0.000 A 
ATOM     13  C   UNL     1       1.014  13.135  20.418  0.00  0.00    +0.000 A 
ATOM     14  C   UNL     1       1.261  11.901  19.795  0.00  0.00    +0.000 A 
ATOM     15  C   UNL     1       2.093  11.848  18.541  0.00  0.00    +0.000 C 
ATOM     16  C   UNL     1       1.871  10.542  17.778  0.00  0.00    +0.000 C 
ATOM     17  N   UNL     1       2.095   9.412  18.685  0.00  0.00    +0.000 NA
ATOM     18  C   UNL     1       2.173   8.154  17.935  0.00  0.00    +0.000 C 
ENDROOT
BRANCH   1  20
ATOM     19  C   UNL     1       3.002   2.566  21.178  0.00  0.00    +0.000 C 
ATOM     20  O   UNL     1       1.906   3.471  21.156  0.00  0.00    +0.000 OA
ENDBRANCH   1  20
BRANCH  12  21
ATOM     21  O   UNL     1      -0.011  14.393  22.249  0.00  0.00    +0.000 OA
ATOM     22  C   UNL     1       0.708  15.545  21.819  0.00  0.00    +0.000 C 
ENDBRANCH  12  21
BRANCH  11  23
ATOM     23  O   UNL     1      -1.056  12.134  23.277  0.00  0.00    +0.000 OA
BRANCH  23  24
ATOM     24  C   UNL     1      -2.360  11.543  23.181  0.00  0.00    +0.000 C 
BRANCH  24  25
ATOM     25  C   UNL     1      -3.451  12.555  22.923  0.00  0.00    +0.000 A 
ATOM     26  C   UNL     1      -4.095  13.150  24.024  0.00  0.00    +0.000 A 
ATOM     27  C   UNL     1      -5.116  14.079  23.834  0.00  0.00    +0.000 A 
ATOM     28  C   UNL     1      -5.493  14.435  22.544  0.00  0.00    +0.000 A 
ATOM     29  C   UNL     1      -4.839  13.874  21.444  0.00  0.00    +0.000 A 
ATOM     30  C   UNL     1      -3.817  12.943  21.633  0.00  0.00    +0.000 A 
ENDBRANCH  24  25
ENDBRANCH  23  24
ENDBRANCH  11  23
TORSDOF 5
ENDMDL
MODEL 6
REMARK VINA RESULT:      -7.0      2.236      8.943
REMARK  Name = 
REMARK  7 active torsions:
REMARK  status: ('A' for Active; 'I' for Inactive)
REMARK    1  A    between atoms: C_1  and  O_2
REMARK    2  A    between atoms: O_2  and  C_3
REMARK    3  A    between atoms: C_13  and  O_14
REMARK    4  A    between atoms: O_14  and  C_15
REMARK    5  A    between atoms: C_15  and  C_16
REMARK    6  A    between atoms: C_22  and  O_23
REMARK    7  A    between atoms: O_23  and  C_24
REMARK                            x       y       z     vdW  Elec       q    Type
REMARK                         _______ _______ _______ _____ _____    ______ ____
ROOT
ATOM      1  C   UNL     1       5.160   5.836  16.538  0.00  0.00    +0.000 A 
ATOM      2  C   UNL     1       5.226   4.885  17.554  0.00  0.00    +0.000 A 
ATOM      3  C   UNL     1       4.419   5.009  18.688  0.00  0.00    +0.000 A 
ATOM      4  C   UNL     1       3.535   6.086  18.823  0.00  0.00    +0.000 A 
ATOM      5  C   UNL     1       3.470   7.047  17.806  0.00  0.00    +0.000 A 
ATOM      6  C   UNL     1       4.274   6.908  16.662  0.00  0.00    +0.000 A 
ATOM      7  C   UNL     1       2.508   8.200  17.936  0.00  0.00    +0.000 C 
ATOM      8  C   UNL     1       2.145   8.490  19.418  0.00  0.00    +0.000 C 
ATOM      9  C   UNL     1       1.130   9.626  19.540  0.00  0.00    +0.000 A 
ATOM     10  C   UNL     1       1.333  10.829  18.853  0.00  0.00    +0.000 A 
ATOM     11  C   UNL     1       0.404  11.879  18.895  0.00  0.00    +0.000 A 
ATOM     12  C   UNL     1      -0.729  11.757  19.718  0.00  0.00    +0.000 A 
ATOM     13  C   UNL     1      -0.905  10.584  20.462  0.00  0.00    +0.000 A 
ATOM     14  C   UNL     1       0.020   9.530  20.388  0.00  0.00    +0.000 A 
ATOM     15  C   UNL     1      -0.204   8.279  21.195  0.00  0.00    +0.000 C 
ATOM     16  C   UNL     1       1.086   7.472  21.346  0.00  0.00    +0.000 C 
ATOM     17  N   UNL     1       1.656   7.226  20.018  0.00  0.00    +0.000 NA
ATOM     18  C   UNL     1       2.725   6.225  20.091  0.00  0.00    +0.000 C 
ENDROOT
BRANCH   1  20
ATOM     19  C   UNL     1       6.911   4.826  15.294  0.00  0.00    +0.000 C 
ATOM     20  O   UNL     1       5.909   5.831  15.392  0.00  0.00    +0.000 OA
ENDBRANCH   1  20
BRANCH  12  21
ATOM     21  O   UNL     1      -1.608  12.813  19.739  0.00  0.00    +0.000 OA
ATOM     22  C   UNL     1      -1.865  13.410  21.006  0.00  0.00    +0.000 C 
ENDBRANCH  12  21
BRANCH  11  23
ATOM     23  O   UNL     1       0.580  13.049  18.186  0.00  0.00    +0.000 OA
BRANCH  23  24
ATOM     24  C   UNL     1       1.493  13.986  18.776  0.00  0.00    +0.000 C 
BRANCH  24  25
ATOM     25  C   UNL     1       1.066  15.423  18.593  0.00  0.00    +0.000 A 
ATOM     26  C   UNL     1       2.051  16.393  18.329  0.00  0.00    +0.000 A 
ATOM     27  C   UNL     1       1.705  17.733  18.166  0.00  0.00    +0.000 A 
ATOM     28  C   UNL     1       0.371  18.115  18.248  0.00  0.00    +0.000 A 
ATOM     29  C   UNL     1      -0.620  17.156  18.478  0.00  0.00    +0.000 A 
ATOM     30  C   UNL     1      -0.273  15.814  18.643  0.00  0.00    +0.000 A 
ENDBRANCH  24  25
ENDBRANCH  23  24
ENDBRANCH  11  23
TORSDOF 5
ENDMDL
MODEL 7
REMARK VINA RESULT:      -7.0      5.985     10.404
REMARK  Name = 
REMARK  7 active torsions:
REMARK  status: ('A' for Active; 'I' for Inactive)
REMARK    1  A    between atoms: C_1  and  O_2
REMARK    2  A    between atoms: O_2  and  C_3
REMARK    3  A    between atoms: C_13  and  O_14
REMARK    4  A    between atoms: O_14  and  C_15
REMARK    5  A    between atoms: C_15  and  C_16
REMARK    6  A    between atoms: C_22  and  O_23
REMARK    7  A    between atoms: O_23  and  C_24
REMARK                            x       y       z     vdW  Elec       q    Type
REMARK                         _______ _______ _______ _____ _____    ______ ____
ROOT
ATOM      1  C   UNL     1      -1.804  10.129  17.206  0.00  0.00    +0.000 A 
ATOM      2  C   UNL     1      -2.528  10.033  16.020  0.00  0.00    +0.000 A 
ATOM      3  C   UNL     1      -3.779  10.646  15.908  0.00  0.00    +0.000 A 
ATOM      4  C   UNL     1      -4.323  11.363  16.979  0.00  0.00    +0.000 A 
ATOM      5  C   UNL     1      -3.600  11.458  18.175  0.00  0.00    +0.000 A 
ATOM      6  C   UNL     1      -2.337  10.851  18.276  0.00  0.00    +0.000 A 
ATOM      7  C   UNL     1      -4.173  12.242  19.328  0.00  0.00    +0.000 C 
ATOM      8  C   UNL     1      -5.720  12.349  19.247  0.00  0.00    +0.000 C 
ATOM      9  C   UNL     1      -6.290  13.189  20.390  0.00  0.00    +0.000 A 
ATOM     10  C   UNL     1      -5.894  12.942  21.710  0.00  0.00    +0.000 A 
ATOM     11  C   UNL     1      -6.352  13.720  22.784  0.00  0.00    +0.000 A 
ATOM     12  C   UNL     1      -7.301  14.728  22.543  0.00  0.00    +0.000 A 
ATOM     13  C   UNL     1      -7.753  14.936  21.234  0.00  0.00    +0.000 A 
ATOM     14  C   UNL     1      -7.265  14.168  20.165  0.00  0.00    +0.000 A 
ATOM     15  C   UNL     1      -7.766  14.424  18.768  0.00  0.00    +0.000 C 
ATOM     16  C   UNL     1      -7.491  13.234  17.849  0.00  0.00    +0.000 C 
ATOM     17  N   UNL     1      -6.066  12.896  17.914  0.00  0.00    +0.000 NA
ATOM     18  C   UNL     1      -5.707  11.958  16.846  0.00  0.00    +0.000 C 
ENDROOT
BRANCH   1  20
ATOM     19  C   UNL     1       0.196  10.136  18.484  0.00  0.00    +0.000 C 
ATOM     20  O   UNL     1      -0.581   9.560  17.441  0.00  0.00    +0.000 OA
ENDBRANCH   1  20
BRANCH  12  21
ATOM     21  O   UNL     1      -7.731  15.459  23.624  0.00  0.00    +0.000 OA
ATOM     22  C   UNL     1      -7.913  16.858  23.422  0.00  0.00    +0.000 C 
ENDBRANCH  12  21
BRANCH  11  23
ATOM     23  O   UNL     1      -5.933  13.507  24.081  0.00  0.00    +0.000 OA
BRANCH  23  24
ATOM     24  C   UNL     1      -4.768  12.681  24.216  0.00  0.00    +0.000 C 
BRANCH  24  25
ATOM     25  C   UNL     1      -3.477  13.462  24.144  0.00  0.00    +0.000 A 
ATOM     26  C   UNL     1      -2.428  12.964  23.350  0.00  0.00    +0.000 A 
ATOM     27  C   UNL     1      -1.215  13.645  23.264  0.00  0.00    +0.000 A 
ATOM     28  C   UNL     1      -1.043  14.837  23.958  0.00  0.00    +0.000 A 
ATOM     29  C   UNL     1      -2.089  15.358  24.725  0.00  0.00    +0.000 A 
ATOM     30  C   UNL     1      -3.304  14.676  24.812  0.00  0.00    +0.000 A 
ENDBRANCH  24  25
ENDBRANCH  23  24
ENDBRANCH  11  23
TORSDOF 5
ENDMDL
MODEL 8
REMARK VINA RESULT:      -7.0      2.052      8.914
REMARK  Name = 
REMARK  7 active torsions:
REMARK  status: ('A' for Active; 'I' for Inactive)
REMARK    1  A    between atoms: C_1  and  O_2
REMARK    2  A    between atoms: O_2  and  C_3
REMARK    3  A    between atoms: C_13  and  O_14
REMARK    4  A    between atoms: O_14  and  C_15
REMARK    5  A    between atoms: C_15  and  C_16
REMARK    6  A    between atoms: C_22  and  O_23
REMARK    7  A    between atoms: O_23  and  C_24
REMARK                            x       y       z     vdW  Elec       q    Type
REMARK                         _______ _______ _______ _____ _____    ______ ____
ROOT
ATOM      1  C   UNL     1       4.775   5.977  16.789  0.00  0.00    +0.000 A 
ATOM      2  C   UNL     1       4.812   5.050  17.828  0.00  0.00    +0.000 A 
ATOM      3  C   UNL     1       4.021   5.235  18.964  0.00  0.00    +0.000 A 
ATOM      4  C   UNL     1       3.182   6.350  19.079  0.00  0.00    +0.000 A 
ATOM      5  C   UNL     1       3.147   7.287  18.038  0.00  0.00    +0.000 A 
ATOM      6  C   UNL     1       3.935   7.087  16.893  0.00  0.00    +0.000 A 
ATOM      7  C   UNL     1       2.234   8.482  18.147  0.00  0.00    +0.000 C 
ATOM      8  C   UNL     1       1.896   8.823  19.625  0.00  0.00    +0.000 C 
ATOM      9  C   UNL     1       0.929  10.003  19.726  0.00  0.00    +0.000 A 
ATOM     10  C   UNL     1       1.175  11.178  19.007  0.00  0.00    +0.000 A 
ATOM     11  C   UNL     1       0.290  12.266  19.030  0.00  0.00    +0.000 A 
ATOM     12  C   UNL     1      -0.840  12.212  19.864  0.00  0.00    +0.000 A 
ATOM     13  C   UNL     1      -1.056  11.065  20.639  0.00  0.00    +0.000 A 
ATOM     14  C   UNL     1      -0.176   9.973  20.584  0.00  0.00    +0.000 A 
ATOM     15  C   UNL     1      -0.444   8.752  21.425  0.00  0.00    +0.000 C 
ATOM     16  C   UNL     1       0.813   7.897  21.586  0.00  0.00    +0.000 C 
ATOM     17  N   UNL     1       1.362   7.595  20.260  0.00  0.00    +0.000 NA
ATOM     18  C   UNL     1       2.390   6.553  20.350  0.00  0.00    +0.000 C 
ENDROOT
BRANCH   1  20
ATOM     19  C   UNL     1       5.583   4.645  14.999  0.00  0.00    +0.000 C 
ATOM     20  O   UNL     1       5.514   5.913  15.637  0.00  0.00    +0.000 OA
ENDBRANCH   1  20
BRANCH  12  21
ATOM     21  O   UNL     1      -1.674  13.303  19.865  0.00  0.00    +0.000 OA
ATOM     22  C   UNL     1      -1.839  13.984  21.106  0.00  0.00    +0.000 C 
ENDBRANCH  12  21
BRANCH  11  23
ATOM     23  O   UNL     1       0.507  13.411  18.291  0.00  0.00    +0.000 OA
BRANCH  23  24
ATOM     24  C   UNL     1       1.228  14.447  18.972  0.00  0.00    +0.000 C 
BRANCH  24  25
ATOM     25  C   UNL     1       0.921  15.827  18.443  0.00  0.00    +0.000 A 
ATOM     26  C   UNL     1      -0.406  16.295  18.504  0.00  0.00    +0.000 A 
ATOM     27  C   UNL     1      -0.738  17.558  18.016  0.00  0.00    +0.000 A 
ATOM     28  C   UNL     1       0.252  18.371  17.476  0.00  0.00    +0.000 A 
ATOM     29  C   UNL     1       1.577  17.929  17.439  0.00  0.00    +0.000 A 
ATOM     30  C   UNL     1       1.911  16.665  17.926  0.00  0.00    +0.000 A 
ENDBRANCH  24  25
ENDBRANCH  23  24
ENDBRANCH  11  23
TORSDOF 5
ENDMDL
MODEL 9
REMARK VINA RESULT:      -6.9      5.756     10.018
REMARK  Name = 
REMARK  7 active torsions:
REMARK  status: ('A' for Active; 'I' for Inactive)
REMARK    1  A    between atoms: C_1  and  O_2
REMARK    2  A    between atoms: O_2  and  C_3
REMARK    3  A    between atoms: C_13  and  O_14
REMARK    4  A    between atoms: O_14  and  C_15
REMARK    5  A    between atoms: C_15  and  C_16
REMARK    6  A    between atoms: C_22  and  O_23
REMARK    7  A    between atoms: O_23  and  C_24
REMARK                            x       y       z     vdW  Elec       q    Type
REMARK                         _______ _______ _______ _____ _____    ______ ____
ROOT
ATOM      1  C   UNL     1      -1.567  10.102  17.363  0.00  0.00    +0.000 A 
ATOM      2  C   UNL     1      -2.304   9.855  16.207  0.00  0.00    +0.000 A 
ATOM      3  C   UNL     1      -3.587  10.388  16.063  0.00  0.00    +0.000 A 
ATOM      4  C   UNL     1      -4.153  11.175  17.073  0.00  0.00    +0.000 A 
ATOM      5  C   UNL     1      -3.417  11.421  18.239  0.00  0.00    +0.000 A 
ATOM      6  C   UNL     1      -2.122  10.893  18.371  0.00  0.00    +0.000 A 
ATOM      7  C   UNL     1      -4.013  12.281  19.325  0.00  0.00    +0.000 C 
ATOM      8  C   UNL     1      -5.565  12.298  19.266  0.00  0.00    +0.000 C 
ATOM      9  C   UNL     1      -6.161  13.213  20.337  0.00  0.00    +0.000 A 
ATOM     10  C   UNL     1      -5.732  13.115  21.665  0.00  0.00    +0.000 A 
ATOM     11  C   UNL     1      -6.214  13.966  22.670  0.00  0.00    +0.000 A 
ATOM     12  C   UNL     1      -7.219  14.896  22.355  0.00  0.00    +0.000 A 
ATOM     13  C   UNL     1      -7.703  14.954  21.042  0.00  0.00    +0.000 A 
ATOM     14  C   UNL     1      -7.191  14.114  20.040  0.00  0.00    +0.000 A 
ATOM     15  C   UNL     1      -7.727  14.208  18.637  0.00  0.00    +0.000 C 
ATOM     16  C   UNL     1      -7.403  12.952  17.828  0.00  0.00    +0.000 C 
ATOM     17  N   UNL     1      -5.961  12.697  17.895  0.00  0.00    +0.000 NA
ATOM     18  C   UNL     1      -5.568  11.681  16.913  0.00  0.00    +0.000 C 
ENDROOT
BRANCH   1  20
ATOM     19  C   UNL     1       0.334  10.138  18.782  0.00  0.00    +0.000 C 
ATOM     20  O   UNL     1      -0.312   9.622  17.625  0.00  0.00    +0.000 OA
ENDBRANCH   1  20
BRANCH  12  21
ATOM     21  O   UNL     1      -7.671  15.703  23.371  0.00  0.00    +0.000 OA
ATOM     22  C   UNL     1      -7.318  17.082  23.301  0.00  0.00    +0.000 C 
ENDBRANCH  12  21
BRANCH  11  23
ATOM     23  O   UNL     1      -5.763  13.901  23.973  0.00  0.00    +0.000 OA
BRANCH  23  24
ATOM     24  C   UNL     1      -4.484  14.508  24.205  0.00  0.00    +0.000 C 
BRANCH  24  25
ATOM     25  C   UNL     1      -3.348  13.766  23.542  0.00  0.00    +0.000 A 
ATOM     26  C   UNL     1      -3.181  12.396  23.821  0.00  0.00    +0.000 A 
ATOM     27  C   UNL     1      -2.139  11.674  23.242  0.00  0.00    +0.000 A 
ATOM     28  C   UNL     1      -1.263  12.309  22.368  0.00  0.00    +0.000 A 
ATOM     29  C   UNL     1      -1.439  13.661  22.060  0.00  0.00    +0.000 A 
ATOM     30  C   UNL     1      -2.481  14.384  22.640  0.00  0.00    +0.000 A 
ENDBRANCH  24  25
ENDBRANCH  23  24
ENDBRANCH  11  23
TORSDOF 5
ENDMDL
