MODEL 1
REMARK VINA RESULT:      -8.0      0.000      0.000
REMARK  Name = 
REMARK  11 active torsions:
REMARK  status: ('A' for Active; 'I' for Inactive)
REMARK    1  A    between atoms: C_1  and  C_2
REMARK    2  A    between atoms: C_2  and  C_3
REMARK    3  A    between atoms: C_5  and  O_6
REMARK    4  A    between atoms: O_6  and  C_7
REMARK    5  A    between atoms: C_9  and  C_10
REMARK    6  A    between atoms: C_14  and  C_15
REMARK    7  A    between atoms: C_15  and  C_16
REMARK    8  A    between atoms: C_18  and  N_19
REMARK    9  A    between atoms: N_19  and  C_20
REMARK   10  A    between atoms: C_28  and  O_29
REMARK   11  A    between atoms: O_29  and  C_30
REMARK                            x       y       z     vdW  Elec       q    Type
REMARK                         _______ _______ _______ _____ _____    ______ ____
ROOT
ATOM      1  C   UNL     1       2.977   5.165  17.645  0.00  0.00    +0.000 A 
ATOM      2  N   UNL     1       4.028   4.462  17.148  0.00  0.00    +0.000 NA
ATOM      3  C   UNL     1       5.192   5.131  17.011  0.00  0.00    +0.000 A 
ATOM      4  C   UNL     1       5.311   6.479  17.351  0.00  0.00    +0.000 A 
ATOM      5  N   UNL     1       4.240   7.196  17.811  0.00  0.00    +0.000 NA
ATOM      6  C   UNL     1       3.063   6.537  17.949  0.00  0.00    +0.000 A 
ENDROOT
BRANCH   1   8
ATOM      7  C   UNL     1       1.733   3.477  19.023  0.00  0.00    +0.000 C 
ATOM      8  C   UNL     1       1.698   4.386  17.805  0.00  0.00    +0.000 C 
ENDBRANCH   1   8
BRANCH   4   9
ATOM      9  C   UNL     1       6.629   7.205  17.249  0.00  0.00    +0.000 C 
ATOM     10  C   UNL     1       7.633   6.738  18.295  0.00  0.00    +0.000 C 
ENDBRANCH   4   9
BRANCH   6  11
ATOM     11  N   UNL     1       1.936   7.206  18.443  0.00  0.00    +0.000 N 
ATOM     12  H   UNL     1       1.518   6.650  19.179  0.00  0.00    +0.000 HD
BRANCH  11  13
ATOM     13  C   UNL     1       2.105   8.605  18.815  0.00  0.00    +0.000 C 
ATOM     14  C   UNL     1       1.425   8.909  20.136  0.00  0.00    +0.000 A 
ATOM     15  C   UNL     1       1.437   8.184  21.321  0.00  0.00    +0.000 A 
ATOM     16  C   UNL     1       0.786   8.711  22.442  0.00  0.00    +0.000 A 
ATOM     17  C   UNL     1       0.142   9.954  22.377  0.00  0.00    +0.000 A 
ATOM     18  C   UNL     1       0.146  10.689  21.193  0.00  0.00    +0.000 A 
ATOM     19  C   UNL     1       0.791  10.156  20.087  0.00  0.00    +0.000 A 
ATOM     20  C   UNL     1       0.970  10.807  18.751  0.00  0.00    +0.000 C 
ATOM     21  C   UNL     1       1.382   9.621  17.853  0.00  0.00    +0.000 C 
BRANCH  21  22
ATOM     22  O   UNL     1       0.217   9.053  17.210  0.00  0.00    +0.000 OA
ATOM     23  C   UNL     1      -0.961   9.830  17.388  0.00  0.00    +0.000 C 
ENDBRANCH  21  22
ENDBRANCH  11  13
ENDBRANCH   6  11
BRANCH   3  24
ATOM     24  O   UNL     1       6.296   4.474  16.491  0.00  0.00    +0.000 OA
BRANCH  24  25
ATOM     25  C   UNL     1       6.484   4.496  15.127  0.00  0.00    +0.000 A 
ATOM     26  C   UNL     1       5.700   3.743  14.260  0.00  0.00    +0.000 A 
ATOM     27  C   UNL     1       5.965   3.782  12.888  0.00  0.00    +0.000 A 
ATOM     28  C   UNL     1       5.087   3.042  11.927  0.00  0.00    +0.000 C 
ATOM     29  C   UNL     1       7.049   4.535  12.450  0.00  0.00    +0.000 A 
ATOM     30  C   UNL     1       7.810   5.215  13.389  0.00  0.00    +0.000 A 
ATOM     31  N   UNL     1       7.561   5.202  14.715  0.00  0.00    +0.000 NA
ENDBRANCH  24  25
ENDBRANCH   3  24
TORSDOF 7
ENDMDL
MODEL 2
REMARK VINA RESULT:      -7.8      3.307      5.848
REMARK  Name = 
REMARK  11 active torsions:
REMARK  status: ('A' for Active; 'I' for Inactive)
REMARK    1  A    between atoms: C_1  and  C_2
REMARK    2  A    between atoms: C_2  and  C_3
REMARK    3  A    between atoms: C_5  and  O_6
REMARK    4  A    between atoms: O_6  and  C_7
REMARK    5  A    between atoms: C_9  and  C_10
REMARK    6  A    between atoms: C_14  and  C_15
REMARK    7  A    between atoms: C_15  and  C_16
REMARK    8  A    between atoms: C_18  and  N_19
REMARK    9  A    between atoms: N_19  and  C_20
REMARK   10  A    between atoms: C_28  and  O_29
REMARK   11  A    between atoms: O_29  and  C_30
REMARK                            x       y       z     vdW  Elec       q    Type
REMARK                         _______ _______ _______ _____ _____    ______ ____
ROOT
ATOM      1  C   UNL     1       1.252   8.870  19.905  0.00  0.00    +0.000 A 
ATOM      2  N   UNL     1       1.942   7.767  20.295  0.00  0.00    +0.000 NA
ATOM      3  C   UNL     1       2.684   7.153  19.349  0.00  0.00    +0.000 A 
ATOM      4  C   UNL     1       2.733   7.619  18.035  0.00  0.00    +0.000 A 
ATOM      5  N   UNL     1       2.002   8.705  17.635  0.00  0.00    +0.000 NA
ATOM      6  C   UNL     1       1.249   9.328  18.574  0.00  0.00    +0.000 A 
ENDROOT
BRANCH   1   8
ATOM      7  C   UNL     1      -0.277   8.541  21.868  0.00  0.00    +0.000 C 
ATOM      8  C   UNL     1       0.449   9.544  20.988  0.00  0.00    +0.000 C 
ENDBRANCH   1   8
BRANCH   4   9
ATOM      9  C   UNL     1       3.609   6.962  16.997  0.00  0.00    +0.000 C 
ATOM     10  C   UNL     1       5.092   7.162  17.277  0.00  0.00    +0.000 C 
ENDBRANCH   4   9
BRANCH   6  11
ATOM     11  N   UNL     1       0.502  10.463  18.236  0.00  0.00    +0.000 N 
ATOM     12  H   UNL     1       0.566  10.616  17.237  0.00  0.00    +0.000 HD
BRANCH  11  13
ATOM     13  C   UNL     1      -0.866  10.529  18.733  0.00  0.00    +0.000 C 
ATOM     14  C   UNL     1      -1.868  10.504  17.594  0.00  0.00    +0.000 A 
ATOM     15  C   UNL     1      -1.899   9.693  16.467  0.00  0.00    +0.000 A 
ATOM     16  C   UNL     1      -2.978   9.808  15.583  0.00  0.00    +0.000 A 
ATOM     17  C   UNL     1      -4.017  10.714  15.834  0.00  0.00    +0.000 A 
ATOM     18  C   UNL     1      -3.994  11.514  16.975  0.00  0.00    +0.000 A 
ATOM     19  C   UNL     1      -2.917  11.395  17.843  0.00  0.00    +0.000 A 
ATOM     20  C   UNL     1      -2.733  12.106  19.148  0.00  0.00    +0.000 C 
ATOM     21  C   UNL     1      -1.233  11.890  19.438  0.00  0.00    +0.000 C 
BRANCH  21  22
ATOM     22  O   UNL     1      -0.461  13.006  18.936  0.00  0.00    +0.000 OA
ATOM     23  C   UNL     1       0.270  13.688  19.948  0.00  0.00    +0.000 C 
ENDBRANCH  21  22
ENDBRANCH  11  13
ENDBRANCH   6  11
BRANCH   3  24
ATOM     24  O   UNL     1       3.396   6.011  19.679  0.00  0.00    +0.000 OA
BRANCH  24  25
ATOM     25  C   UNL     1       2.690   4.877  20.011  0.00  0.00    +0.000 A 
ATOM     26  C   UNL     1       1.965   4.154  19.070  0.00  0.00    +0.000 A 
ATOM     27  C   UNL     1       1.241   3.030  19.479  0.00  0.00    +0.000 A 
ATOM     28  C   UNL     1       0.516   2.191  18.473  0.00  0.00    +0.000 C 
ATOM     29  C   UNL     1       1.230   2.713  20.833  0.00  0.00    +0.000 A 
ATOM     30  C   UNL     1       1.939   3.519  21.710  0.00  0.00    +0.000 A 
ATOM     31  N   UNL     1       2.657   4.597  21.334  0.00  0.00    +0.000 NA
ENDBRANCH  24  25
ENDBRANCH   3  24
TORSDOF 7
ENDMDL
MODEL 3
REMARK VINA RESULT:      -7.7      3.141      5.727
REMARK  Name = 
REMARK  11 active torsions:
REMARK  status: ('A' for Active; 'I' for Inactive)
REMARK    1  A    between atoms: C_1  and  C_2
REMARK    2  A    between atoms: C_2  and  C_3
REMARK    3  A    between atoms: C_5  and  O_6
REMARK    4  A    between atoms: O_6  and  C_7
REMARK    5  A    between atoms: C_9  and  C_10
REMARK    6  A    between atoms: C_14  and  C_15
REMARK    7  A    between atoms: C_15  and  C_16
REMARK    8  A    between atoms: C_18  and  N_19
REMARK    9  A    between atoms: N_19  and  C_20
REMARK   10  A    between atoms: C_28  and  O_29
REMARK   11  A    between atoms: O_29  and  C_30
REMARK                            x       y       z     vdW  Elec       q    Type
REMARK                         _______ _______ _______ _____ _____    ______ ____
ROOT
ATOM      1  C   UNL     1       1.372   8.826  19.810  0.00  0.00    +0.000 A 
ATOM      2  N   UNL     1       1.999   7.658  20.109  0.00  0.00    +0.000 NA
ATOM      3  C   UNL     1       2.760   7.114  19.135  0.00  0.00    +0.000 A 
ATOM      4  C   UNL     1       2.889   7.712  17.882  0.00  0.00    +0.000 A 
ATOM      5  N   UNL     1       2.221   8.865  17.569  0.00  0.00    +0.000 NA
ATOM      6  C   UNL     1       1.450   9.420  18.536  0.00  0.00    +0.000 A 
ENDROOT
BRANCH   1   8
ATOM      7  C   UNL     1      -0.311   8.373  21.615  0.00  0.00    +0.000 C 
ATOM      8  C   UNL     1       0.548   9.418  20.924  0.00  0.00    +0.000 C 
ENDBRANCH   1   8
BRANCH   4   9
ATOM      9  C   UNL     1       3.785   7.129  16.818  0.00  0.00    +0.000 C 
ATOM     10  C   UNL     1       5.254   7.150  17.219  0.00  0.00    +0.000 C 
ENDBRANCH   4   9
BRANCH   6  11
ATOM     11  N   UNL     1       0.765  10.616  18.290  0.00  0.00    +0.000 N 
ATOM     12  H   UNL     1       0.764  10.798  17.293  0.00  0.00    +0.000 HD
BRANCH  11  13
ATOM     13  C   UNL     1      -0.552  10.764  18.895  0.00  0.00    +0.000 C 
ATOM     14  C   UNL     1      -1.650  10.657  17.854  0.00  0.00    +0.000 A 
ATOM     15  C   UNL     1      -1.795   9.745  16.816  0.00  0.00    +0.000 A 
ATOM     16  C   UNL     1      -2.946   9.803  16.022  0.00  0.00    +0.000 A 
ATOM     17  C   UNL     1      -3.943  10.756  16.274  0.00  0.00    +0.000 A 
ATOM     18  C   UNL     1      -3.805  11.658  17.327  0.00  0.00    +0.000 A 
ATOM     19  C   UNL     1      -2.659  11.594  18.106  0.00  0.00    +0.000 A 
ATOM     20  C   UNL     1      -2.348  12.420  19.316  0.00  0.00    +0.000 C 
ATOM     21  C   UNL     1      -0.832  12.193  19.494  0.00  0.00    +0.000 C 
BRANCH  21  22
ATOM     22  O   UNL     1      -0.089  13.238  18.824  0.00  0.00    +0.000 OA
ATOM     23  C   UNL     1      -0.521  14.549  19.168  0.00  0.00    +0.000 C 
ENDBRANCH  21  22
ENDBRANCH  11  13
ENDBRANCH   6  11
BRANCH   3  24
ATOM     24  O   UNL     1       3.410   5.914  19.372  0.00  0.00    +0.000 OA
BRANCH  24  25
ATOM     25  C   UNL     1       2.648   4.773  19.489  0.00  0.00    +0.000 A 
ATOM     26  C   UNL     1       2.414   4.162  20.716  0.00  0.00    +0.000 A 
ATOM     27  C   UNL     1       1.660   2.985  20.763  0.00  0.00    +0.000 A 
ATOM     28  C   UNL     1       1.330   2.351  22.078  0.00  0.00    +0.000 C 
ATOM     29  C   UNL     1       1.220   2.438  19.561  0.00  0.00    +0.000 A 
ATOM     30  C   UNL     1       1.543   3.087  18.379  0.00  0.00    +0.000 A 
ATOM     31  N   UNL     1       2.255   4.231  18.314  0.00  0.00    +0.000 NA
ENDBRANCH  24  25
ENDBRANCH   3  24
TORSDOF 7
ENDMDL
MODEL 4
REMARK VINA RESULT:      -7.3      2.839      5.011
REMARK  Name = 
REMARK  11 active torsions:
REMARK  status: ('A' for Active; 'I' for Inactive)
REMARK    1  A    between atoms: C_1  and  C_2
REMARK    2  A    between atoms: C_2  and  C_3
REMARK    3  A    between atoms: C_5  and  O_6
REMARK    4  A    between atoms: O_6  and  C_7
REMARK    5  A    between atoms: C_9  and  C_10
REMARK    6  A    between atoms: C_14  and  C_15
REMARK    7  A    between atoms: C_15  and  C_16
REMARK    8  A    between atoms: C_18  and  N_19
REMARK    9  A    between atoms: N_19  and  C_20
REMARK   10  A    between atoms: C_28  and  O_29
REMARK   11  A    between atoms: O_29  and  C_30
REMARK                            x       y       z     vdW  Elec       q    Type
REMARK                         _______ _______ _______ _____ _____    ______ ____
ROOT
ATOM      1  C   UNL     1       1.546   8.530  19.602  0.00  0.00    +0.000 A 
ATOM      2  N   UNL     1       2.234   7.419  19.971  0.00  0.00    +0.000 NA
ATOM      3  C   UNL     1       3.091   6.908  19.060  0.00  0.00    +0.000 A 
ATOM      4  C   UNL     1       3.254   7.484  17.800  0.00  0.00    +0.000 A 
ATOM      5  N   UNL     1       2.527   8.578  17.416  0.00  0.00    +0.000 NA
ATOM      6  C   UNL     1       1.660   9.098  18.319  0.00  0.00    +0.000 A 
ENDROOT
BRANCH   1   8
ATOM      7  C   UNL     1       1.205   8.998  22.044  0.00  0.00    +0.000 C 
ATOM      8  C   UNL     1       0.615   9.088  20.647  0.00  0.00    +0.000 C 
ENDBRANCH   1   8
BRANCH   4   9
ATOM      9  C   UNL     1       4.254   6.942  16.809  0.00  0.00    +0.000 C 
ATOM     10  C   UNL     1       5.693   7.178  17.247  0.00  0.00    +0.000 C 
ENDBRANCH   4   9
BRANCH   6  11
ATOM     11  N   UNL     1       0.910  10.236  17.998  0.00  0.00    +0.000 N 
ATOM     12  H   UNL     1       0.778  10.273  16.994  0.00  0.00    +0.000 HD
BRANCH  11  13
ATOM     13  C   UNL     1      -0.327  10.445  18.740  0.00  0.00    +0.000 C 
ATOM     14  C   UNL     1      -1.527  10.472  17.813  0.00  0.00    +0.000 A 
ATOM     15  C   UNL     1      -1.843   9.628  16.756  0.00  0.00    +0.000 A 
ATOM     16  C   UNL     1      -3.059   9.810  16.086  0.00  0.00    +0.000 A 
ATOM     17  C   UNL     1      -3.950  10.817  16.481  0.00  0.00    +0.000 A 
ATOM     18  C   UNL     1      -3.640  11.651  17.554  0.00  0.00    +0.000 A 
ATOM     19  C   UNL     1      -2.431  11.465  18.208  0.00  0.00    +0.000 A 
ATOM     20  C   UNL     1      -1.941  12.202  19.416  0.00  0.00    +0.000 C 
ATOM     21  C   UNL     1      -0.436  11.858  19.428  0.00  0.00    +0.000 C 
BRANCH  21  22
ATOM     22  O   UNL     1       0.316  12.880  18.733  0.00  0.00    +0.000 OA
ATOM     23  C   UNL     1      -0.102  14.202  19.050  0.00  0.00    +0.000 C 
ENDBRANCH  21  22
ENDBRANCH  11  13
ENDBRANCH   6  11
BRANCH   3  24
ATOM     24  O   UNL     1       3.808   5.764  19.369  0.00  0.00    +0.000 OA
BRANCH  24  25
ATOM     25  C   UNL     1       3.368   4.562  18.861  0.00  0.00    +0.000 A 
ATOM     26  C   UNL     1       2.110   4.048  19.161  0.00  0.00    +0.000 A 
ATOM     27  C   UNL     1       1.737   2.806  18.640  0.00  0.00    +0.000 A 
ATOM     28  C   UNL     1       0.361   2.267  18.884  0.00  0.00    +0.000 C 
ATOM     29  C   UNL     1       2.670   2.102  17.885  0.00  0.00    +0.000 A 
ATOM     30  C   UNL     1       3.919   2.667  17.679  0.00  0.00    +0.000 A 
ATOM     31  N   UNL     1       4.293   3.871  18.159  0.00  0.00    +0.000 NA
ENDBRANCH  24  25
ENDBRANCH   3  24
TORSDOF 7
ENDMDL
MODEL 5
REMARK VINA RESULT:      -7.2      4.238      7.648
REMARK  Name = 
REMARK  11 active torsions:
REMARK  status: ('A' for Active; 'I' for Inactive)
REMARK    1  A    between atoms: C_1  and  C_2
REMARK    2  A    between atoms: C_2  and  C_3
REMARK    3  A    between atoms: C_5  and  O_6
REMARK    4  A    between atoms: O_6  and  C_7
REMARK    5  A    between atoms: C_9  and  C_10
REMARK    6  A    between atoms: C_14  and  C_15
REMARK    7  A    between atoms: C_15  and  C_16
REMARK    8  A    between atoms: C_18  and  N_19
REMARK    9  A    between atoms: N_19  and  C_20
REMARK   10  A    between atoms: C_28  and  O_29
REMARK   11  A    between atoms: O_29  and  C_30
REMARK                            x       y       z     vdW  Elec       q    Type
REMARK                         _______ _______ _______ _____ _____    ______ ____
ROOT
ATOM      1  C   UNL     1      -1.438  10.423  17.707  0.00  0.00    +0.000 A 
ATOM      2  N   UNL     1      -0.266   9.737  17.682  0.00  0.00    +0.000 NA
ATOM      3  C   UNL     1       0.780  10.306  18.319  0.00  0.00    +0.000 A 
ATOM      4  C   UNL     1       0.669  11.539  18.960  0.00  0.00    +0.000 A 
ATOM      5  N   UNL     1      -0.501  12.249  18.945  0.00  0.00    +0.000 NA
ATOM      6  C   UNL     1      -1.559  11.692  18.306  0.00  0.00    +0.000 A 
ENDROOT
BRANCH   1   8
ATOM      7  C   UNL     1      -2.725  10.210  15.563  0.00  0.00    +0.000 C 
ATOM      8  C   UNL     1      -2.592   9.753  17.006  0.00  0.00    +0.000 C 
ENDBRANCH   1   8
BRANCH   4   9
ATOM      9  C   UNL     1       1.827  12.142  19.717  0.00  0.00    +0.000 C 
ATOM     10  C   UNL     1       1.386  13.235  20.680  0.00  0.00    +0.000 C 
ENDBRANCH   4   9
BRANCH   6  11
ATOM     11  N   UNL     1      -2.793  12.352  18.281  0.00  0.00    +0.000 N 
ATOM     12  H   UNL     1      -3.164  12.324  17.339  0.00  0.00    +0.000 HD
BRANCH  11  13
ATOM     13  C   UNL     1      -3.773  11.966  19.288  0.00  0.00    +0.000 C 
ATOM     14  C   UNL     1      -5.173  12.388  18.884  0.00  0.00    +0.000 A 
ATOM     15  C   UNL     1      -5.807  12.271  17.654  0.00  0.00    +0.000 A 
ATOM     16  C   UNL     1      -7.145  12.670  17.544  0.00  0.00    +0.000 A 
ATOM     17  C   UNL     1      -7.837  13.168  18.656  0.00  0.00    +0.000 A 
ATOM     18  C   UNL     1      -7.205  13.268  19.894  0.00  0.00    +0.000 A 
ATOM     19  C   UNL     1      -5.878  12.873  19.991  0.00  0.00    +0.000 A 
ATOM     20  C   UNL     1      -5.041  12.836  21.232  0.00  0.00    +0.000 C 
ATOM     21  C   UNL     1      -3.610  12.711  20.667  0.00  0.00    +0.000 C 
BRANCH  21  22
ATOM     22  O   UNL     1      -3.012  14.021  20.529  0.00  0.00    +0.000 OA
ATOM     23  C   UNL     1      -3.198  14.850  21.670  0.00  0.00    +0.000 C 
ENDBRANCH  21  22
ENDBRANCH  11  13
ENDBRANCH   6  11
BRANCH   3  24
ATOM     24  O   UNL     1       2.009   9.664  18.313  0.00  0.00    +0.000 OA
BRANCH  24  25
ATOM     25  C   UNL     1       2.081   8.391  18.831  0.00  0.00    +0.000 A 
ATOM     26  C   UNL     1       2.428   7.293  18.049  0.00  0.00    +0.000 A 
ATOM     27  C   UNL     1       2.450   6.020  18.628  0.00  0.00    +0.000 A 
ATOM     28  C   UNL     1       2.895   4.835  17.829  0.00  0.00    +0.000 C 
ATOM     29  C   UNL     1       2.062   5.897  19.958  0.00  0.00    +0.000 A 
ATOM     30  C   UNL     1       1.682   7.037  20.648  0.00  0.00    +0.000 A 
ATOM     31  N   UNL     1       1.669   8.276  20.113  0.00  0.00    +0.000 NA
ENDBRANCH  24  25
ENDBRANCH   3  24
TORSDOF 7
ENDMDL
MODEL 6
REMARK VINA RESULT:      -7.2      4.008      6.322
REMARK  Name = 
REMARK  11 active torsions:
REMARK  status: ('A' for Active; 'I' for Inactive)
REMARK    1  A    between atoms: C_1  and  C_2
REMARK    2  A    between atoms: C_2  and  C_3
REMARK    3  A    between atoms: C_5  and  O_6
REMARK    4  A    between atoms: O_6  and  C_7
REMARK    5  A    between atoms: C_9  and  C_10
REMARK    6  A    between atoms: C_14  and  C_15
REMARK    7  A    between atoms: C_15  and  C_16
REMARK    8  A    between atoms: C_18  and  N_19
REMARK    9  A    between atoms: N_19  and  C_20
REMARK   10  A    between atoms: C_28  and  O_29
REMARK   11  A    between atoms: O_29  and  C_30
REMARK                            x       y       z     vdW  Elec       q    Type
REMARK                         _______ _______ _______ _____ _____    ______ ____
ROOT
ATOM      1  C   UNL     1       0.071   9.050  21.403  0.00  0.00    +0.000 A 
ATOM      2  N   UNL     1       0.992   8.093  21.117  0.00  0.00    +0.000 NA
ATOM      3  C   UNL     1       1.667   8.233  19.955  0.00  0.00    +0.000 A 
ATOM      4  C   UNL     1       1.426   9.297  19.087  0.00  0.00    +0.000 A 
ATOM      5  N   UNL     1       0.467  10.235  19.357  0.00  0.00    +0.000 NA
ATOM      6  C   UNL     1      -0.222  10.105  20.518  0.00  0.00    +0.000 A 
ENDROOT
BRANCH   1   8
ATOM      7  C   UNL     1       0.130   9.467  23.876  0.00  0.00    +0.000 C 
ATOM      8  C   UNL     1      -0.651   8.878  22.714  0.00  0.00    +0.000 C 
ENDBRANCH   1   8
BRANCH   4   9
ATOM      9  C   UNL     1       2.224   9.477  17.820  0.00  0.00    +0.000 C 
ATOM     10  C   UNL     1       2.596  10.932  17.569  0.00  0.00    +0.000 C 
ENDBRANCH   4   9
BRANCH   6  11
ATOM     11  N   UNL     1      -1.196  11.049  20.867  0.00  0.00    +0.000 N 
ATOM     12  H   UNL     1      -1.995  10.569  21.263  0.00  0.00    +0.000 HD
BRANCH  11  13
ATOM     13  C   UNL     1      -0.761  12.184  21.671  0.00  0.00    +0.000 C 
ATOM     14  C   UNL     1      -1.883  12.694  22.555  0.00  0.00    +0.000 A 
ATOM     15  C   UNL     1      -2.781  11.980  23.338  0.00  0.00    +0.000 A 
ATOM     16  C   UNL     1      -3.691  12.685  24.135  0.00  0.00    +0.000 A 
ATOM     17  C   UNL     1      -3.691  14.086  24.154  0.00  0.00    +0.000 A 
ATOM     18  C   UNL     1      -2.777  14.801  23.382  0.00  0.00    +0.000 A 
ATOM     19  C   UNL     1      -1.882  14.093  22.593  0.00  0.00    +0.000 A 
ATOM     20  C   UNL     1      -0.784  14.661  21.749  0.00  0.00    +0.000 C 
ATOM     21  C   UNL     1      -0.416  13.473  20.834  0.00  0.00    +0.000 C 
BRANCH  21  22
ATOM     22  O   UNL     1      -1.154  13.551  19.593  0.00  0.00    +0.000 OA
ATOM     23  C   UNL     1      -0.320  13.632  18.444  0.00  0.00    +0.000 C 
ENDBRANCH  21  22
ENDBRANCH  11  13
ENDBRANCH   6  11
BRANCH   3  24
ATOM     24  O   UNL     1       2.606   7.279  19.598  0.00  0.00    +0.000 OA
BRANCH  24  25
ATOM     25  C   UNL     1       2.179   5.985  19.402  0.00  0.00    +0.000 A 
ATOM     26  C   UNL     1       1.988   5.101  20.459  0.00  0.00    +0.000 A 
ATOM     27  C   UNL     1       1.586   3.789  20.191  0.00  0.00    +0.000 A 
ATOM     28  C   UNL     1       1.300   2.842  21.314  0.00  0.00    +0.000 C 
ATOM     29  C   UNL     1       1.448   3.403  18.861  0.00  0.00    +0.000 A 
ATOM     30  C   UNL     1       1.708   4.336  17.869  0.00  0.00    +0.000 A 
ATOM     31  N   UNL     1       2.082   5.610  18.107  0.00  0.00    +0.000 NA
ENDBRANCH  24  25
ENDBRANCH   3  24
TORSDOF 7
ENDMDL
MODEL 7
REMARK VINA RESULT:      -7.2      2.977      9.211
REMARK  Name = 
REMARK  11 active torsions:
REMARK  status: ('A' for Active; 'I' for Inactive)
REMARK    1  A    between atoms: C_1  and  C_2
REMARK    2  A    between atoms: C_2  and  C_3
REMARK    3  A    between atoms: C_5  and  O_6
REMARK    4  A    between atoms: O_6  and  C_7
REMARK    5  A    between atoms: C_9  and  C_10
REMARK    6  A    between atoms: C_14  and  C_15
REMARK    7  A    between atoms: C_15  and  C_16
REMARK    8  A    between atoms: C_18  and  N_19
REMARK    9  A    between atoms: N_19  and  C_20
REMARK   10  A    between atoms: C_28  and  O_29
REMARK   11  A    between atoms: O_29  and  C_30
REMARK                            x       y       z     vdW  Elec       q    Type
REMARK                         _______ _______ _______ _____ _____    ______ ____
ROOT
ATOM      1  C   UNL     1       1.499   9.188  19.108  0.00  0.00    +0.000 A 
ATOM      2  N   UNL     1       0.562  10.147  19.325  0.00  0.00    +0.000 NA
ATOM      3  C   UNL     1      -0.151  10.047  20.468  0.00  0.00    +0.000 A 
ATOM      4  C   UNL     1       0.055   9.009  21.376  0.00  0.00    +0.000 A 
ATOM      5  N   UNL     1       0.969   8.020  21.133  0.00  0.00    +0.000 NA
ATOM      6  C   UNL     1       1.689   8.104  19.987  0.00  0.00    +0.000 A 
ENDROOT
BRANCH   1   8
ATOM      7  C   UNL     1       2.633  10.788  17.544  0.00  0.00    +0.000 C 
ATOM      8  C   UNL     1       2.291   9.337  17.836  0.00  0.00    +0.000 C 
ENDBRANCH   1   8
BRANCH   4   9
ATOM      9  C   UNL     1      -0.706   8.936  22.677  0.00  0.00    +0.000 C 
ATOM     10  C   UNL     1       0.067   9.550  23.836  0.00  0.00    +0.000 C 
ENDBRANCH   4   9
BRANCH   6  11
ATOM     11  N   UNL     1       2.661   7.141  19.695  0.00  0.00    +0.000 N 
ATOM     12  H   UNL     1       2.990   6.729  20.561  0.00  0.00    +0.000 HD
BRANCH  11  13
ATOM     13  C   UNL     1       2.328   6.145  18.685  0.00  0.00    +0.000 C 
ATOM     14  C   UNL     1       2.042   4.796  19.316  0.00  0.00    +0.000 A 
ATOM     15  C   UNL     1       1.277   4.491  20.435  0.00  0.00    +0.000 A 
ATOM     16  C   UNL     1       1.098   3.147  20.785  0.00  0.00    +0.000 A 
ATOM     17  C   UNL     1       1.668   2.124  20.014  0.00  0.00    +0.000 A 
ATOM     18  C   UNL     1       2.419   2.431  18.881  0.00  0.00    +0.000 A 
ATOM     19  C   UNL     1       2.594   3.766  18.546  0.00  0.00    +0.000 A 
ATOM     20  C   UNL     1       3.302   4.304  17.341  0.00  0.00    +0.000 C 
ATOM     21  C   UNL     1       3.515   5.787  17.713  0.00  0.00    +0.000 C 
BRANCH  21  22
ATOM     22  O   UNL     1       4.813   5.968  18.325  0.00  0.00    +0.000 OA
ATOM     23  C   UNL     1       5.895   5.743  17.429  0.00  0.00    +0.000 C 
ENDBRANCH  21  22
ENDBRANCH  11  13
ENDBRANCH   6  11
BRANCH   3  24
ATOM     24  O   UNL     1      -1.135  10.984  20.738  0.00  0.00    +0.000 OA
BRANCH  24  25
ATOM     25  C   UNL     1      -0.765  12.162  21.348  0.00  0.00    +0.000 A 
ATOM     26  C   UNL     1      -1.456  12.679  22.439  0.00  0.00    +0.000 A 
ATOM     27  C   UNL     1      -1.050  13.897  22.992  0.00  0.00    +0.000 A 
ATOM     28  C   UNL     1      -1.728  14.436  24.213  0.00  0.00    +0.000 C 
ATOM     29  C   UNL     1       0.002  14.575  22.386  0.00  0.00    +0.000 A 
ATOM     30  C   UNL     1       0.602  14.011  21.270  0.00  0.00    +0.000 A 
ATOM     31  N   UNL     1       0.235  12.830  20.731  0.00  0.00    +0.000 NA
ENDBRANCH  24  25
ENDBRANCH   3  24
TORSDOF 7
ENDMDL
MODEL 8
REMARK VINA RESULT:      -7.1      3.030      8.914
REMARK  Name = 
REMARK  11 active torsions:
REMARK  status: ('A' for Active; 'I' for Inactive)
REMARK    1  A    between atoms: C_1  and  C_2
REMARK    2  A    between atoms: C_2  and  C_3
REMARK    3  A    between atoms: C_5  and  O_6
REMARK    4  A    between atoms: O_6  and  C_7
REMARK    5  A    between atoms: C_9  and  C_10
REMARK    6  A    between atoms: C_14  and  C_15
REMARK    7  A    between atoms: C_15  and  C_16
REMARK    8  A    between atoms: C_18  and  N_19
REMARK    9  A    between atoms: N_19  and  C_20
REMARK   10  A    between atoms: C_28  and  O_29
REMARK   11  A    between atoms: O_29  and  C_30
REMARK                            x       y       z     vdW  Elec       q    Type
REMARK                         _______ _______ _______ _____ _____    ______ ____
ROOT
ATOM      1  C   UNL     1       1.454   9.239  19.071  0.00  0.00    +0.000 A 
ATOM      2  N   UNL     1       0.503  10.181  19.300  0.00  0.00    +0.000 NA
ATOM      3  C   UNL     1      -0.195  10.066  20.451  0.00  0.00    +0.000 A 
ATOM      4  C   UNL     1       0.039   9.029  21.353  0.00  0.00    +0.000 A 
ATOM      5  N   UNL     1       0.968   8.057  21.098  0.00  0.00    +0.000 NA
ATOM      6  C   UNL     1       1.673   8.157  19.945  0.00  0.00    +0.000 A 
ENDROOT
BRANCH   1   8
ATOM      7  C   UNL     1       2.634  10.851  17.551  0.00  0.00    +0.000 C 
ATOM      8  C   UNL     1       2.230   9.405  17.790  0.00  0.00    +0.000 C 
ENDBRANCH   1   8
BRANCH   4   9
ATOM      9  C   UNL     1      -0.705   8.940  22.662  0.00  0.00    +0.000 C 
ATOM     10  C   UNL     1       0.075   9.552  23.818  0.00  0.00    +0.000 C 
ENDBRANCH   4   9
BRANCH   6  11
ATOM     11  N   UNL     1       2.660   7.212  19.640  0.00  0.00    +0.000 N 
ATOM     12  H   UNL     1       3.032   6.832  20.502  0.00  0.00    +0.000 HD
BRANCH  11  13
ATOM     13  C   UNL     1       2.314   6.181  18.669  0.00  0.00    +0.000 C 
ATOM     14  C   UNL     1       2.063   4.848  19.348  0.00  0.00    +0.000 A 
ATOM     15  C   UNL     1       1.332   4.568  20.496  0.00  0.00    +0.000 A 
ATOM     16  C   UNL     1       1.181   3.233  20.891  0.00  0.00    +0.000 A 
ATOM     17  C   UNL     1       1.745   2.195  20.137  0.00  0.00    +0.000 A 
ATOM     18  C   UNL     1       2.463   2.476  18.976  0.00  0.00    +0.000 A 
ATOM     19  C   UNL     1       2.610   3.802  18.596  0.00  0.00    +0.000 A 
ATOM     20  C   UNL     1       3.280   4.312  17.358  0.00  0.00    +0.000 C 
ATOM     21  C   UNL     1       3.481   5.809  17.678  0.00  0.00    +0.000 C 
BRANCH  21  22
ATOM     22  O   UNL     1       4.792   6.025  18.250  0.00  0.00    +0.000 OA
ATOM     23  C   UNL     1       5.720   6.592  17.333  0.00  0.00    +0.000 C 
ENDBRANCH  21  22
ENDBRANCH  11  13
ENDBRANCH   6  11
BRANCH   3  24
ATOM     24  O   UNL     1      -1.193  10.985  20.733  0.00  0.00    +0.000 OA
BRANCH  24  25
ATOM     25  C   UNL     1      -0.843  12.311  20.855  0.00  0.00    +0.000 A 
ATOM     26  C   UNL     1      -0.709  13.145  19.750  0.00  0.00    +0.000 A 
ATOM     27  C   UNL     1      -0.317  14.474  19.939  0.00  0.00    +0.000 A 
ATOM     28  C   UNL     1      -0.241  15.412  18.775  0.00  0.00    +0.000 C 
ATOM     29  C   UNL     1      -0.017  14.893  21.231  0.00  0.00    +0.000 A 
ATOM     30  C   UNL     1      -0.128  13.980  22.268  0.00  0.00    +0.000 A 
ATOM     31  N   UNL     1      -0.520  12.699  22.109  0.00  0.00    +0.000 NA
ENDBRANCH  24  25
ENDBRANCH   3  24
TORSDOF 7
ENDMDL
MODEL 9
REMARK VINA RESULT:      -7.1      4.850      8.711
REMARK  Name = 
REMARK  11 active torsions:
REMARK  status: ('A' for Active; 'I' for Inactive)
REMARK    1  A    between atoms: C_1  and  C_2
REMARK    2  A    between atoms: C_2  and  C_3
REMARK    3  A    between atoms: C_5  and  O_6
REMARK    4  A    between atoms: O_6  and  C_7
REMARK    5  A    between atoms: C_9  and  C_10
REMARK    6  A    between atoms: C_14  and  C_15
REMARK    7  A    between atoms: C_15  and  C_16
REMARK    8  A    between atoms: C_18  and  N_19
REMARK    9  A    between atoms: N_19  and  C_20
REMARK   10  A    between atoms: C_28  and  O_29
REMARK   11  A    between atoms: O_29  and  C_30
REMARK                            x       y       z     vdW  Elec       q    Type
REMARK                         _______ _______ _______ _____ _____    ______ ____
ROOT
ATOM      1  C   UNL     1      -0.530  12.743  20.755  0.00  0.00    +0.000 A 
ATOM      2  N   UNL     1       0.416  12.085  20.037  0.00  0.00    +0.000 NA
ATOM      3  C   UNL     1      -0.027  11.288  19.041  0.00  0.00    +0.000 A 
ATOM      4  C   UNL     1      -1.386  11.138  18.769  0.00  0.00    +0.000 A 
ATOM      5  N   UNL     1      -2.339  11.768  19.522  0.00  0.00    +0.000 NA
ATOM      6  C   UNL     1      -1.908  12.568  20.529  0.00  0.00    +0.000 A 
ENDROOT
BRANCH   1   8
ATOM      7  C   UNL     1       1.231  14.410  21.405  0.00  0.00    +0.000 C 
ATOM      8  C   UNL     1      -0.004  13.641  21.846  0.00  0.00    +0.000 C 
ENDBRANCH   1   8
BRANCH   4   9
ATOM      9  C   UNL     1      -1.871  10.291  17.619  0.00  0.00    +0.000 C 
ATOM     10  C   UNL     1      -2.561  11.114  16.540  0.00  0.00    +0.000 C 
ENDBRANCH   4   9
BRANCH   6  11
ATOM     11  N   UNL     1      -2.832  13.265  21.317  0.00  0.00    +0.000 N 
ATOM     12  H   UNL     1      -3.479  13.757  20.712  0.00  0.00    +0.000 HD
BRANCH  11  13
ATOM     13  C   UNL     1      -3.500  12.518  22.374  0.00  0.00    +0.000 C 
ATOM     14  C   UNL     1      -5.002  12.723  22.328  0.00  0.00    +0.000 A 
ATOM     15  C   UNL     1      -5.860  12.709  21.235  0.00  0.00    +0.000 A 
ATOM     16  C   UNL     1      -7.235  12.852  21.454  0.00  0.00    +0.000 A 
ATOM     17  C   UNL     1      -7.743  12.993  22.753  0.00  0.00    +0.000 A 
ATOM     18  C   UNL     1      -6.883  12.988  23.850  0.00  0.00    +0.000 A 
ATOM     19  C   UNL     1      -5.521  12.850  23.621  0.00  0.00    +0.000 A 
ATOM     20  C   UNL     1      -4.442  12.752  24.655  0.00  0.00    +0.000 C 
ATOM     21  C   UNL     1      -3.164  13.016  23.830  0.00  0.00    +0.000 C 
BRANCH  21  22
ATOM     22  O   UNL     1      -2.821  14.421  23.876  0.00  0.00    +0.000 OA
ATOM     23  C   UNL     1      -2.760  14.944  25.198  0.00  0.00    +0.000 C 
ENDBRANCH  21  22
ENDBRANCH  11  13
ENDBRANCH   6  11
BRANCH   3  24
ATOM     24  O   UNL     1       0.889  10.575  18.284  0.00  0.00    +0.000 OA
BRANCH  24  25
ATOM     25  C   UNL     1       1.394   9.405  18.806  0.00  0.00    +0.000 A 
ATOM     26  C   UNL     1       2.091   8.488  18.026  0.00  0.00    +0.000 A 
ATOM     27  C   UNL     1       2.549   7.302  18.609  0.00  0.00    +0.000 A 
ATOM     28  C   UNL     1       3.367   6.335  17.811  0.00  0.00    +0.000 C 
ATOM     29  C   UNL     1       2.234   7.061  19.942  0.00  0.00    +0.000 A 
ATOM     30  C   UNL     1       1.490   8.008  20.631  0.00  0.00    +0.000 A 
ATOM     31  N   UNL     1       1.053   9.164  20.092  0.00  0.00    +0.000 NA
ENDBRANCH  24  25
ENDBRANCH   3  24
TORSDOF 7
ENDMDL
