MODEL 1
REMARK VINA RESULT:      -7.8      0.000      0.000
REMARK  Name = 
REMARK  6 active torsions:
REMARK  status: ('A' for Active; 'I' for Inactive)
REMARK    1  A    between atoms: C_1  and  C_2
REMARK    2  A    between atoms: C_2  and  N_3
REMARK    3  A    between atoms: N_3  and  C_4
REMARK    4  A    between atoms: N_3  and  C_5
REMARK    5  A    between atoms: C_5  and  C_6
REMARK    6  A    between atoms: C_14  and  C_15
REMARK                            x       y       z     vdW  Elec       q    Type
REMARK                         _______ _______ _______ _____ _____    ______ ____
ROOT
ATOM      1  C   UNL     1       6.121   5.127  15.351  0.00  0.00    +0.000 A 
ATOM      2  N   UNL     1       6.152   4.319  16.386  0.00  0.00    +0.000 NA
ATOM      3  C   UNL     1       5.273   4.853  17.298  0.00  0.00    +0.000 A 
ATOM      4  C   UNL     1       4.839   4.317  18.528  0.00  0.00    +0.000 A 
ATOM      5  N   UNL     1       5.290   3.088  19.001  0.00  0.00    +0.000 N 
ATOM      6  N   UNL     1       3.904   4.971  19.246  0.00  0.00    +0.000 NA
ATOM      7  C   UNL     1       3.436   6.157  18.823  0.00  0.00    +0.000 A 
ATOM      8  C   UNL     1       2.528   6.811  19.634  0.00  0.00    +0.000 A 
ATOM      9  C   UNL     1       2.009   8.071  19.310  0.00  0.00    +0.000 A 
ATOM     10  C   UNL     1       2.377   8.674  18.101  0.00  0.00    +0.000 A 
ATOM     11  C   UNL     1       3.278   8.039  17.244  0.00  0.00    +0.000 A 
ATOM     12  C   UNL     1       3.814   6.787  17.612  0.00  0.00    +0.000 A 
ATOM     13  C   UNL     1       4.749   6.058  16.841  0.00  0.00    +0.000 A 
ATOM     14  N   UNL     1       5.330   6.231  15.605  0.00  0.00    +0.000 N 
ATOM     15  H   UNL     1       5.681   2.522  18.254  0.00  0.00    +0.000 HD
ATOM     16  H   UNL     1       4.595   2.658  19.596  0.00  0.00    +0.000 HD
ATOM     17  H   UNL     1       5.175   6.992  14.958  0.00  0.00    +0.000 HD
ENDROOT
BRANCH   9  18
ATOM     18  C   UNL     1       1.113   8.728  20.257  0.00  0.00    +0.000 A 
ATOM     19  C   UNL     1       1.002   8.456  21.650  0.00  0.00    +0.000 A 
ATOM     20  C   UNL     1      -0.004   9.269  22.097  0.00  0.00    +0.000 A 
ATOM     21  N   UNL     1      -0.430   9.968  21.014  0.00  0.00    +0.000 N 
ATOM     22  N   UNL     1       0.252   9.688  19.889  0.00  0.00    +0.000 NA
ATOM     23  H   UNL     1      -1.181  10.650  20.962  0.00  0.00    +0.000 HD
ENDBRANCH   9  18
BRANCH   1  24
ATOM     24  C   UNL     1       6.808   4.875  14.039  0.00  0.00    +0.000 C 
BRANCH  24  25
ATOM     25  N   UNL     1       6.359   3.649  13.341  0.00  0.00    +0.000 NA
ATOM     26  C   UNL     1       7.093   3.530  12.069  0.00  0.00    +0.000 C 
BRANCH  25  28
ATOM     27  C   UNL     1       4.511   3.340  11.670  0.00  0.00    +0.000 C 
ATOM     28  C   UNL     1       4.902   3.721  13.094  0.00  0.00    +0.000 C 
ENDBRANCH  25  28
ENDBRANCH  24  25
ENDBRANCH   1  24
TORSDOF 4
ENDMDL
MODEL 2
REMARK VINA RESULT:      -7.6      3.568      6.197
REMARK  Name = 
REMARK  6 active torsions:
REMARK  status: ('A' for Active; 'I' for Inactive)
REMARK    1  A    between atoms: C_1  and  C_2
REMARK    2  A    between atoms: C_2  and  N_3
REMARK    3  A    between atoms: N_3  and  C_4
REMARK    4  A    between atoms: N_3  and  C_5
REMARK    5  A    between atoms: C_5  and  C_6
REMARK    6  A    between atoms: C_14  and  C_15
REMARK                            x       y       z     vdW  Elec       q    Type
REMARK                         _______ _______ _______ _____ _____    ______ ____
ROOT
ATOM      1  C   UNL     1       2.497   6.634  19.772  0.00  0.00    +0.000 A 
ATOM      2  N   UNL     1       2.414   7.518  18.802  0.00  0.00    +0.000 NA
ATOM      3  C   UNL     1       1.685   8.563  19.316  0.00  0.00    +0.000 A 
ATOM      4  C   UNL     1       1.407   9.818  18.736  0.00  0.00    +0.000 A 
ATOM      5  N   UNL     1       1.874  10.169  17.472  0.00  0.00    +0.000 N 
ATOM      6  N   UNL     1       0.729  10.743  19.444  0.00  0.00    +0.000 NA
ATOM      7  C   UNL     1       0.266  10.449  20.670  0.00  0.00    +0.000 A 
ATOM      8  C   UNL     1      -0.478  11.414  21.320  0.00  0.00    +0.000 A 
ATOM      9  C   UNL     1      -1.043  11.197  22.583  0.00  0.00    +0.000 A 
ATOM     10  C   UNL     1      -0.809   9.982  23.239  0.00  0.00    +0.000 A 
ATOM     11  C   UNL     1      -0.048   8.987  22.625  0.00  0.00    +0.000 A 
ATOM     12  C   UNL     1       0.479   9.217  21.337  0.00  0.00    +0.000 A 
ATOM     13  C   UNL     1       1.245   8.281  20.606  0.00  0.00    +0.000 A 
ATOM     14  N   UNL     1       1.750   7.026  20.866  0.00  0.00    +0.000 N 
ATOM     15  H   UNL     1       2.653   9.585  17.186  0.00  0.00    +0.000 HD
ATOM     16  H   UNL     1       1.994  11.171  17.402  0.00  0.00    +0.000 HD
ATOM     17  H   UNL     1       1.652   6.495  21.720  0.00  0.00    +0.000 HD
ENDROOT
BRANCH   9  18
ATOM     18  C   UNL     1      -1.879  12.241  23.169  0.00  0.00    +0.000 A 
ATOM     19  C   UNL     1      -1.501  13.591  23.418  0.00  0.00    +0.000 A 
ATOM     20  C   UNL     1      -2.585  14.162  24.028  0.00  0.00    +0.000 A 
ATOM     21  N   UNL     1      -3.525  13.187  24.110  0.00  0.00    +0.000 N 
ATOM     22  N   UNL     1      -3.140  12.019  23.566  0.00  0.00    +0.000 NA
ATOM     23  H   UNL     1      -4.451  13.240  24.525  0.00  0.00    +0.000 HD
ENDBRANCH   9  18
BRANCH   1  24
ATOM     24  C   UNL     1       3.328   5.384  19.731  0.00  0.00    +0.000 C 
BRANCH  24  25
ATOM     25  N   UNL     1       3.007   4.474  18.609  0.00  0.00    +0.000 NA
ATOM     26  C   UNL     1       1.627   3.985  18.773  0.00  0.00    +0.000 C 
BRANCH  25  28
ATOM     27  C   UNL     1       3.290   1.990  18.374  0.00  0.00    +0.000 C 
ATOM     28  C   UNL     1       3.960   3.341  18.597  0.00  0.00    +0.000 C 
ENDBRANCH  25  28
ENDBRANCH  24  25
ENDBRANCH   1  24
TORSDOF 4
ENDMDL
MODEL 3
REMARK VINA RESULT:      -7.6      4.127      6.322
REMARK  Name = 
REMARK  6 active torsions:
REMARK  status: ('A' for Active; 'I' for Inactive)
REMARK    1  A    between atoms: C_1  and  C_2
REMARK    2  A    between atoms: C_2  and  N_3
REMARK    3  A    between atoms: N_3  and  C_4
REMARK    4  A    between atoms: N_3  and  C_5
REMARK    5  A    between atoms: C_5  and  C_6
REMARK    6  A    between atoms: C_14  and  C_15
REMARK                            x       y       z     vdW  Elec       q    Type
REMARK                         _______ _______ _______ _____ _____    ______ ____
ROOT
ATOM      1  C   UNL     1       2.508   6.579  19.766  0.00  0.00    +0.000 A 
ATOM      2  N   UNL     1       2.424   7.452  18.788  0.00  0.00    +0.000 NA
ATOM      3  C   UNL     1       1.724   8.517  19.302  0.00  0.00    +0.000 A 
ATOM      4  C   UNL     1       1.459   9.770  18.713  0.00  0.00    +0.000 A 
ATOM      5  N   UNL     1       1.908  10.098  17.436  0.00  0.00    +0.000 N 
ATOM      6  N   UNL     1       0.812  10.716  19.422  0.00  0.00    +0.000 NA
ATOM      7  C   UNL     1       0.368  10.446  20.661  0.00  0.00    +0.000 A 
ATOM      8  C   UNL     1      -0.345  11.433  21.314  0.00  0.00    +0.000 A 
ATOM      9  C   UNL     1      -0.890  11.241  22.589  0.00  0.00    +0.000 A 
ATOM     10  C   UNL     1      -0.666  10.030  23.256  0.00  0.00    +0.000 A 
ATOM     11  C   UNL     1       0.065   9.013  22.639  0.00  0.00    +0.000 A 
ATOM     12  C   UNL     1       0.571   9.218  21.339  0.00  0.00    +0.000 A 
ATOM     13  C   UNL     1       1.304   8.259  20.604  0.00  0.00    +0.000 A 
ATOM     14  N   UNL     1       1.791   6.998  20.870  0.00  0.00    +0.000 N 
ATOM     15  H   UNL     1       2.670   9.495  17.143  0.00  0.00    +0.000 HD
ATOM     16  H   UNL     1       2.045  11.096  17.352  0.00  0.00    +0.000 HD
ATOM     17  H   UNL     1       1.699   6.479  21.732  0.00  0.00    +0.000 HD
ENDROOT
BRANCH   9  18
ATOM     18  C   UNL     1      -1.694  12.308  23.179  0.00  0.00    +0.000 A 
ATOM     19  C   UNL     1      -3.101  12.287  23.400  0.00  0.00    +0.000 A 
ATOM     20  C   UNL     1      -3.404  13.520  23.909  0.00  0.00    +0.000 A 
ATOM     21  N   UNL     1      -2.229  14.195  23.979  0.00  0.00    +0.000 N 
ATOM     22  N   UNL     1      -1.167  13.475  23.577  0.00  0.00    +0.000 NA
ATOM     23  H   UNL     1      -2.070  15.150  24.287  0.00  0.00    +0.000 HD
ENDBRANCH   9  18
BRANCH   1  24
ATOM     24  C   UNL     1       3.316   5.313  19.726  0.00  0.00    +0.000 C 
BRANCH  24  25
ATOM     25  N   UNL     1       2.521   4.077  19.902  0.00  0.00    +0.000 NA
ATOM     26  C   UNL     1       3.436   2.960  20.194  0.00  0.00    +0.000 C 
BRANCH  25  28
ATOM     27  C   UNL     1       0.792   2.621  18.808  0.00  0.00    +0.000 C 
ATOM     28  C   UNL     1       1.745   3.803  18.671  0.00  0.00    +0.000 C 
ENDBRANCH  25  28
ENDBRANCH  24  25
ENDBRANCH   1  24
TORSDOF 4
ENDMDL
MODEL 4
REMARK VINA RESULT:      -7.6      1.678      2.910
REMARK  Name = 
REMARK  6 active torsions:
REMARK  status: ('A' for Active; 'I' for Inactive)
REMARK    1  A    between atoms: C_1  and  C_2
REMARK    2  A    between atoms: C_2  and  N_3
REMARK    3  A    between atoms: N_3  and  C_4
REMARK    4  A    between atoms: N_3  and  C_5
REMARK    5  A    between atoms: C_5  and  C_6
REMARK    6  A    between atoms: C_14  and  C_15
REMARK                            x       y       z     vdW  Elec       q    Type
REMARK                         _______ _______ _______ _____ _____    ______ ____
ROOT
ATOM      1  C   UNL     1       4.341   4.523  17.272  0.00  0.00    +0.000 A 
ATOM      2  N   UNL     1       4.104   3.790  18.336  0.00  0.00    +0.000 NA
ATOM      3  C   UNL     1       3.327   4.571  19.158  0.00  0.00    +0.000 A 
ATOM      4  C   UNL     1       2.696   4.226  20.370  0.00  0.00    +0.000 A 
ATOM      5  N   UNL     1       2.798   2.952  20.922  0.00  0.00    +0.000 N 
ATOM      6  N   UNL     1       1.907   5.127  20.990  0.00  0.00    +0.000 NA
ATOM      7  C   UNL     1       1.775   6.366  20.489  0.00  0.00    +0.000 A 
ATOM      8  C   UNL     1       1.007   7.266  21.204  0.00  0.00    +0.000 A 
ATOM      9  C   UNL     1       0.837   8.594  20.794  0.00  0.00    +0.000 A 
ATOM     10  C   UNL     1       1.420   9.021  19.595  0.00  0.00    +0.000 A 
ATOM     11  C   UNL     1       2.189   8.140  18.833  0.00  0.00    +0.000 A 
ATOM     12  C   UNL     1       2.375   6.817  19.287  0.00  0.00    +0.000 A 
ATOM     13  C   UNL     1       3.148   5.842  18.617  0.00  0.00    +0.000 A 
ATOM     14  N   UNL     1       3.832   5.799  17.423  0.00  0.00    +0.000 N 
ATOM     15  H   UNL     1       3.083   2.267  20.229  0.00  0.00    +0.000 HD
ATOM     16  H   UNL     1       1.981   2.738  21.478  0.00  0.00    +0.000 HD
ATOM     17  H   UNL     1       3.912   6.538  16.739  0.00  0.00    +0.000 HD
ENDROOT
BRANCH   9  18
ATOM     18  C   UNL     1       0.072   9.501  21.645  0.00  0.00    +0.000 A 
ATOM     19  C   UNL     1      -0.202  10.875  21.391  0.00  0.00    +0.000 A 
ATOM     20  C   UNL     1      -0.891  11.314  22.488  0.00  0.00    +0.000 A 
ATOM     21  N   UNL     1      -1.006  10.241  23.312  0.00  0.00    +0.000 N 
ATOM     22  N   UNL     1      -0.464   9.117  22.813  0.00  0.00    +0.000 NA
ATOM     23  H   UNL     1      -1.438  10.198  24.230  0.00  0.00    +0.000 HD
ENDBRANCH   9  18
BRANCH   1  24
ATOM     24  C   UNL     1       5.028   4.039  16.026  0.00  0.00    +0.000 C 
BRANCH  24  25
ATOM     25  N   UNL     1       6.109   4.927  15.542  0.00  0.00    +0.000 NA
ATOM     26  C   UNL     1       6.620   4.400  14.265  0.00  0.00    +0.000 C 
BRANCH  25  28
ATOM     27  C   UNL     1       7.361   6.368  17.172  0.00  0.00    +0.000 C 
ATOM     28  C   UNL     1       7.193   4.988  16.548  0.00  0.00    +0.000 C 
ENDBRANCH  25  28
ENDBRANCH  24  25
ENDBRANCH   1  24
TORSDOF 4
ENDMDL
MODEL 5
REMARK VINA RESULT:      -7.5      1.623      8.175
REMARK  Name = 
REMARK  6 active torsions:
REMARK  status: ('A' for Active; 'I' for Inactive)
REMARK    1  A    between atoms: C_1  and  C_2
REMARK    2  A    between atoms: C_2  and  N_3
REMARK    3  A    between atoms: N_3  and  C_4
REMARK    4  A    between atoms: N_3  and  C_5
REMARK    5  A    between atoms: C_5  and  C_6
REMARK    6  A    between atoms: C_14  and  C_15
REMARK                            x       y       z     vdW  Elec       q    Type
REMARK                         _______ _______ _______ _____ _____    ______ ____
ROOT
ATOM      1  C   UNL     1       1.772   7.356  20.656  0.00  0.00    +0.000 A 
ATOM      2  N   UNL     1       1.521   6.067  20.692  0.00  0.00    +0.000 NA
ATOM      3  C   UNL     1       2.239   5.521  19.656  0.00  0.00    +0.000 A 
ATOM      4  C   UNL     1       2.419   4.162  19.323  0.00  0.00    +0.000 A 
ATOM      5  N   UNL     1       1.840   3.136  20.064  0.00  0.00    +0.000 N 
ATOM      6  N   UNL     1       3.232   3.830  18.301  0.00  0.00    +0.000 NA
ATOM      7  C   UNL     1       3.817   4.789  17.564  0.00  0.00    +0.000 A 
ATOM      8  C   UNL     1       4.586   4.388  16.489  0.00  0.00    +0.000 A 
ATOM      9  C   UNL     1       5.206   5.304  15.630  0.00  0.00    +0.000 A 
ATOM     10  C   UNL     1       5.090   6.676  15.892  0.00  0.00    +0.000 A 
ATOM     11  C   UNL     1       4.336   7.123  16.979  0.00  0.00    +0.000 A 
ATOM     12  C   UNL     1       3.692   6.179  17.806  0.00  0.00    +0.000 A 
ATOM     13  C   UNL     1       2.886   6.509  18.919  0.00  0.00    +0.000 A 
ATOM     14  N   UNL     1       2.547   7.680  19.559  0.00  0.00    +0.000 N 
ATOM     15  H   UNL     1       1.570   3.450  20.990  0.00  0.00    +0.000 HD
ATOM     16  H   UNL     1       2.397   2.294  20.002  0.00  0.00    +0.000 HD
ATOM     17  H   UNL     1       2.849   8.615  19.319  0.00  0.00    +0.000 HD
ENDROOT
BRANCH   9  18
ATOM     18  C   UNL     1       5.940   4.801  14.473  0.00  0.00    +0.000 A 
ATOM     19  C   UNL     1       5.507   3.793  13.566  0.00  0.00    +0.000 A 
ATOM     20  C   UNL     1       6.548   3.620  12.695  0.00  0.00    +0.000 A 
ATOM     21  N   UNL     1       7.512   4.491  13.087  0.00  0.00    +0.000 N 
ATOM     22  N   UNL     1       7.160   5.247  14.142  0.00  0.00    +0.000 NA
ATOM     23  H   UNL     1       8.437   4.625  12.689  0.00  0.00    +0.000 HD
ENDBRANCH   9  18
BRANCH   1  24
ATOM     24  C   UNL     1       1.327   8.352  21.688  0.00  0.00    +0.000 C 
BRANCH  24  25
ATOM     25  N   UNL     1      -0.099   8.738  21.589  0.00  0.00    +0.000 NA
ATOM     26  C   UNL     1      -0.249   9.727  20.507  0.00  0.00    +0.000 C 
BRANCH  25  28
ATOM     27  C   UNL     1      -0.994  10.762  22.775  0.00  0.00    +0.000 C 
ATOM     28  C   UNL     1      -0.553   9.307  22.878  0.00  0.00    +0.000 C 
ENDBRANCH  25  28
ENDBRANCH  24  25
ENDBRANCH   1  24
TORSDOF 4
ENDMDL
MODEL 6
REMARK VINA RESULT:      -7.4      2.798      6.084
REMARK  Name = 
REMARK  6 active torsions:
REMARK  status: ('A' for Active; 'I' for Inactive)
REMARK    1  A    between atoms: C_1  and  C_2
REMARK    2  A    between atoms: C_2  and  N_3
REMARK    3  A    between atoms: N_3  and  C_4
REMARK    4  A    between atoms: N_3  and  C_5
REMARK    5  A    between atoms: C_5  and  C_6
REMARK    6  A    between atoms: C_14  and  C_15
REMARK                            x       y       z     vdW  Elec       q    Type
REMARK                         _______ _______ _______ _____ _____    ______ ____
ROOT
ATOM      1  C   UNL     1       2.415   6.705  19.712  0.00  0.00    +0.000 A 
ATOM      2  N   UNL     1       2.355   7.601  18.753  0.00  0.00    +0.000 NA
ATOM      3  C   UNL     1       1.687   8.674  19.290  0.00  0.00    +0.000 A 
ATOM      4  C   UNL     1       1.457   9.947  18.728  0.00  0.00    +0.000 A 
ATOM      5  N   UNL     1       1.915  10.289  17.459  0.00  0.00    +0.000 N 
ATOM      6  N   UNL     1       0.838  10.896  19.459  0.00  0.00    +0.000 NA
ATOM      7  C   UNL     1       0.387  10.611  20.691  0.00  0.00    +0.000 A 
ATOM      8  C   UNL     1      -0.298  11.604  21.366  0.00  0.00    +0.000 A 
ATOM      9  C   UNL     1      -0.847  11.401  22.637  0.00  0.00    +0.000 A 
ATOM     10  C   UNL     1      -0.658  10.170  23.278  0.00  0.00    +0.000 A 
ATOM     11  C   UNL     1       0.043   9.145  22.639  0.00  0.00    +0.000 A 
ATOM     12  C   UNL     1       0.554   9.364  21.342  0.00  0.00    +0.000 A 
ATOM     13  C   UNL     1       1.260   8.400  20.587  0.00  0.00    +0.000 A 
ATOM     14  N   UNL     1       1.710   7.121  20.825  0.00  0.00    +0.000 N 
ATOM     15  H   UNL     1       2.659   9.671  17.151  0.00  0.00    +0.000 HD
ATOM     16  H   UNL     1       2.080  11.284  17.395  0.00  0.00    +0.000 HD
ATOM     17  H   UNL     1       1.604   6.585  21.676  0.00  0.00    +0.000 HD
ENDROOT
BRANCH   9  18
ATOM     18  C   UNL     1      -1.620  12.477  23.251  0.00  0.00    +0.000 A 
ATOM     19  C   UNL     1      -3.027  12.496  23.465  0.00  0.00    +0.000 A 
ATOM     20  C   UNL     1      -3.294  13.724  24.005  0.00  0.00    +0.000 A 
ATOM     21  N   UNL     1      -2.099  14.360  24.097  0.00  0.00    +0.000 N 
ATOM     22  N   UNL     1      -1.058  13.616  23.680  0.00  0.00    +0.000 NA
ATOM     23  H   UNL     1      -1.912  15.301  24.429  0.00  0.00    +0.000 HD
ENDBRANCH   9  18
BRANCH   1  24
ATOM     24  C   UNL     1       3.185   5.417  19.643  0.00  0.00    +0.000 C 
BRANCH  24  25
ATOM     25  N   UNL     1       3.171   4.768  18.313  0.00  0.00    +0.000 NA
ATOM     26  C   UNL     1       2.106   3.751  18.291  0.00  0.00    +0.000 C 
BRANCH  25  28
ATOM     27  C   UNL     1       4.802   4.008  16.562  0.00  0.00    +0.000 C 
ATOM     28  C   UNL     1       4.488   4.146  18.047  0.00  0.00    +0.000 C 
ENDBRANCH  25  28
ENDBRANCH  24  25
ENDBRANCH   1  24
TORSDOF 4
ENDMDL
MODEL 7
REMARK VINA RESULT:      -7.3      3.396      8.277
REMARK  Name = 
REMARK  6 active torsions:
REMARK  status: ('A' for Active; 'I' for Inactive)
REMARK    1  A    between atoms: C_1  and  C_2
REMARK    2  A    between atoms: C_2  and  N_3
REMARK    3  A    between atoms: N_3  and  C_4
REMARK    4  A    between atoms: N_3  and  C_5
REMARK    5  A    between atoms: C_5  and  C_6
REMARK    6  A    between atoms: C_14  and  C_15
REMARK                            x       y       z     vdW  Elec       q    Type
REMARK                         _______ _______ _______ _____ _____    ______ ____
ROOT
ATOM      1  C   UNL     1       0.386  11.704  18.879  0.00  0.00    +0.000 A 
ATOM      2  N   UNL     1      -0.083  11.225  20.010  0.00  0.00    +0.000 NA
ATOM      3  C   UNL     1       0.480   9.979  20.146  0.00  0.00    +0.000 A 
ATOM      4  C   UNL     1       0.406   9.089  21.236  0.00  0.00    +0.000 A 
ATOM      5  N   UNL     1      -0.305   9.392  22.393  0.00  0.00    +0.000 N 
ATOM      6  N   UNL     1       1.100   7.933  21.200  0.00  0.00    +0.000 NA
ATOM      7  C   UNL     1       1.806   7.604  20.106  0.00  0.00    +0.000 A 
ATOM      8  C   UNL     1       2.443   6.377  20.102  0.00  0.00    +0.000 A 
ATOM      9  C   UNL     1       3.169   5.916  18.998  0.00  0.00    +0.000 A 
ATOM     10  C   UNL     1       3.305   6.741  17.873  0.00  0.00    +0.000 A 
ATOM     11  C   UNL     1       2.692   7.995  17.843  0.00  0.00    +0.000 A 
ATOM     12  C   UNL     1       1.935   8.419  18.955  0.00  0.00    +0.000 A 
ATOM     13  C   UNL     1       1.252   9.654  19.034  0.00  0.00    +0.000 A 
ATOM     14  N   UNL     1       1.152  10.761  18.221  0.00  0.00    +0.000 N 
ATOM     15  H   UNL     1      -0.472  10.390  22.478  0.00  0.00    +0.000 HD
ATOM     16  H   UNL     1       0.094   8.918  23.192  0.00  0.00    +0.000 HD
ATOM     17  H   UNL     1       1.599  10.902  17.325  0.00  0.00    +0.000 HD
ENDROOT
BRANCH   9  18
ATOM     18  C   UNL     1       3.749   4.577  19.045  0.00  0.00    +0.000 A 
ATOM     19  C   UNL     1       3.045   3.343  18.960  0.00  0.00    +0.000 A 
ATOM     20  C   UNL     1       3.997   2.373  19.114  0.00  0.00    +0.000 A 
ATOM     21  N   UNL     1       5.176   3.027  19.268  0.00  0.00    +0.000 N 
ATOM     22  N   UNL     1       5.065   4.365  19.196  0.00  0.00    +0.000 NA
ATOM     23  H   UNL     1       6.097   2.631  19.431  0.00  0.00    +0.000 HD
ENDBRANCH   9  18
BRANCH   1  24
ATOM     24  C   UNL     1       0.169  13.103  18.378  0.00  0.00    +0.000 C 
BRANCH  24  25
ATOM     25  N   UNL     1       0.567  14.161  19.334  0.00  0.00    +0.000 NA
ATOM     26  C   UNL     1       0.043  15.453  18.858  0.00  0.00    +0.000 C 
BRANCH  25  28
ATOM     27  C   UNL     1       2.739  14.434  18.104  0.00  0.00    +0.000 C 
ATOM     28  C   UNL     1       2.043  14.208  19.441  0.00  0.00    +0.000 C 
ENDBRANCH  25  28
ENDBRANCH  24  25
ENDBRANCH   1  24
TORSDOF 4
ENDMDL
MODEL 8
REMARK VINA RESULT:      -7.3      1.484      2.551
REMARK  Name = 
REMARK  6 active torsions:
REMARK  status: ('A' for Active; 'I' for Inactive)
REMARK    1  A    between atoms: C_1  and  C_2
REMARK    2  A    between atoms: C_2  and  N_3
REMARK    3  A    between atoms: N_3  and  C_4
REMARK    4  A    between atoms: N_3  and  C_5
REMARK    5  A    between atoms: C_5  and  C_6
REMARK    6  A    between atoms: C_14  and  C_15
REMARK                            x       y       z     vdW  Elec       q    Type
REMARK                         _______ _______ _______ _____ _____    ______ ____
ROOT
ATOM      1  C   UNL     1       4.403   4.202  17.338  0.00  0.00    +0.000 A 
ATOM      2  N   UNL     1       4.147   3.548  18.449  0.00  0.00    +0.000 NA
ATOM      3  C   UNL     1       3.391   4.402  19.215  0.00  0.00    +0.000 A 
ATOM      4  C   UNL     1       2.751   4.155  20.447  0.00  0.00    +0.000 A 
ATOM      5  N   UNL     1       2.821   2.919  21.083  0.00  0.00    +0.000 N 
ATOM      6  N   UNL     1       1.986   5.115  21.004  0.00  0.00    +0.000 NA
ATOM      7  C   UNL     1       1.886   6.321  20.421  0.00  0.00    +0.000 A 
ATOM      8  C   UNL     1       1.141   7.286  21.073  0.00  0.00    +0.000 A 
ATOM      9  C   UNL     1       1.005   8.587  20.576  0.00  0.00    +0.000 A 
ATOM     10  C   UNL     1       1.599   8.919  19.351  0.00  0.00    +0.000 A 
ATOM     11  C   UNL     1       2.345   7.969  18.651  0.00  0.00    +0.000 A 
ATOM     12  C   UNL     1       2.496   6.676  19.193  0.00  0.00    +0.000 A 
ATOM     13  C   UNL     1       3.244   5.638  18.591  0.00  0.00    +0.000 A 
ATOM     14  N   UNL     1       3.927   5.498  17.403  0.00  0.00    +0.000 N 
ATOM     15  H   UNL     1       3.089   2.182  20.438  0.00  0.00    +0.000 HD
ATOM     16  H   UNL     1       1.999   2.763  21.651  0.00  0.00    +0.000 HD
ATOM     17  H   UNL     1       4.025   6.188  16.671  0.00  0.00    +0.000 HD
ENDROOT
BRANCH   9  18
ATOM     18  C   UNL     1       0.263   9.568  21.362  0.00  0.00    +0.000 A 
ATOM     19  C   UNL     1      -0.179   9.419  22.707  0.00  0.00    +0.000 A 
ATOM     20  C   UNL     1      -0.876  10.562  22.987  0.00  0.00    +0.000 A 
ATOM     21  N   UNL     1      -0.822  11.318  21.861  0.00  0.00    +0.000 N 
ATOM     22  N   UNL     1      -0.108  10.759  20.869  0.00  0.00    +0.000 NA
ATOM     23  H   UNL     1      -1.249  12.224  21.692  0.00  0.00    +0.000 HD
ENDBRANCH   9  18
BRANCH   1  24
ATOM     24  C   UNL     1       5.076   3.619  16.129  0.00  0.00    +0.000 C 
BRANCH  24  25
ATOM     25  N   UNL     1       6.485   4.037  15.954  0.00  0.00    +0.000 NA
ATOM     26  C   UNL     1       6.951   4.670  17.200  0.00  0.00    +0.000 C 
BRANCH  25  28
ATOM     27  C   UNL     1       6.693   4.297  13.466  0.00  0.00    +0.000 C 
ATOM     28  C   UNL     1       6.589   4.985  14.822  0.00  0.00    +0.000 C 
ENDBRANCH  25  28
ENDBRANCH  24  25
ENDBRANCH   1  24
TORSDOF 4
ENDMDL
MODEL 9
REMARK VINA RESULT:      -7.2      1.205      1.735
REMARK  Name = 
REMARK  6 active torsions:
REMARK  status: ('A' for Active; 'I' for Inactive)
REMARK    1  A    between atoms: C_1  and  C_2
REMARK    2  A    between atoms: C_2  and  N_3
REMARK    3  A    between atoms: N_3  and  C_4
REMARK    4  A    between atoms: N_3  and  C_5
REMARK    5  A    between atoms: C_5  and  C_6
REMARK    6  A    between atoms: C_14  and  C_15
REMARK                            x       y       z     vdW  Elec       q    Type
REMARK                         _______ _______ _______ _____ _____    ______ ____
ROOT
ATOM      1  C   UNL     1       5.136   4.205  16.661  0.00  0.00    +0.000 A 
ATOM      2  N   UNL     1       4.881   3.578  17.788  0.00  0.00    +0.000 NA
ATOM      3  C   UNL     1       4.077   4.427  18.510  0.00  0.00    +0.000 A 
ATOM      4  C   UNL     1       3.421   4.196  19.736  0.00  0.00    +0.000 A 
ATOM      5  N   UNL     1       3.523   2.985  20.414  0.00  0.00    +0.000 N 
ATOM      6  N   UNL     1       2.609   5.144  20.245  0.00  0.00    +0.000 NA
ATOM      7  C   UNL     1       2.475   6.326  19.620  0.00  0.00    +0.000 A 
ATOM      8  C   UNL     1       1.681   7.282  20.224  0.00  0.00    +0.000 A 
ATOM      9  C   UNL     1       1.508   8.561  19.681  0.00  0.00    +0.000 A 
ATOM     10  C   UNL     1       2.115   8.874  18.458  0.00  0.00    +0.000 A 
ATOM     11  C   UNL     1       2.911   7.931  17.805  0.00  0.00    +0.000 A 
ATOM     12  C   UNL     1       3.099   6.663  18.393  0.00  0.00    +0.000 A 
ATOM     13  C   UNL     1       3.898   5.635  17.842  0.00  0.00    +0.000 A 
ATOM     14  N   UNL     1       4.611   5.483  16.674  0.00  0.00    +0.000 N 
ATOM     15  H   UNL     1       3.832   2.238  19.799  0.00  0.00    +0.000 HD
ATOM     16  H   UNL     1       2.695   2.817  20.970  0.00  0.00    +0.000 HD
ATOM     17  H   UNL     1       4.699   6.152  15.921  0.00  0.00    +0.000 HD
ENDROOT
BRANCH   9  18
ATOM     18  C   UNL     1       0.713   9.538  20.419  0.00  0.00    +0.000 A 
ATOM     19  C   UNL     1       0.273   9.429  21.769  0.00  0.00    +0.000 A 
ATOM     20  C   UNL     1      -0.484  10.547  21.993  0.00  0.00    +0.000 A 
ATOM     21  N   UNL     1      -0.463  11.251  20.833  0.00  0.00    +0.000 N 
ATOM     22  N   UNL     1       0.283  10.683  19.869  0.00  0.00    +0.000 NA
ATOM     23  H   UNL     1      -0.936  12.124  20.620  0.00  0.00    +0.000 HD
ENDBRANCH   9  18
BRANCH   1  24
ATOM     24  C   UNL     1       5.857   3.608  15.486  0.00  0.00    +0.000 C 
BRANCH  24  25
ATOM     25  N   UNL     1       5.928   4.493  14.302  0.00  0.00    +0.000 NA
ATOM     26  C   UNL     1       5.628   3.700  13.097  0.00  0.00    +0.000 C 
BRANCH  25  28
ATOM     27  C   UNL     1       7.800   5.181  12.776  0.00  0.00    +0.000 C 
ATOM     28  C   UNL     1       7.279   5.091  14.205  0.00  0.00    +0.000 C 
ENDBRANCH  25  28
ENDBRANCH  24  25
ENDBRANCH   1  24
TORSDOF 4
ENDMDL
