MODEL 1
REMARK VINA RESULT:      -7.1      0.000      0.000
REMARK  Name = 
REMARK  14 active torsions:
REMARK  status: ('A' for Active; 'I' for Inactive)
REMARK    1  A    between atoms: C_1  and  C_2
REMARK    2  A    between atoms: C_2  and  O_3
REMARK    3  A    between atoms: O_3  and  C_4
REMARK    4  A    between atoms: C_9  and  C_10
REMARK    5  A    between atoms: C_12  and  C_13
REMARK    6  A    between atoms: C_13  and  N_14
REMARK    7  A    between atoms: N_14  and  C_15
REMARK    8  A    between atoms: C_15  and  C_16
REMARK    9  A    between atoms: C_18  and  O_19
REMARK   10  A    between atoms: O_19  and  C_20
REMARK   11  A    between atoms: C_21  and  O_22
REMARK   12  A    between atoms: O_22  and  C_23
REMARK   13  A    between atoms: C_24  and  O_25
REMARK   14  A    between atoms: O_25  and  C_26
REMARK                            x       y       z     vdW  Elec       q    Type
REMARK                         _______ _______ _______ _____ _____    ______ ____
ROOT
ATOM      1  C   UNL     1       2.179   9.539  18.079  0.00  0.00    +0.000 C 
ENDROOT
BRANCH   1   4
ATOM      2  C   UNL     1       2.424   6.050  18.813  0.00  0.00    +0.000 A 
ATOM      3  N   UNL     1       2.463   7.031  17.923  0.00  0.00    +0.000 NA
ATOM      4  C   UNL     1       2.184   8.169  18.661  0.00  0.00    +0.000 A 
ATOM      5  C   UNL     1       1.940   7.815  19.962  0.00  0.00    +0.000 A 
ATOM      6  O   UNL     1       2.161   6.486  20.081  0.00  0.00    +0.000 OA
BRANCH   2  12
ATOM      7  C   UNL     1       3.678   4.045  17.820  0.00  0.00    +0.000 A 
ATOM      8  C   UNL     1       3.671   2.657  17.588  0.00  0.00    +0.000 A 
ATOM      9  C   UNL     1       2.757   1.816  18.221  0.00  0.00    +0.000 A 
ATOM     10  C   UNL     1       1.839   2.352  19.110  0.00  0.00    +0.000 A 
ATOM     11  C   UNL     1       1.804   3.734  19.317  0.00  0.00    +0.000 A 
ATOM     12  C   UNL     1       2.686   4.615  18.644  0.00  0.00    +0.000 A 
BRANCH   7  13
ATOM     13  O   UNL     1       4.670   4.676  17.108  0.00  0.00    +0.000 OA
BRANCH  13  15
ATOM     14  C   UNL     1       5.651   4.737  14.895  0.00  0.00    +0.000 C 
ATOM     15  C   UNL     1       5.397   3.914  16.141  0.00  0.00    +0.000 C 
ENDBRANCH  13  15
ENDBRANCH   7  13
ENDBRANCH   2  12
ENDBRANCH   1   4
BRANCH   1  16
ATOM     16  N   UNL     1       0.835   9.968  17.708  0.00  0.00    +0.000 NA
ATOM     17  H   UNL     1       0.275   9.132  17.539  0.00  0.00    +0.000 HD
BRANCH  16  18
ATOM     18  C   UNL     1       0.191  10.768  18.744  0.00  0.00    +0.000 C 
BRANCH  18  19
ATOM     19  C   UNL     1      -1.263  10.956  18.394  0.00  0.00    +0.000 A 
ATOM     20  C   UNL     1      -2.100  11.669  19.258  0.00  0.00    +0.000 A 
ATOM     21  C   UNL     1      -3.458  11.817  18.972  0.00  0.00    +0.000 A 
ATOM     22  C   UNL     1      -4.009  11.200  17.827  0.00  0.00    +0.000 A 
ATOM     23  C   UNL     1      -3.175  10.454  16.970  0.00  0.00    +0.000 A 
ATOM     24  C   UNL     1      -1.807  10.360  17.252  0.00  0.00    +0.000 A 
BRANCH  21  25
ATOM     25  O   UNL     1      -4.319  12.518  19.787  0.00  0.00    +0.000 OA
ATOM     26  C   UNL     1      -3.711  13.325  20.791  0.00  0.00    +0.000 C 
ENDBRANCH  21  25
BRANCH  22  27
ATOM     27  O   UNL     1      -5.377  11.333  17.703  0.00  0.00    +0.000 OA
ATOM     28  C   UNL     1      -5.854  12.462  16.983  0.00  0.00    +0.000 C 
ENDBRANCH  22  27
BRANCH  23  29
ATOM     29  O   UNL     1      -3.725   9.848  15.871  0.00  0.00    +0.000 OA
ATOM     30  C   UNL     1      -3.250  10.275  14.600  0.00  0.00    +0.000 C 
ENDBRANCH  23  29
ENDBRANCH  18  19
ENDBRANCH  16  18
ENDBRANCH   1  16
TORSDOF 10
ENDMDL
MODEL 2
REMARK VINA RESULT:      -7.0      2.327      9.409
REMARK  Name = 
REMARK  14 active torsions:
REMARK  status: ('A' for Active; 'I' for Inactive)
REMARK    1  A    between atoms: C_1  and  C_2
REMARK    2  A    between atoms: C_2  and  O_3
REMARK    3  A    between atoms: O_3  and  C_4
REMARK    4  A    between atoms: C_9  and  C_10
REMARK    5  A    between atoms: C_12  and  C_13
REMARK    6  A    between atoms: C_13  and  N_14
REMARK    7  A    between atoms: N_14  and  C_15
REMARK    8  A    between atoms: C_15  and  C_16
REMARK    9  A    between atoms: C_18  and  O_19
REMARK   10  A    between atoms: O_19  and  C_20
REMARK   11  A    between atoms: C_21  and  O_22
REMARK   12  A    between atoms: O_22  and  C_23
REMARK   13  A    between atoms: C_24  and  O_25
REMARK   14  A    between atoms: O_25  and  C_26
REMARK                            x       y       z     vdW  Elec       q    Type
REMARK                         _______ _______ _______ _____ _____    ______ ____
ROOT
ATOM      1  C   UNL     1       1.964   9.797  17.903  0.00  0.00    +0.000 C 
ENDROOT
BRANCH   1   4
ATOM      2  C   UNL     1      -0.712  11.217  19.799  0.00  0.00    +0.000 A 
ATOM      3  N   UNL     1       0.582  10.958  19.674  0.00  0.00    +0.000 NA
ATOM      4  C   UNL     1       0.672  10.252  18.486  0.00  0.00    +0.000 A 
ATOM      5  C   UNL     1      -0.585  10.073  17.970  0.00  0.00    +0.000 A 
ATOM      6  O   UNL     1      -1.457  10.743  18.758  0.00  0.00    +0.000 OA
BRANCH   2  12
ATOM      7  C   UNL     1      -1.226  11.871  22.225  0.00  0.00    +0.000 A 
ATOM      8  C   UNL     1      -2.128  12.502  23.103  0.00  0.00    +0.000 A 
ATOM      9  C   UNL     1      -3.166  13.303  22.631  0.00  0.00    +0.000 A 
ATOM     10  C   UNL     1      -3.312  13.497  21.266  0.00  0.00    +0.000 A 
ATOM     11  C   UNL     1      -2.451  12.842  20.380  0.00  0.00    +0.000 A 
ATOM     12  C   UNL     1      -1.423  11.980  20.834  0.00  0.00    +0.000 A 
BRANCH   7  13
ATOM     13  O   UNL     1      -0.275  11.148  22.905  0.00  0.00    +0.000 OA
BRANCH  13  15
ATOM     14  C   UNL     1      -0.315   8.792  22.346  0.00  0.00    +0.000 C 
ATOM     15  C   UNL     1      -0.629   9.848  23.384  0.00  0.00    +0.000 C 
ENDBRANCH  13  15
ENDBRANCH   7  13
ENDBRANCH   2  12
ENDBRANCH   1   4
BRANCH   1  16
ATOM     16  N   UNL     1       1.995   8.351  17.710  0.00  0.00    +0.000 NA
ATOM     17  H   UNL     1       1.726   8.158  16.744  0.00  0.00    +0.000 HD
BRANCH  16  18
ATOM     18  C   UNL     1       3.312   7.775  17.959  0.00  0.00    +0.000 C 
BRANCH  18  19
ATOM     19  C   UNL     1       3.247   6.283  17.756  0.00  0.00    +0.000 A 
ATOM     20  C   UNL     1       2.186   5.552  18.298  0.00  0.00    +0.000 A 
ATOM     21  C   UNL     1       2.131   4.164  18.156  0.00  0.00    +0.000 A 
ATOM     22  C   UNL     1       3.181   3.480  17.505  0.00  0.00    +0.000 A 
ATOM     23  C   UNL     1       4.269   4.210  16.984  0.00  0.00    +0.000 A 
ATOM     24  C   UNL     1       4.278   5.605  17.096  0.00  0.00    +0.000 A 
BRANCH  21  25
ATOM     25  O   UNL     1       1.102   3.404  18.664  0.00  0.00    +0.000 OA
ATOM     26  C   UNL     1       0.840   3.555  20.056  0.00  0.00    +0.000 C 
ENDBRANCH  21  25
BRANCH  22  27
ATOM     27  O   UNL     1       3.066   2.105  17.514  0.00  0.00    +0.000 OA
ATOM     28  C   UNL     1       3.715   1.409  18.569  0.00  0.00    +0.000 C 
ENDBRANCH  22  27
BRANCH  23  29
ATOM     29  O   UNL     1       5.288   3.533  16.367  0.00  0.00    +0.000 OA
ATOM     30  C   UNL     1       6.467   4.273  16.081  0.00  0.00    +0.000 C 
ENDBRANCH  23  29
ENDBRANCH  18  19
ENDBRANCH  16  18
ENDBRANCH   1  16
TORSDOF 10
ENDMDL
MODEL 3
REMARK VINA RESULT:      -7.0      1.037      2.647
REMARK  Name = 
REMARK  14 active torsions:
REMARK  status: ('A' for Active; 'I' for Inactive)
REMARK    1  A    between atoms: C_1  and  C_2
REMARK    2  A    between atoms: C_2  and  O_3
REMARK    3  A    between atoms: O_3  and  C_4
REMARK    4  A    between atoms: C_9  and  C_10
REMARK    5  A    between atoms: C_12  and  C_13
REMARK    6  A    between atoms: C_13  and  N_14
REMARK    7  A    between atoms: N_14  and  C_15
REMARK    8  A    between atoms: C_15  and  C_16
REMARK    9  A    between atoms: C_18  and  O_19
REMARK   10  A    between atoms: O_19  and  C_20
REMARK   11  A    between atoms: C_21  and  O_22
REMARK   12  A    between atoms: O_22  and  C_23
REMARK   13  A    between atoms: C_24  and  O_25
REMARK   14  A    between atoms: O_25  and  C_26
REMARK                            x       y       z     vdW  Elec       q    Type
REMARK                         _______ _______ _______ _____ _____    ______ ____
ROOT
ATOM      1  C   UNL     1       1.734   9.985  18.577  0.00  0.00    +0.000 C 
ENDROOT
BRANCH   1   4
ATOM      2  C   UNL     1       2.339   6.470  18.793  0.00  0.00    +0.000 A 
ATOM      3  N   UNL     1       2.251   7.566  18.053  0.00  0.00    +0.000 NA
ATOM      4  C   UNL     1       1.891   8.554  18.955  0.00  0.00    +0.000 A 
ATOM      5  C   UNL     1       1.730   7.997  20.196  0.00  0.00    +0.000 A 
ATOM      6  O   UNL     1       2.083   6.693  20.116  0.00  0.00    +0.000 OA
BRANCH   2  12
ATOM      7  C   UNL     1       3.979   4.722  17.880  0.00  0.00    +0.000 A 
ATOM      8  C   UNL     1       4.138   3.423  17.359  0.00  0.00    +0.000 A 
ATOM      9  C   UNL     1       3.117   2.478  17.432  0.00  0.00    +0.000 A 
ATOM     10  C   UNL     1       1.918   2.814  18.041  0.00  0.00    +0.000 A 
ATOM     11  C   UNL     1       1.729   4.113  18.524  0.00  0.00    +0.000 A 
ATOM     12  C   UNL     1       2.732   5.106  18.412  0.00  0.00    +0.000 A 
BRANCH   7  13
ATOM     13  O   UNL     1       5.114   5.479  17.716  0.00  0.00    +0.000 OA
BRANCH  13  15
ATOM     14  C   UNL     1       7.452   4.975  18.099  0.00  0.00    +0.000 C 
ATOM     15  C   UNL     1       6.133   5.396  18.715  0.00  0.00    +0.000 C 
ENDBRANCH  13  15
ENDBRANCH   7  13
ENDBRANCH   2  12
ENDBRANCH   1   4
BRANCH   1  16
ATOM     16  N   UNL     1       0.411  10.261  18.026  0.00  0.00    +0.000 NA
ATOM     17  H   UNL     1      -0.195   9.474  18.261  0.00  0.00    +0.000 HD
BRANCH  16  18
ATOM     18  C   UNL     1      -0.178  11.486  18.555  0.00  0.00    +0.000 C 
BRANCH  18  19
ATOM     19  C   UNL     1      -1.666  11.464  18.318  0.00  0.00    +0.000 A 
ATOM     20  C   UNL     1      -2.165  11.096  17.065  0.00  0.00    +0.000 A 
ATOM     21  C   UNL     1      -3.539  11.110  16.814  0.00  0.00    +0.000 A 
ATOM     22  C   UNL     1      -4.434  11.548  17.814  0.00  0.00    +0.000 A 
ATOM     23  C   UNL     1      -3.932  11.951  19.069  0.00  0.00    +0.000 A 
ATOM     24  C   UNL     1      -2.556  11.882  19.313  0.00  0.00    +0.000 A 
BRANCH  21  25
ATOM     25  O   UNL     1      -4.077  10.746  15.600  0.00  0.00    +0.000 OA
ATOM     26  C   UNL     1      -3.180  10.144  14.673  0.00  0.00    +0.000 C 
ENDBRANCH  21  25
BRANCH  22  27
ATOM     27  O   UNL     1      -5.754  11.613  17.418  0.00  0.00    +0.000 OA
ATOM     28  C   UNL     1      -6.271  12.899  17.100  0.00  0.00    +0.000 C 
ENDBRANCH  22  27
BRANCH  23  29
ATOM     29  O   UNL     1      -4.810  12.388  20.025  0.00  0.00    +0.000 OA
ATOM     30  C   UNL     1      -4.247  12.870  21.238  0.00  0.00    +0.000 C 
ENDBRANCH  23  29
ENDBRANCH  18  19
ENDBRANCH  16  18
ENDBRANCH   1  16
TORSDOF 10
ENDMDL
MODEL 4
REMARK VINA RESULT:      -6.9      1.319      2.743
REMARK  Name = 
REMARK  14 active torsions:
REMARK  status: ('A' for Active; 'I' for Inactive)
REMARK    1  A    between atoms: C_1  and  C_2
REMARK    2  A    between atoms: C_2  and  O_3
REMARK    3  A    between atoms: O_3  and  C_4
REMARK    4  A    between atoms: C_9  and  C_10
REMARK    5  A    between atoms: C_12  and  C_13
REMARK    6  A    between atoms: C_13  and  N_14
REMARK    7  A    between atoms: N_14  and  C_15
REMARK    8  A    between atoms: C_15  and  C_16
REMARK    9  A    between atoms: C_18  and  O_19
REMARK   10  A    between atoms: O_19  and  C_20
REMARK   11  A    between atoms: C_21  and  O_22
REMARK   12  A    between atoms: O_22  and  C_23
REMARK   13  A    between atoms: C_24  and  O_25
REMARK   14  A    between atoms: O_25  and  C_26
REMARK                            x       y       z     vdW  Elec       q    Type
REMARK                         _______ _______ _______ _____ _____    ______ ____
ROOT
ATOM      1  C   UNL     1       1.826   9.928  18.231  0.00  0.00    +0.000 C 
ENDROOT
BRANCH   1   4
ATOM      2  C   UNL     1       2.047   6.745  19.841  0.00  0.00    +0.000 A 
ATOM      3  N   UNL     1       2.232   7.488  18.759  0.00  0.00    +0.000 NA
ATOM      4  C   UNL     1       1.763   8.739  19.125  0.00  0.00    +0.000 A 
ATOM      5  C   UNL     1       1.269   8.681  20.402  0.00  0.00    +0.000 A 
ATOM      6  O   UNL     1       1.512   7.442  20.887  0.00  0.00    +0.000 OA
BRANCH   2  12
ATOM      7  C   UNL     1       3.590   4.700  19.702  0.00  0.00    +0.000 A 
ATOM      8  C   UNL     1       3.693   3.300  19.809  0.00  0.00    +0.000 A 
ATOM      9  C   UNL     1       2.671   2.534  20.366  0.00  0.00    +0.000 A 
ATOM     10  C   UNL     1       1.529   3.161  20.839  0.00  0.00    +0.000 A 
ATOM     11  C   UNL     1       1.393   4.545  20.699  0.00  0.00    +0.000 A 
ATOM     12  C   UNL     1       2.393   5.338  20.087  0.00  0.00    +0.000 A 
BRANCH   7  13
ATOM     13  O   UNL     1       4.716   5.252  19.140  0.00  0.00    +0.000 OA
BRANCH  13  15
ATOM     14  C   UNL     1       5.732   4.805  16.987  0.00  0.00    +0.000 C 
ATOM     15  C   UNL     1       5.615   4.389  18.439  0.00  0.00    +0.000 C 
ENDBRANCH  13  15
ENDBRANCH   7  13
ENDBRANCH   2  12
ENDBRANCH   1   4
BRANCH   1  16
ATOM     16  N   UNL     1       0.498  10.379  17.831  0.00  0.00    +0.000 NA
ATOM     17  H   UNL     1      -0.134   9.580  17.885  0.00  0.00    +0.000 HD
BRANCH  16  18
ATOM     18  C   UNL     1      -0.016  11.447  18.682  0.00  0.00    +0.000 C 
BRANCH  18  19
ATOM     19  C   UNL     1      -1.517  11.502  18.557  0.00  0.00    +0.000 A 
ATOM     20  C   UNL     1      -2.130  11.118  17.361  0.00  0.00    +0.000 A 
ATOM     21  C   UNL     1      -3.516  11.202  17.212  0.00  0.00    +0.000 A 
ATOM     22  C   UNL     1      -4.307  11.727  18.258  0.00  0.00    +0.000 A 
ATOM     23  C   UNL     1      -3.689  12.144  19.454  0.00  0.00    +0.000 A 
ATOM     24  C   UNL     1      -2.304  12.006  19.598  0.00  0.00    +0.000 A 
BRANCH  21  25
ATOM     25  O   UNL     1      -4.165  10.826  16.057  0.00  0.00    +0.000 OA
ATOM     26  C   UNL     1      -3.333  10.540  14.938  0.00  0.00    +0.000 C 
ENDBRANCH  21  25
BRANCH  22  27
ATOM     27  O   UNL     1      -5.648  11.853  17.959  0.00  0.00    +0.000 OA
ATOM     28  C   UNL     1      -6.519  10.848  18.459  0.00  0.00    +0.000 C 
ENDBRANCH  22  27
BRANCH  23  29
ATOM     29  O   UNL     1      -4.466  12.665  20.455  0.00  0.00    +0.000 OA
ATOM     30  C   UNL     1      -4.432  14.077  20.624  0.00  0.00    +0.000 C 
ENDBRANCH  23  29
ENDBRANCH  18  19
ENDBRANCH  16  18
ENDBRANCH   1  16
TORSDOF 10
ENDMDL
MODEL 5
REMARK VINA RESULT:      -6.9      1.769      3.032
REMARK  Name = 
REMARK  14 active torsions:
REMARK  status: ('A' for Active; 'I' for Inactive)
REMARK    1  A    between atoms: C_1  and  C_2
REMARK    2  A    between atoms: C_2  and  O_3
REMARK    3  A    between atoms: O_3  and  C_4
REMARK    4  A    between atoms: C_9  and  C_10
REMARK    5  A    between atoms: C_12  and  C_13
REMARK    6  A    between atoms: C_13  and  N_14
REMARK    7  A    between atoms: N_14  and  C_15
REMARK    8  A    between atoms: C_15  and  C_16
REMARK    9  A    between atoms: C_18  and  O_19
REMARK   10  A    between atoms: O_19  and  C_20
REMARK   11  A    between atoms: C_21  and  O_22
REMARK   12  A    between atoms: O_22  and  C_23
REMARK   13  A    between atoms: C_24  and  O_25
REMARK   14  A    between atoms: O_25  and  C_26
REMARK                            x       y       z     vdW  Elec       q    Type
REMARK                         _______ _______ _______ _____ _____    ______ ____
ROOT
ATOM      1  C   UNL     1       0.829  10.048  20.328  0.00  0.00    +0.000 C 
ENDROOT
BRANCH   1   4
ATOM      2  C   UNL     1       2.357   7.365  18.527  0.00  0.00    +0.000 A 
ATOM      3  N   UNL     1       1.863   7.837  19.662  0.00  0.00    +0.000 NA
ATOM      4  C   UNL     1       1.496   9.138  19.357  0.00  0.00    +0.000 A 
ATOM      5  C   UNL     1       1.832   9.408  18.056  0.00  0.00    +0.000 A 
ATOM      6  O   UNL     1       2.311   8.270  17.504  0.00  0.00    +0.000 OA
BRANCH   2  12
ATOM      7  C   UNL     1       4.220   5.672  18.038  0.00  0.00    +0.000 A 
ATOM      8  C   UNL     1       4.546   4.404  17.520  0.00  0.00    +0.000 A 
ATOM      9  C   UNL     1       3.563   3.454  17.246  0.00  0.00    +0.000 A 
ATOM     10  C   UNL     1       2.234   3.755  17.499  0.00  0.00    +0.000 A 
ATOM     11  C   UNL     1       1.892   5.025  17.972  0.00  0.00    +0.000 A 
ATOM     12  C   UNL     1       2.866   6.025  18.206  0.00  0.00    +0.000 A 
BRANCH   7  13
ATOM     13  O   UNL     1       5.341   6.439  18.248  0.00  0.00    +0.000 OA
BRANCH  13  15
ATOM     14  C   UNL     1       7.506   7.236  17.510  0.00  0.00    +0.000 C 
ATOM     15  C   UNL     1       6.093   6.864  17.110  0.00  0.00    +0.000 C 
ENDBRANCH  13  15
ENDBRANCH   7  13
ENDBRANCH   2  12
ENDBRANCH   1   4
BRANCH   1  16
ATOM     16  N   UNL     1      -0.580  10.248  20.008  0.00  0.00    +0.000 NA
ATOM     17  H   UNL     1      -1.123  10.048  20.849  0.00  0.00    +0.000 HD
BRANCH  16  18
ATOM     18  C   UNL     1      -0.871  11.608  19.568  0.00  0.00    +0.000 C 
BRANCH  18  19
ATOM     19  C   UNL     1      -2.273  11.661  19.016  0.00  0.00    +0.000 A 
ATOM     20  C   UNL     1      -2.510  11.302  17.685  0.00  0.00    +0.000 A 
ATOM     21  C   UNL     1      -3.795  11.385  17.144  0.00  0.00    +0.000 A 
ATOM     22  C   UNL     1      -4.859  11.884  17.927  0.00  0.00    +0.000 A 
ATOM     23  C   UNL     1      -4.618  12.277  19.259  0.00  0.00    +0.000 A 
ATOM     24  C   UNL     1      -3.331  12.139  19.794  0.00  0.00    +0.000 A 
BRANCH  21  25
ATOM     25  O   UNL     1      -4.078  11.034  15.843  0.00  0.00    +0.000 OA
ATOM     26  C   UNL     1      -3.219  10.062  15.256  0.00  0.00    +0.000 C 
ENDBRANCH  21  25
BRANCH  22  27
ATOM     27  O   UNL     1      -6.057  12.013  17.255  0.00  0.00    +0.000 OA
ATOM     28  C   UNL     1      -6.490  13.333  16.952  0.00  0.00    +0.000 C 
ENDBRANCH  22  27
BRANCH  23  29
ATOM     29  O   UNL     1      -5.656  12.773  20.003  0.00  0.00    +0.000 OA
ATOM     30  C   UNL     1      -6.475  11.823  20.672  0.00  0.00    +0.000 C 
ENDBRANCH  23  29
ENDBRANCH  18  19
ENDBRANCH  16  18
ENDBRANCH   1  16
TORSDOF 10
ENDMDL
MODEL 6
REMARK VINA RESULT:      -6.9      6.104      9.529
REMARK  Name = 
REMARK  14 active torsions:
REMARK  status: ('A' for Active; 'I' for Inactive)
REMARK    1  A    between atoms: C_1  and  C_2
REMARK    2  A    between atoms: C_2  and  O_3
REMARK    3  A    between atoms: O_3  and  C_4
REMARK    4  A    between atoms: C_9  and  C_10
REMARK    5  A    between atoms: C_12  and  C_13
REMARK    6  A    between atoms: C_13  and  N_14
REMARK    7  A    between atoms: N_14  and  C_15
REMARK    8  A    between atoms: C_15  and  C_16
REMARK    9  A    between atoms: C_18  and  O_19
REMARK   10  A    between atoms: O_19  and  C_20
REMARK   11  A    between atoms: C_21  and  O_22
REMARK   12  A    between atoms: O_22  and  C_23
REMARK   13  A    between atoms: C_24  and  O_25
REMARK   14  A    between atoms: O_25  and  C_26
REMARK                            x       y       z     vdW  Elec       q    Type
REMARK                         _______ _______ _______ _____ _____    ______ ____
ROOT
ATOM      1  C   UNL     1       7.532   7.418  17.091  0.00  0.00    +0.000 C 
ENDROOT
BRANCH   1   4
ATOM      2  C   UNL     1       4.559   5.887  18.351  0.00  0.00    +0.000 A 
ATOM      3  N   UNL     1       5.810   6.277  18.550  0.00  0.00    +0.000 NA
ATOM      4  C   UNL     1       6.200   6.797  17.326  0.00  0.00    +0.000 A 
ATOM      5  C   UNL     1       5.177   6.650  16.427  0.00  0.00    +0.000 A 
ATOM      6  O   UNL     1       4.111   6.142  17.086  0.00  0.00    +0.000 OA
BRANCH   2  12
ATOM      7  C   UNL     1       3.503   3.938  19.642  0.00  0.00    +0.000 A 
ATOM      8  C   UNL     1       2.395   3.488  20.385  0.00  0.00    +0.000 A 
ATOM      9  C   UNL     1       1.426   4.372  20.858  0.00  0.00    +0.000 A 
ATOM     10  C   UNL     1       1.558   5.728  20.604  0.00  0.00    +0.000 A 
ATOM     11  C   UNL     1       2.629   6.185  19.829  0.00  0.00    +0.000 A 
ATOM     12  C   UNL     1       3.595   5.301  19.292  0.00  0.00    +0.000 A 
BRANCH   7  13
ATOM     13  O   UNL     1       4.337   2.903  19.294  0.00  0.00    +0.000 OA
BRANCH  13  15
ATOM     14  C   UNL     1       3.100   2.099  17.374  0.00  0.00    +0.000 C 
ATOM     15  C   UNL     1       3.760   1.743  18.689  0.00  0.00    +0.000 C 
ENDBRANCH  13  15
ENDBRANCH   7  13
ENDBRANCH   2  12
ENDBRANCH   1   4
BRANCH   1  16
ATOM     16  N   UNL     1       7.661   8.704  17.768  0.00  0.00    +0.000 NA
ATOM     17  H   UNL     1       6.813   8.854  18.317  0.00  0.00    +0.000 HD
BRANCH  16  18
ATOM     18  C   UNL     1       8.817   8.763  18.656  0.00  0.00    +0.000 C 
BRANCH  18  19
ATOM     19  C   UNL     1       9.111  10.202  18.993  0.00  0.00    +0.000 A 
ATOM     20  C   UNL     1       9.461  11.097  17.977  0.00  0.00    +0.000 A 
ATOM     21  C   UNL     1       9.778  12.423  18.274  0.00  0.00    +0.000 A 
ATOM     22  C   UNL     1       9.797  12.860  19.617  0.00  0.00    +0.000 A 
ATOM     23  C   UNL     1       9.475  11.953  20.648  0.00  0.00    +0.000 A 
ATOM     24  C   UNL     1       9.114  10.641  20.321  0.00  0.00    +0.000 A 
BRANCH  21  25
ATOM     25  O   UNL     1      10.119  13.342  17.307  0.00  0.00    +0.000 OA
ATOM     26  C   UNL     1      11.415  13.198  16.737  0.00  0.00    +0.000 C 
ENDBRANCH  21  25
BRANCH  22  27
ATOM     27  O   UNL     1      10.220  14.161  19.795  0.00  0.00    +0.000 OA
ATOM     28  C   UNL     1       9.218  15.141  20.025  0.00  0.00    +0.000 C 
ENDBRANCH  22  27
BRANCH  23  29
ATOM     29  O   UNL     1       9.511  12.385  21.947  0.00  0.00    +0.000 OA
ATOM     30  C   UNL     1       8.421  12.007  22.778  0.00  0.00    +0.000 C 
ENDBRANCH  23  29
ENDBRANCH  18  19
ENDBRANCH  16  18
ENDBRANCH   1  16
TORSDOF 10
ENDMDL
MODEL 7
REMARK VINA RESULT:      -6.9      2.690      5.032
REMARK  Name = 
REMARK  14 active torsions:
REMARK  status: ('A' for Active; 'I' for Inactive)
REMARK    1  A    between atoms: C_1  and  C_2
REMARK    2  A    between atoms: C_2  and  O_3
REMARK    3  A    between atoms: O_3  and  C_4
REMARK    4  A    between atoms: C_9  and  C_10
REMARK    5  A    between atoms: C_12  and  C_13
REMARK    6  A    between atoms: C_13  and  N_14
REMARK    7  A    between atoms: N_14  and  C_15
REMARK    8  A    between atoms: C_15  and  C_16
REMARK    9  A    between atoms: C_18  and  O_19
REMARK   10  A    between atoms: O_19  and  C_20
REMARK   11  A    between atoms: C_21  and  O_22
REMARK   12  A    between atoms: O_22  and  C_23
REMARK   13  A    between atoms: C_24  and  O_25
REMARK   14  A    between atoms: O_25  and  C_26
REMARK                            x       y       z     vdW  Elec       q    Type
REMARK                         _______ _______ _______ _____ _____    ______ ____
ROOT
ATOM      1  C   UNL     1       1.715   4.815  20.226  0.00  0.00    +0.000 C 
ENDROOT
BRANCH   1   4
ATOM      2  C   UNL     1       4.466   4.132  18.049  0.00  0.00    +0.000 A 
ATOM      3  N   UNL     1       3.347   4.799  18.294  0.00  0.00    +0.000 NA
ATOM      4  C   UNL     1       2.921   4.306  19.517  0.00  0.00    +0.000 A 
ATOM      5  C   UNL     1       3.781   3.324  19.933  0.00  0.00    +0.000 A 
ATOM      6  O   UNL     1       4.800   3.259  19.045  0.00  0.00    +0.000 OA
BRANCH   2  12
ATOM      7  C   UNL     1       6.788   4.502  17.024  0.00  0.00    +0.000 A 
ATOM      8  C   UNL     1       7.521   4.804  15.861  0.00  0.00    +0.000 A 
ATOM      9  C   UNL     1       6.930   4.778  14.599  0.00  0.00    +0.000 A 
ATOM     10  C   UNL     1       5.593   4.435  14.479  0.00  0.00    +0.000 A 
ATOM     11  C   UNL     1       4.840   4.175  15.629  0.00  0.00    +0.000 A 
ATOM     12  C   UNL     1       5.404   4.249  16.925  0.00  0.00    +0.000 A 
BRANCH   7  13
ATOM     13  O   UNL     1       7.571   4.572  18.152  0.00  0.00    +0.000 OA
BRANCH  13  15
ATOM     14  C   UNL     1       7.942   6.945  18.465  0.00  0.00    +0.000 C 
ATOM     15  C   UNL     1       7.370   5.668  19.047  0.00  0.00    +0.000 C 
ENDBRANCH  13  15
ENDBRANCH   7  13
ENDBRANCH   2  12
ENDBRANCH   1   4
BRANCH   1  16
ATOM     16  N   UNL     1       1.948   6.125  20.824  0.00  0.00    +0.000 NA
ATOM     17  H   UNL     1       2.689   6.024  21.519  0.00  0.00    +0.000 HD
BRANCH  16  18
ATOM     18  C   UNL     1       2.350   7.130  19.846  0.00  0.00    +0.000 C 
BRANCH  18  19
ATOM     19  C   UNL     1       1.466   8.342  19.988  0.00  0.00    +0.000 A 
ATOM     20  C   UNL     1       0.919   8.942  18.849  0.00  0.00    +0.000 A 
ATOM     21  C   UNL     1       0.132  10.090  18.957  0.00  0.00    +0.000 A 
ATOM     22  C   UNL     1      -0.076  10.686  20.220  0.00  0.00    +0.000 A 
ATOM     23  C   UNL     1       0.500  10.103  21.368  0.00  0.00    +0.000 A 
ATOM     24  C   UNL     1       1.245   8.925  21.240  0.00  0.00    +0.000 A 
BRANCH  21  25
ATOM     25  O   UNL     1      -0.435  10.709  17.866  0.00  0.00    +0.000 OA
ATOM     26  C   UNL     1      -1.633  10.123  17.367  0.00  0.00    +0.000 C 
ENDBRANCH  21  25
BRANCH  22  27
ATOM     27  O   UNL     1      -0.785  11.869  20.190  0.00  0.00    +0.000 OA
ATOM     28  C   UNL     1      -0.035  13.075  20.254  0.00  0.00    +0.000 C 
ENDBRANCH  22  27
BRANCH  23  29
ATOM     29  O   UNL     1       0.303  10.700  22.585  0.00  0.00    +0.000 OA
ATOM     30  C   UNL     1      -0.804  10.243  23.351  0.00  0.00    +0.000 C 
ENDBRANCH  23  29
ENDBRANCH  18  19
ENDBRANCH  16  18
ENDBRANCH   1  16
TORSDOF 10
ENDMDL
MODEL 8
REMARK VINA RESULT:      -6.8      6.515      9.948
REMARK  Name = 
REMARK  14 active torsions:
REMARK  status: ('A' for Active; 'I' for Inactive)
REMARK    1  A    between atoms: C_1  and  C_2
REMARK    2  A    between atoms: C_2  and  O_3
REMARK    3  A    between atoms: O_3  and  C_4
REMARK    4  A    between atoms: C_9  and  C_10
REMARK    5  A    between atoms: C_12  and  C_13
REMARK    6  A    between atoms: C_13  and  N_14
REMARK    7  A    between atoms: N_14  and  C_15
REMARK    8  A    between atoms: C_15  and  C_16
REMARK    9  A    between atoms: C_18  and  O_19
REMARK   10  A    between atoms: O_19  and  C_20
REMARK   11  A    between atoms: C_21  and  O_22
REMARK   12  A    between atoms: O_22  and  C_23
REMARK   13  A    between atoms: C_24  and  O_25
REMARK   14  A    between atoms: O_25  and  C_26
REMARK                            x       y       z     vdW  Elec       q    Type
REMARK                         _______ _______ _______ _____ _____    ______ ____
ROOT
ATOM      1  C   UNL     1       8.056   8.195  17.203  0.00  0.00    +0.000 C 
ENDROOT
BRANCH   1   4
ATOM      2  C   UNL     1       5.417   5.905  17.951  0.00  0.00    +0.000 A 
ATOM      3  N   UNL     1       5.814   7.042  17.399  0.00  0.00    +0.000 NA
ATOM      4  C   UNL     1       7.168   7.102  17.685  0.00  0.00    +0.000 A 
ATOM      5  C   UNL     1       7.518   6.016  18.444  0.00  0.00    +0.000 A 
ATOM      6  O   UNL     1       6.432   5.218  18.555  0.00  0.00    +0.000 OA
BRANCH   2  12
ATOM      7  C   UNL     1       2.988   5.643  18.734  0.00  0.00    +0.000 A 
ATOM      8  C   UNL     1       1.856   4.808  18.783  0.00  0.00    +0.000 A 
ATOM      9  C   UNL     1       1.765   3.657  18.002  0.00  0.00    +0.000 A 
ATOM     10  C   UNL     1       2.805   3.327  17.148  0.00  0.00    +0.000 A 
ATOM     11  C   UNL     1       3.955   4.123  17.122  0.00  0.00    +0.000 A 
ATOM     12  C   UNL     1       4.094   5.267  17.944  0.00  0.00    +0.000 A 
BRANCH   7  13
ATOM     13  O   UNL     1       2.858   6.728  19.569  0.00  0.00    +0.000 OA
BRANCH  13  15
ATOM     14  C   UNL     1       2.487   8.411  17.867  0.00  0.00    +0.000 C 
ATOM     15  C   UNL     1       1.998   7.795  19.161  0.00  0.00    +0.000 C 
ENDBRANCH  13  15
ENDBRANCH   7  13
ENDBRANCH   2  12
ENDBRANCH   1   4
BRANCH   1  16
ATOM     16  N   UNL     1       8.039   9.346  18.099  0.00  0.00    +0.000 NA
ATOM     17  H   UNL     1       7.141   9.351  18.584  0.00  0.00    +0.000 HD
BRANCH  16  18
ATOM     18  C   UNL     1       9.111   9.310  19.088  0.00  0.00    +0.000 C 
BRANCH  18  19
ATOM     19  C   UNL     1       9.468  10.719  19.484  0.00  0.00    +0.000 A 
ATOM     20  C   UNL     1      10.164  11.538  18.590  0.00  0.00    +0.000 A 
ATOM     21  C   UNL     1      10.541  12.832  18.955  0.00  0.00    +0.000 A 
ATOM     22  C   UNL     1      10.265  13.307  20.256  0.00  0.00    +0.000 A 
ATOM     23  C   UNL     1       9.591  12.473  21.171  0.00  0.00    +0.000 A 
ATOM     24  C   UNL     1       9.180  11.197  20.767  0.00  0.00    +0.000 A 
BRANCH  21  25
ATOM     25  O   UNL     1      11.219  13.678  18.105  0.00  0.00    +0.000 OA
ATOM     26  C   UNL     1      11.389  13.217  16.769  0.00  0.00    +0.000 C 
ENDBRANCH  21  25
BRANCH  22  27
ATOM     27  O   UNL     1      10.772  14.560  20.532  0.00  0.00    +0.000 OA
ATOM     28  C   UNL     1       9.860  15.650  20.491  0.00  0.00    +0.000 C 
ENDBRANCH  22  27
BRANCH  23  29
ATOM     29  O   UNL     1       9.342  12.940  22.435  0.00  0.00    +0.000 OA
ATOM     30  C   UNL     1       8.459  12.169  23.240  0.00  0.00    +0.000 C 
ENDBRANCH  23  29
ENDBRANCH  18  19
ENDBRANCH  16  18
ENDBRANCH   1  16
TORSDOF 10
ENDMDL
MODEL 9
REMARK VINA RESULT:      -6.8      2.488      4.165
REMARK  Name = 
REMARK  14 active torsions:
REMARK  status: ('A' for Active; 'I' for Inactive)
REMARK    1  A    between atoms: C_1  and  C_2
REMARK    2  A    between atoms: C_2  and  O_3
REMARK    3  A    between atoms: O_3  and  C_4
REMARK    4  A    between atoms: C_9  and  C_10
REMARK    5  A    between atoms: C_12  and  C_13
REMARK    6  A    between atoms: C_13  and  N_14
REMARK    7  A    between atoms: N_14  and  C_15
REMARK    8  A    between atoms: C_15  and  C_16
REMARK    9  A    between atoms: C_18  and  O_19
REMARK   10  A    between atoms: O_19  and  C_20
REMARK   11  A    between atoms: C_21  and  O_22
REMARK   12  A    between atoms: O_22  and  C_23
REMARK   13  A    between atoms: C_24  and  O_25
REMARK   14  A    between atoms: O_25  and  C_26
REMARK                            x       y       z     vdW  Elec       q    Type
REMARK                         _______ _______ _______ _____ _____    ______ ____
ROOT
ATOM      1  C   UNL     1       1.417  10.627  18.369  0.00  0.00    +0.000 C 
ENDROOT
BRANCH   1   4
ATOM      2  C   UNL     1       2.597   7.257  18.239  0.00  0.00    +0.000 A 
ATOM      3  N   UNL     1       2.366   8.406  17.621  0.00  0.00    +0.000 NA
ATOM      4  C   UNL     1       1.793   9.205  18.596  0.00  0.00    +0.000 A 
ATOM      5  C   UNL     1       1.658   8.481  19.752  0.00  0.00    +0.000 A 
ATOM      6  O   UNL     1       2.230   7.271  19.554  0.00  0.00    +0.000 OA
BRANCH   2  12
ATOM      7  C   UNL     1       2.670   4.740  17.747  0.00  0.00    +0.000 A 
ATOM      8  C   UNL     1       3.478   3.629  17.440  0.00  0.00    +0.000 A 
ATOM      9  C   UNL     1       4.806   3.780  17.047  0.00  0.00    +0.000 A 
ATOM     10  C   UNL     1       5.347   5.051  16.942  0.00  0.00    +0.000 A 
ATOM     11  C   UNL     1       4.570   6.162  17.286  0.00  0.00    +0.000 A 
ATOM     12  C   UNL     1       3.236   6.032  17.740  0.00  0.00    +0.000 A 
BRANCH   7  13
ATOM     13  O   UNL     1       1.394   4.363  18.092  0.00  0.00    +0.000 OA
BRANCH  13  15
ATOM     14  C   UNL     1       1.053   3.982  20.460  0.00  0.00    +0.000 C 
ATOM     15  C   UNL     1       1.235   3.355  19.093  0.00  0.00    +0.000 C 
ENDBRANCH  13  15
ENDBRANCH   7  13
ENDBRANCH   2  12
ENDBRANCH   1   4
BRANCH   1  16
ATOM     16  N   UNL     1      -0.029  10.801  18.282  0.00  0.00    +0.000 NA
ATOM     17  H   UNL     1      -0.463  10.141  18.930  0.00  0.00    +0.000 HD
BRANCH  16  18
ATOM     18  C   UNL     1      -0.459  12.152  18.624  0.00  0.00    +0.000 C 
BRANCH  18  19
ATOM     19  C   UNL     1      -1.233  12.114  19.917  0.00  0.00    +0.000 A 
ATOM     20  C   UNL     1      -2.468  12.764  20.007  0.00  0.00    +0.000 A 
ATOM     21  C   UNL     1      -3.180  12.776  21.208  0.00  0.00    +0.000 A 
ATOM     22  C   UNL     1      -2.630  12.173  22.360  0.00  0.00    +0.000 A 
ATOM     23  C   UNL     1      -1.371  11.543  22.281  0.00  0.00    +0.000 A 
ATOM     24  C   UNL     1      -0.698  11.503  21.055  0.00  0.00    +0.000 A 
BRANCH  21  25
ATOM     25  O   UNL     1      -4.403  13.394  21.342  0.00  0.00    +0.000 OA
ATOM     26  C   UNL     1      -5.511  12.724  20.749  0.00  0.00    +0.000 C 
ENDBRANCH  21  25
BRANCH  22  27
ATOM     27  O   UNL     1      -3.378  12.334  23.508  0.00  0.00    +0.000 OA
ATOM     28  C   UNL     1      -3.121  13.494  24.288  0.00  0.00    +0.000 C 
ENDBRANCH  22  27
BRANCH  23  29
ATOM     29  O   UNL     1      -0.842  10.974  23.410  0.00  0.00    +0.000 OA
ATOM     30  C   UNL     1      -0.219   9.706  23.255  0.00  0.00    +0.000 C 
ENDBRANCH  23  29
ENDBRANCH  18  19
ENDBRANCH  16  18
ENDBRANCH   1  16
TORSDOF 10
ENDMDL
