MODEL 1
REMARK VINA RESULT:      -7.6      0.000      0.000
REMARK  Name = 
REMARK  10 active torsions:
REMARK  status: ('A' for Active; 'I' for Inactive)
REMARK    1  A    between atoms: C_1  and  C_2
REMARK    2  A    between atoms: C_7  and  C_8
REMARK    3  A    between atoms: C_7  and  C_9
REMARK    4  A    between atoms: C_17  and  N_18
REMARK    5  A    between atoms: C_19  and  O_21
REMARK    6  A    between atoms: O_21  and  C_22
REMARK    7  A    between atoms: C_22  and  C_23
REMARK    8  A    between atoms: C_23  and  C_24
REMARK    9  A    between atoms: C_24  and  C_25
REMARK   10  A    between atoms: C_24  and  C_26
REMARK                            x       y       z     vdW  Elec       q    Type
REMARK                         _______ _______ _______ _____ _____    ______ ____
ROOT
ATOM      1  C   UNL     1       7.382   4.429  16.378  0.00  0.00    +0.000 C 
ATOM      2  C   UNL     1       6.393   5.570  16.540  0.00  0.00    +0.000 C 
ATOM      3  O   UNL     1       6.771   6.692  16.202  0.00  0.00    +0.000 OA
ATOM      4  N   UNL     1       5.120   5.240  17.044  0.00  0.00    +0.000 N 
ATOM      5  C   UNL     1       4.813   3.856  17.429  0.00  0.00    +0.000 C 
ATOM      6  C   UNL     1       3.386   3.462  17.127  0.00  0.00    +0.000 C 
ATOM      7  C   UNL     1       2.373   4.357  17.856  0.00  0.00    +0.000 C 
ATOM      8  C   UNL     1       1.041   4.189  17.059  0.00  0.00    +0.000 C 
ATOM      9  C   UNL     1       2.811   5.826  17.761  0.00  0.00    +0.000 A 
ATOM     10  C   UNL     1       1.855   6.797  18.154  0.00  0.00    +0.000 A 
ATOM     11  C   UNL     1       2.093   8.159  18.082  0.00  0.00    +0.000 A 
ATOM     12  C   UNL     1       3.354   8.566  17.659  0.00  0.00    +0.000 A 
ATOM     13  C   UNL     1       4.339   7.616  17.307  0.00  0.00    +0.000 A 
ATOM     14  C   UNL     1       4.102   6.229  17.352  0.00  0.00    +0.000 A 
ENDROOT
BRANCH   7  15
ATOM     15  C   UNL     1       2.242   3.907  19.334  0.00  0.00    +0.000 A 
ATOM     16  C   UNL     1       1.725   2.636  19.663  0.00  0.00    +0.000 A 
ATOM     17  C   UNL     1       1.577   2.223  20.989  0.00  0.00    +0.000 A 
ATOM     18  C   UNL     1       1.945   3.075  22.025  0.00  0.00    +0.000 A 
ATOM     19  C   UNL     1       2.470   4.328  21.730  0.00  0.00    +0.000 A 
ATOM     20  C   UNL     1       2.613   4.741  20.401  0.00  0.00    +0.000 A 
ENDBRANCH   7  15
BRANCH  11  21
ATOM     21  N   UNL     1       1.110   9.123  18.379  0.00  0.00    +0.000 N 
ATOM     22  C   UNL     1       0.638   9.443  19.631  0.00  0.00    +0.000 C 
ATOM     23  O   UNL     1       1.086   9.106  20.718  0.00  0.00    +0.000 OA
ATOM     24  H   UNL     1       0.531   9.464  17.622  0.00  0.00    +0.000 HD
BRANCH  22  25
ATOM     25  O   UNL     1      -0.544  10.106  19.500  0.00  0.00    +0.000 OA
BRANCH  25  26
ATOM     26  C   UNL     1      -0.963  10.204  18.132  0.00  0.00    +0.000 C 
BRANCH  26  27
ATOM     27  C   UNL     1      -2.131  11.161  17.895  0.00  0.00    +0.000 C 
BRANCH  27  28
ATOM     28  C   UNL     1      -3.239  10.492  17.049  0.00  0.00    +0.000 C 
ATOM     29  C   UNL     1      -4.430  11.424  16.799  0.00  0.00    +0.000 C 
ATOM     30  C   UNL     1      -2.695   9.997  15.709  0.00  0.00    +0.000 C 
ENDBRANCH  27  28
ENDBRANCH  26  27
ENDBRANCH  25  26
ENDBRANCH  22  25
ENDBRANCH  11  21
TORSDOF 6
ENDMDL
MODEL 2
REMARK VINA RESULT:      -7.3      0.440      1.132
REMARK  Name = 
REMARK  10 active torsions:
REMARK  status: ('A' for Active; 'I' for Inactive)
REMARK    1  A    between atoms: C_1  and  C_2
REMARK    2  A    between atoms: C_7  and  C_8
REMARK    3  A    between atoms: C_7  and  C_9
REMARK    4  A    between atoms: C_17  and  N_18
REMARK    5  A    between atoms: C_19  and  O_21
REMARK    6  A    between atoms: O_21  and  C_22
REMARK    7  A    between atoms: C_22  and  C_23
REMARK    8  A    between atoms: C_23  and  C_24
REMARK    9  A    between atoms: C_24  and  C_25
REMARK   10  A    between atoms: C_24  and  C_26
REMARK                            x       y       z     vdW  Elec       q    Type
REMARK                         _______ _______ _______ _____ _____    ______ ____
ROOT
ATOM      1  C   UNL     1       7.170   4.191  16.116  0.00  0.00    +0.000 C 
ATOM      2  C   UNL     1       6.242   5.373  16.334  0.00  0.00    +0.000 C 
ATOM      3  O   UNL     1       6.654   6.481  15.990  0.00  0.00    +0.000 OA
ATOM      4  N   UNL     1       4.981   5.094  16.894  0.00  0.00    +0.000 N 
ATOM      5  C   UNL     1       4.629   3.721  17.280  0.00  0.00    +0.000 C 
ATOM      6  C   UNL     1       3.174   3.394  17.041  0.00  0.00    +0.000 C 
ATOM      7  C   UNL     1       2.237   4.325  17.825  0.00  0.00    +0.000 C 
ATOM      8  C   UNL     1       0.864   4.226  17.089  0.00  0.00    +0.000 C 
ATOM      9  C   UNL     1       2.736   5.774  17.724  0.00  0.00    +0.000 A 
ATOM     10  C   UNL     1       1.844   6.782  18.170  0.00  0.00    +0.000 A 
ATOM     11  C   UNL     1       2.139   8.132  18.100  0.00  0.00    +0.000 A 
ATOM     12  C   UNL     1       3.396   8.488  17.622  0.00  0.00    +0.000 A 
ATOM     13  C   UNL     1       4.320   7.499  17.216  0.00  0.00    +0.000 A 
ATOM     14  C   UNL     1       4.023   6.124  17.259  0.00  0.00    +0.000 A 
ENDROOT
BRANCH   7  15
ATOM     15  C   UNL     1       2.154   3.864  19.303  0.00  0.00    +0.000 A 
ATOM     16  C   UNL     1       2.742   4.625  20.336  0.00  0.00    +0.000 A 
ATOM     17  C   UNL     1       2.697   4.212  21.670  0.00  0.00    +0.000 A 
ATOM     18  C   UNL     1       2.059   3.023  22.006  0.00  0.00    +0.000 A 
ATOM     19  C   UNL     1       1.460   2.260  21.010  0.00  0.00    +0.000 A 
ATOM     20  C   UNL     1       1.509   2.673  19.675  0.00  0.00    +0.000 A 
ENDBRANCH   7  15
BRANCH  11  21
ATOM     21  N   UNL     1       1.215   9.136  18.451  0.00  0.00    +0.000 N 
ATOM     22  C   UNL     1       0.711   9.371  19.710  0.00  0.00    +0.000 C 
ATOM     23  O   UNL     1       1.084   8.900  20.776  0.00  0.00    +0.000 OA
ATOM     24  H   UNL     1       0.697   9.590  17.710  0.00  0.00    +0.000 HD
BRANCH  22  25
ATOM     25  O   UNL     1      -0.413  10.131  19.599  0.00  0.00    +0.000 OA
BRANCH  25  26
ATOM     26  C   UNL     1      -0.564  10.689  18.286  0.00  0.00    +0.000 C 
BRANCH  26  27
ATOM     27  C   UNL     1      -1.606   9.987  17.417  0.00  0.00    +0.000 C 
BRANCH  27  28
ATOM     28  C   UNL     1      -2.708  10.972  16.960  0.00  0.00    +0.000 C 
ATOM     29  C   UNL     1      -2.986  10.885  15.455  0.00  0.00    +0.000 C 
ATOM     30  C   UNL     1      -4.011  10.747  17.728  0.00  0.00    +0.000 C 
ENDBRANCH  27  28
ENDBRANCH  26  27
ENDBRANCH  25  26
ENDBRANCH  22  25
ENDBRANCH  11  21
TORSDOF 6
ENDMDL
MODEL 3
REMARK VINA RESULT:      -7.2      1.640      2.163
REMARK  Name = 
REMARK  10 active torsions:
REMARK  status: ('A' for Active; 'I' for Inactive)
REMARK    1  A    between atoms: C_1  and  C_2
REMARK    2  A    between atoms: C_7  and  C_8
REMARK    3  A    between atoms: C_7  and  C_9
REMARK    4  A    between atoms: C_17  and  N_18
REMARK    5  A    between atoms: C_19  and  O_21
REMARK    6  A    between atoms: O_21  and  C_22
REMARK    7  A    between atoms: C_22  and  C_23
REMARK    8  A    between atoms: C_23  and  C_24
REMARK    9  A    between atoms: C_24  and  C_25
REMARK   10  A    between atoms: C_24  and  C_26
REMARK                            x       y       z     vdW  Elec       q    Type
REMARK                         _______ _______ _______ _____ _____    ______ ____
ROOT
ATOM      1  C   UNL     1       6.991   4.117  15.663  0.00  0.00    +0.000 C 
ATOM      2  C   UNL     1       6.119   5.283  16.097  0.00  0.00    +0.000 C 
ATOM      3  O   UNL     1       6.526   6.415  15.835  0.00  0.00    +0.000 OA
ATOM      4  N   UNL     1       4.910   4.965  16.744  0.00  0.00    +0.000 N 
ATOM      5  C   UNL     1       4.560   3.563  17.012  0.00  0.00    +0.000 C 
ATOM      6  C   UNL     1       3.081   3.288  16.882  0.00  0.00    +0.000 C 
ATOM      7  C   UNL     1       2.248   4.143  17.850  0.00  0.00    +0.000 C 
ATOM      8  C   UNL     1       0.808   4.146  17.245  0.00  0.00    +0.000 C 
ATOM      9  C   UNL     1       2.773   5.585  17.856  0.00  0.00    +0.000 A 
ATOM     10  C   UNL     1       1.955   6.553  18.493  0.00  0.00    +0.000 A 
ATOM     11  C   UNL     1       2.278   7.898  18.540  0.00  0.00    +0.000 A 
ATOM     12  C   UNL     1       3.493   8.283  17.983  0.00  0.00    +0.000 A 
ATOM     13  C   UNL     1       4.347   7.330  17.385  0.00  0.00    +0.000 A 
ATOM     14  C   UNL     1       4.019   5.964  17.308  0.00  0.00    +0.000 A 
ENDROOT
BRANCH   7  15
ATOM     15  C   UNL     1       2.293   3.524  19.271  0.00  0.00    +0.000 A 
ATOM     16  C   UNL     1       1.129   3.436  20.063  0.00  0.00    +0.000 A 
ATOM     17  C   UNL     1       1.157   2.903  21.353  0.00  0.00    +0.000 A 
ATOM     18  C   UNL     1       2.355   2.441  21.887  0.00  0.00    +0.000 A 
ATOM     19  C   UNL     1       3.515   2.503  21.124  0.00  0.00    +0.000 A 
ATOM     20  C   UNL     1       3.487   3.041  19.833  0.00  0.00    +0.000 A 
ENDBRANCH   7  15
BRANCH  11  21
ATOM     21  N   UNL     1       1.419   8.872  19.086  0.00  0.00    +0.000 N 
ATOM     22  C   UNL     1       1.012   8.952  20.398  0.00  0.00    +0.000 C 
ATOM     23  O   UNL     1       1.440   8.335  21.364  0.00  0.00    +0.000 OA
ATOM     24  H   UNL     1       0.868   9.434  18.450  0.00  0.00    +0.000 HD
BRANCH  22  25
ATOM     25  O   UNL     1      -0.088   9.751  20.470  0.00  0.00    +0.000 OA
BRANCH  25  26
ATOM     26  C   UNL     1      -0.291  10.505  19.266  0.00  0.00    +0.000 C 
BRANCH  26  27
ATOM     27  C   UNL     1      -0.623  11.980  19.492  0.00  0.00    +0.000 C 
BRANCH  27  28
ATOM     28  C   UNL     1       0.651  12.855  19.426  0.00  0.00    +0.000 C 
ATOM     29  C   UNL     1       1.310  13.038  20.798  0.00  0.00    +0.000 C 
ATOM     30  C   UNL     1       1.674  12.279  18.447  0.00  0.00    +0.000 C 
ENDBRANCH  27  28
ENDBRANCH  26  27
ENDBRANCH  25  26
ENDBRANCH  22  25
ENDBRANCH  11  21
TORSDOF 6
ENDMDL
MODEL 4
REMARK VINA RESULT:      -7.2      1.678      2.771
REMARK  Name = 
REMARK  10 active torsions:
REMARK  status: ('A' for Active; 'I' for Inactive)
REMARK    1  A    between atoms: C_1  and  C_2
REMARK    2  A    between atoms: C_7  and  C_8
REMARK    3  A    between atoms: C_7  and  C_9
REMARK    4  A    between atoms: C_17  and  N_18
REMARK    5  A    between atoms: C_19  and  O_21
REMARK    6  A    between atoms: O_21  and  C_22
REMARK    7  A    between atoms: C_22  and  C_23
REMARK    8  A    between atoms: C_23  and  C_24
REMARK    9  A    between atoms: C_24  and  C_25
REMARK   10  A    between atoms: C_24  and  C_26
REMARK                            x       y       z     vdW  Elec       q    Type
REMARK                         _______ _______ _______ _____ _____    ______ ____
ROOT
ATOM      1  C   UNL     1       7.834   4.555  17.362  0.00  0.00    +0.000 C 
ATOM      2  C   UNL     1       6.771   5.637  17.259  0.00  0.00    +0.000 C 
ATOM      3  O   UNL     1       7.146   6.761  16.928  0.00  0.00    +0.000 OA
ATOM      4  N   UNL     1       5.445   5.251  17.534  0.00  0.00    +0.000 N 
ATOM      5  C   UNL     1       5.145   3.872  17.943  0.00  0.00    +0.000 C 
ATOM      6  C   UNL     1       3.827   3.370  17.402  0.00  0.00    +0.000 C 
ATOM      7  C   UNL     1       2.645   4.235  17.868  0.00  0.00    +0.000 C 
ATOM      8  C   UNL     1       1.503   3.937  16.845  0.00  0.00    +0.000 C 
ATOM      9  C   UNL     1       3.014   5.722  17.762  0.00  0.00    +0.000 A 
ATOM     10  C   UNL     1       1.948   6.647  17.904  0.00  0.00    +0.000 A 
ATOM     11  C   UNL     1       2.121   8.016  17.790  0.00  0.00    +0.000 A 
ATOM     12  C   UNL     1       3.417   8.482  17.588  0.00  0.00    +0.000 A 
ATOM     13  C   UNL     1       4.500   7.581  17.491  0.00  0.00    +0.000 A 
ATOM     14  C   UNL     1       4.335   6.187  17.580  0.00  0.00    +0.000 A 
ENDROOT
BRANCH   7  15
ATOM     15  C   UNL     1       2.256   3.855  19.320  0.00  0.00    +0.000 A 
ATOM     16  C   UNL     1       2.789   4.558  20.422  0.00  0.00    +0.000 A 
ATOM     17  C   UNL     1       2.467   4.214  21.737  0.00  0.00    +0.000 A 
ATOM     18  C   UNL     1       1.600   3.155  21.985  0.00  0.00    +0.000 A 
ATOM     19  C   UNL     1       1.051   2.455  20.918  0.00  0.00    +0.000 A 
ATOM     20  C   UNL     1       1.376   2.797  19.601  0.00  0.00    +0.000 A 
ENDBRANCH   7  15
BRANCH  11  21
ATOM     21  N   UNL     1       1.049   8.928  17.833  0.00  0.00    +0.000 N 
ATOM     22  C   UNL     1       1.136  10.272  18.119  0.00  0.00    +0.000 C 
ATOM     23  O   UNL     1       2.141  10.964  18.208  0.00  0.00    +0.000 OA
ATOM     24  H   UNL     1       0.108   8.559  17.881  0.00  0.00    +0.000 HD
BRANCH  22  25
ATOM     25  O   UNL     1      -0.101  10.733  18.449  0.00  0.00    +0.000 OA
BRANCH  25  26
ATOM     26  C   UNL     1      -0.687   9.992  19.530  0.00  0.00    +0.000 C 
BRANCH  26  27
ATOM     27  C   UNL     1      -0.104  10.314  20.905  0.00  0.00    +0.000 C 
BRANCH  27  28
ATOM     28  C   UNL     1      -0.024   9.046  21.788  0.00  0.00    +0.000 C 
ATOM     29  C   UNL     1       1.152   8.139  21.408  0.00  0.00    +0.000 C 
ATOM     30  C   UNL     1       0.073   9.404  23.271  0.00  0.00    +0.000 C 
ENDBRANCH  27  28
ENDBRANCH  26  27
ENDBRANCH  25  26
ENDBRANCH  22  25
ENDBRANCH  11  21
TORSDOF 6
ENDMDL
MODEL 5
REMARK VINA RESULT:      -7.1      1.663      2.068
REMARK  Name = 
REMARK  10 active torsions:
REMARK  status: ('A' for Active; 'I' for Inactive)
REMARK    1  A    between atoms: C_1  and  C_2
REMARK    2  A    between atoms: C_7  and  C_8
REMARK    3  A    between atoms: C_7  and  C_9
REMARK    4  A    between atoms: C_17  and  N_18
REMARK    5  A    between atoms: C_19  and  O_21
REMARK    6  A    between atoms: O_21  and  C_22
REMARK    7  A    between atoms: C_22  and  C_23
REMARK    8  A    between atoms: C_23  and  C_24
REMARK    9  A    between atoms: C_24  and  C_25
REMARK   10  A    between atoms: C_24  and  C_26
REMARK                            x       y       z     vdW  Elec       q    Type
REMARK                         _______ _______ _______ _____ _____    ______ ____
ROOT
ATOM      1  C   UNL     1       7.099   4.313  15.838  0.00  0.00    +0.000 C 
ATOM      2  C   UNL     1       6.169   5.449  16.230  0.00  0.00    +0.000 C 
ATOM      3  O   UNL     1       6.542   6.593  15.971  0.00  0.00    +0.000 OA
ATOM      4  N   UNL     1       4.951   5.090  16.838  0.00  0.00    +0.000 N 
ATOM      5  C   UNL     1       4.646   3.678  17.108  0.00  0.00    +0.000 C 
ATOM      6  C   UNL     1       3.183   3.346  16.929  0.00  0.00    +0.000 C 
ATOM      7  C   UNL     1       2.285   4.176  17.859  0.00  0.00    +0.000 C 
ATOM      8  C   UNL     1       0.868   4.119  17.204  0.00  0.00    +0.000 C 
ATOM      9  C   UNL     1       2.755   5.638  17.869  0.00  0.00    +0.000 A 
ATOM     10  C   UNL     1       1.878   6.578  18.468  0.00  0.00    +0.000 A 
ATOM     11  C   UNL     1       2.148   7.935  18.513  0.00  0.00    +0.000 A 
ATOM     12  C   UNL     1       3.366   8.362  17.994  0.00  0.00    +0.000 A 
ATOM     13  C   UNL     1       4.276   7.438  17.435  0.00  0.00    +0.000 A 
ATOM     14  C   UNL     1       4.004   6.059  17.361  0.00  0.00    +0.000 A 
ENDROOT
BRANCH   7  15
ATOM     15  C   UNL     1       2.304   3.571  19.287  0.00  0.00    +0.000 A 
ATOM     16  C   UNL     1       3.499   3.075  19.850  0.00  0.00    +0.000 A 
ATOM     17  C   UNL     1       3.530   2.506  21.125  0.00  0.00    +0.000 A 
ATOM     18  C   UNL     1       2.361   2.419  21.873  0.00  0.00    +0.000 A 
ATOM     19  C   UNL     1       1.172   2.911  21.348  0.00  0.00    +0.000 A 
ATOM     20  C   UNL     1       1.142   3.478  20.070  0.00  0.00    +0.000 A 
ENDBRANCH   7  15
BRANCH  11  21
ATOM     21  N   UNL     1       1.234   8.880  19.019  0.00  0.00    +0.000 N 
ATOM     22  C   UNL     1       0.925   9.083  20.345  0.00  0.00    +0.000 C 
ATOM     23  O   UNL     1       1.493   8.635  21.331  0.00  0.00    +0.000 OA
ATOM     24  H   UNL     1       0.577   9.302  18.375  0.00  0.00    +0.000 HD
BRANCH  22  25
ATOM     25  O   UNL     1      -0.246   9.772  20.424  0.00  0.00    +0.000 OA
BRANCH  25  26
ATOM     26  C   UNL     1      -0.037  11.190  20.504  0.00  0.00    +0.000 C 
BRANCH  26  27
ATOM     27  C   UNL     1      -0.706  11.991  19.388  0.00  0.00    +0.000 C 
BRANCH  27  28
ATOM     28  C   UNL     1       0.327  12.854  18.624  0.00  0.00    +0.000 C 
ATOM     29  C   UNL     1       0.038  14.355  18.741  0.00  0.00    +0.000 C 
ATOM     30  C   UNL     1       1.751  12.574  19.104  0.00  0.00    +0.000 C 
ENDBRANCH  27  28
ENDBRANCH  26  27
ENDBRANCH  25  26
ENDBRANCH  22  25
ENDBRANCH  11  21
TORSDOF 6
ENDMDL
MODEL 6
REMARK VINA RESULT:      -7.1      1.960      2.397
REMARK  Name = 
REMARK  10 active torsions:
REMARK  status: ('A' for Active; 'I' for Inactive)
REMARK    1  A    between atoms: C_1  and  C_2
REMARK    2  A    between atoms: C_7  and  C_8
REMARK    3  A    between atoms: C_7  and  C_9
REMARK    4  A    between atoms: C_17  and  N_18
REMARK    5  A    between atoms: C_19  and  O_21
REMARK    6  A    between atoms: O_21  and  C_22
REMARK    7  A    between atoms: C_22  and  C_23
REMARK    8  A    between atoms: C_23  and  C_24
REMARK    9  A    between atoms: C_24  and  C_25
REMARK   10  A    between atoms: C_24  and  C_26
REMARK                            x       y       z     vdW  Elec       q    Type
REMARK                         _______ _______ _______ _____ _____    ______ ____
ROOT
ATOM      1  C   UNL     1       7.080   4.194  15.792  0.00  0.00    +0.000 C 
ATOM      2  C   UNL     1       6.174   5.345  16.194  0.00  0.00    +0.000 C 
ATOM      3  O   UNL     1       6.563   6.483  15.932  0.00  0.00    +0.000 OA
ATOM      4  N   UNL     1       4.956   5.006  16.814  0.00  0.00    +0.000 N 
ATOM      5  C   UNL     1       4.629   3.599  17.085  0.00  0.00    +0.000 C 
ATOM      6  C   UNL     1       3.160   3.292  16.921  0.00  0.00    +0.000 C 
ATOM      7  C   UNL     1       2.285   4.136  17.861  0.00  0.00    +0.000 C 
ATOM      8  C   UNL     1       0.861   4.104  17.220  0.00  0.00    +0.000 C 
ATOM      9  C   UNL     1       2.780   5.590  17.868  0.00  0.00    +0.000 A 
ATOM     10  C   UNL     1       1.925   6.544  18.476  0.00  0.00    +0.000 A 
ATOM     11  C   UNL     1       2.218   7.896  18.520  0.00  0.00    +0.000 A 
ATOM     12  C   UNL     1       3.439   8.303  17.989  0.00  0.00    +0.000 A 
ATOM     13  C   UNL     1       4.327   7.364  17.420  0.00  0.00    +0.000 A 
ATOM     14  C   UNL     1       4.030   5.990  17.348  0.00  0.00    +0.000 A 
ENDROOT
BRANCH   7  15
ATOM     15  C   UNL     1       2.308   3.530  19.288  0.00  0.00    +0.000 A 
ATOM     16  C   UNL     1       1.130   3.439  20.058  0.00  0.00    +0.000 A 
ATOM     17  C   UNL     1       1.137   2.918  21.353  0.00  0.00    +0.000 A 
ATOM     18  C   UNL     1       2.328   2.470  21.914  0.00  0.00    +0.000 A 
ATOM     19  C   UNL     1       3.502   2.535  21.173  0.00  0.00    +0.000 A 
ATOM     20  C   UNL     1       3.495   3.061  19.877  0.00  0.00    +0.000 A 
ENDBRANCH   7  15
BRANCH  11  21
ATOM     21  N   UNL     1       1.325   8.856  19.036  0.00  0.00    +0.000 N 
ATOM     22  C   UNL     1       1.008   9.040  20.362  0.00  0.00    +0.000 C 
ATOM     23  O   UNL     1       1.552   8.556  21.345  0.00  0.00    +0.000 OA
ATOM     24  H   UNL     1       0.688   9.309  18.394  0.00  0.00    +0.000 HD
BRANCH  22  25
ATOM     25  O   UNL     1      -0.144   9.760  20.443  0.00  0.00    +0.000 OA
BRANCH  25  26
ATOM     26  C   UNL     1      -0.501  10.063  21.800  0.00  0.00    +0.000 C 
BRANCH  26  27
ATOM     27  C   UNL     1      -0.463  11.551  22.146  0.00  0.00    +0.000 C 
BRANCH  27  28
ATOM     28  C   UNL     1      -1.888  12.150  22.194  0.00  0.00    +0.000 C 
ATOM     29  C   UNL     1      -2.017  13.275  23.228  0.00  0.00    +0.000 C 
ATOM     30  C   UNL     1      -2.321  12.672  20.824  0.00  0.00    +0.000 C 
ENDBRANCH  27  28
ENDBRANCH  26  27
ENDBRANCH  25  26
ENDBRANCH  22  25
ENDBRANCH  11  21
TORSDOF 6
ENDMDL
MODEL 7
REMARK VINA RESULT:      -7.1      3.559      9.281
REMARK  Name = 
REMARK  10 active torsions:
REMARK  status: ('A' for Active; 'I' for Inactive)
REMARK    1  A    between atoms: C_1  and  C_2
REMARK    2  A    between atoms: C_7  and  C_8
REMARK    3  A    between atoms: C_7  and  C_9
REMARK    4  A    between atoms: C_17  and  N_18
REMARK    5  A    between atoms: C_19  and  O_21
REMARK    6  A    between atoms: O_21  and  C_22
REMARK    7  A    between atoms: C_22  and  C_23
REMARK    8  A    between atoms: C_23  and  C_24
REMARK    9  A    between atoms: C_24  and  C_25
REMARK   10  A    between atoms: C_24  and  C_26
REMARK                            x       y       z     vdW  Elec       q    Type
REMARK                         _______ _______ _______ _____ _____    ______ ____
ROOT
ATOM      1  C   UNL     1      -3.516  13.783  23.096  0.00  0.00    +0.000 C 
ATOM      2  C   UNL     1      -2.765  12.465  23.012  0.00  0.00    +0.000 C 
ATOM      3  O   UNL     1      -3.022  11.618  23.868  0.00  0.00    +0.000 OA
ATOM      4  N   UNL     1      -1.854  12.321  21.948  0.00  0.00    +0.000 N 
ATOM      5  C   UNL     1      -1.630  13.429  21.009  0.00  0.00    +0.000 C 
ATOM      6  C   UNL     1      -1.391  12.963  19.593  0.00  0.00    +0.000 C 
ATOM      7  C   UNL     1      -0.166  12.042  19.487  0.00  0.00    +0.000 C 
ATOM      8  C   UNL     1      -0.368  11.256  18.153  0.00  0.00    +0.000 C 
ATOM      9  C   UNL     1      -0.168  11.035  20.647  0.00  0.00    +0.000 A 
ATOM     10  C   UNL     1       0.745   9.956  20.547  0.00  0.00    +0.000 A 
ATOM     11  C   UNL     1       0.827   8.949  21.494  0.00  0.00    +0.000 A 
ATOM     12  C   UNL     1       0.006   9.057  22.613  0.00  0.00    +0.000 A 
ATOM     13  C   UNL     1      -0.878  10.149  22.757  0.00  0.00    +0.000 A 
ATOM     14  C   UNL     1      -0.988  11.165  21.790  0.00  0.00    +0.000 A 
ENDROOT
BRANCH   7  15
ATOM     15  C   UNL     1       1.132  12.891  19.485  0.00  0.00    +0.000 A 
ATOM     16  C   UNL     1       1.745  13.279  18.275  0.00  0.00    +0.000 A 
ATOM     17  C   UNL     1       2.926  14.023  18.255  0.00  0.00    +0.000 A 
ATOM     18  C   UNL     1       3.528  14.401  19.451  0.00  0.00    +0.000 A 
ATOM     19  C   UNL     1       2.939  14.044  20.658  0.00  0.00    +0.000 A 
ATOM     20  C   UNL     1       1.757  13.295  20.677  0.00  0.00    +0.000 A 
ENDBRANCH   7  15
BRANCH  11  21
ATOM     21  N   UNL     1       1.664   7.826  21.347  0.00  0.00    +0.000 N 
ATOM     22  C   UNL     1       2.098   7.287  20.157  0.00  0.00    +0.000 C 
ATOM     23  O   UNL     1       2.005   7.760  19.033  0.00  0.00    +0.000 OA
ATOM     24  H   UNL     1       1.792   7.217  22.144  0.00  0.00    +0.000 HD
BRANCH  22  25
ATOM     25  O   UNL     1       2.544   6.021  20.384  0.00  0.00    +0.000 OA
BRANCH  25  26
ATOM     26  C   UNL     1       1.474   5.067  20.424  0.00  0.00    +0.000 C 
BRANCH  26  27
ATOM     27  C   UNL     1       1.797   3.787  21.195  0.00  0.00    +0.000 C 
BRANCH  27  28
ATOM     28  C   UNL     1       1.913   2.575  20.242  0.00  0.00    +0.000 C 
ATOM     29  C   UNL     1       0.883   2.620  19.107  0.00  0.00    +0.000 C 
ATOM     30  C   UNL     1       3.316   2.464  19.646  0.00  0.00    +0.000 C 
ENDBRANCH  27  28
ENDBRANCH  26  27
ENDBRANCH  25  26
ENDBRANCH  22  25
ENDBRANCH  11  21
TORSDOF 6
ENDMDL
MODEL 8
REMARK VINA RESULT:      -7.1      1.826      2.289
REMARK  Name = 
REMARK  10 active torsions:
REMARK  status: ('A' for Active; 'I' for Inactive)
REMARK    1  A    between atoms: C_1  and  C_2
REMARK    2  A    between atoms: C_7  and  C_8
REMARK    3  A    between atoms: C_7  and  C_9
REMARK    4  A    between atoms: C_17  and  N_18
REMARK    5  A    between atoms: C_19  and  O_21
REMARK    6  A    between atoms: O_21  and  C_22
REMARK    7  A    between atoms: C_22  and  C_23
REMARK    8  A    between atoms: C_23  and  C_24
REMARK    9  A    between atoms: C_24  and  C_25
REMARK   10  A    between atoms: C_24  and  C_26
REMARK                            x       y       z     vdW  Elec       q    Type
REMARK                         _______ _______ _______ _____ _____    ______ ____
ROOT
ATOM      1  C   UNL     1       7.112   4.063  15.787  0.00  0.00    +0.000 C 
ATOM      2  C   UNL     1       6.227   5.243  16.150  0.00  0.00    +0.000 C 
ATOM      3  O   UNL     1       6.645   6.365  15.864  0.00  0.00    +0.000 OA
ATOM      4  N   UNL     1       4.995   4.947  16.764  0.00  0.00    +0.000 N 
ATOM      5  C   UNL     1       4.634   3.555  17.068  0.00  0.00    +0.000 C 
ATOM      6  C   UNL     1       3.160   3.277  16.895  0.00  0.00    +0.000 C 
ATOM      7  C   UNL     1       2.295   4.164  17.803  0.00  0.00    +0.000 C 
ATOM      8  C   UNL     1       0.877   4.147  17.147  0.00  0.00    +0.000 C 
ATOM      9  C   UNL     1       2.821   5.606  17.779  0.00  0.00    +0.000 A 
ATOM     10  C   UNL     1       1.982   6.594  18.353  0.00  0.00    +0.000 A 
ATOM     11  C   UNL     1       2.305   7.940  18.366  0.00  0.00    +0.000 A 
ATOM     12  C   UNL     1       3.540   8.306  17.839  0.00  0.00    +0.000 A 
ATOM     13  C   UNL     1       4.413   7.333  17.304  0.00  0.00    +0.000 A 
ATOM     14  C   UNL     1       4.086   5.965  17.263  0.00  0.00    +0.000 A 
ENDROOT
BRANCH   7  15
ATOM     15  C   UNL     1       2.289   3.593  19.245  0.00  0.00    +0.000 A 
ATOM     16  C   UNL     1       3.486   3.182  19.868  0.00  0.00    +0.000 A 
ATOM     17  C   UNL     1       3.496   2.644  21.157  0.00  0.00    +0.000 A 
ATOM     18  C   UNL     1       2.304   2.504  21.859  0.00  0.00    +0.000 A 
ATOM     19  C   UNL     1       1.111   2.913  21.274  0.00  0.00    +0.000 A 
ATOM     20  C   UNL     1       1.102   3.448  19.981  0.00  0.00    +0.000 A 
ENDBRANCH   7  15
BRANCH  11  21
ATOM     21  N   UNL     1       1.428   8.932  18.848  0.00  0.00    +0.000 N 
ATOM     22  C   UNL     1       1.035   9.104  20.155  0.00  0.00    +0.000 C 
ATOM     23  O   UNL     1       1.490   8.572  21.159  0.00  0.00    +0.000 OA
ATOM     24  H   UNL     1       0.856   9.430  18.178  0.00  0.00    +0.000 HD
BRANCH  22  25
ATOM     25  O   UNL     1      -0.083   9.879  20.181  0.00  0.00    +0.000 OA
BRANCH  25  26
ATOM     26  C   UNL     1       0.209  11.262  19.938  0.00  0.00    +0.000 C 
BRANCH  26  27
ATOM     27  C   UNL     1      -0.036  12.180  21.135  0.00  0.00    +0.000 C 
BRANCH  27  28
ATOM     28  C   UNL     1      -1.450  11.963  21.725  0.00  0.00    +0.000 C 
ATOM     29  C   UNL     1      -1.592  12.541  23.137  0.00  0.00    +0.000 C 
ATOM     30  C   UNL     1      -2.529  12.562  20.823  0.00  0.00    +0.000 C 
ENDBRANCH  27  28
ENDBRANCH  26  27
ENDBRANCH  25  26
ENDBRANCH  22  25
ENDBRANCH  11  21
TORSDOF 6
ENDMDL
MODEL 9
REMARK VINA RESULT:      -6.9      2.865      8.695
REMARK  Name = 
REMARK  10 active torsions:
REMARK  status: ('A' for Active; 'I' for Inactive)
REMARK    1  A    between atoms: C_1  and  C_2
REMARK    2  A    between atoms: C_7  and  C_8
REMARK    3  A    between atoms: C_7  and  C_9
REMARK    4  A    between atoms: C_17  and  N_18
REMARK    5  A    between atoms: C_19  and  O_21
REMARK    6  A    between atoms: O_21  and  C_22
REMARK    7  A    between atoms: C_22  and  C_23
REMARK    8  A    between atoms: C_23  and  C_24
REMARK    9  A    between atoms: C_24  and  C_25
REMARK   10  A    between atoms: C_24  and  C_26
REMARK                            x       y       z     vdW  Elec       q    Type
REMARK                         _______ _______ _______ _____ _____    ______ ____
ROOT
ATOM      1  C   UNL     1       1.533  16.190  18.751  0.00  0.00    +0.000 C 
ATOM      2  C   UNL     1       1.985  14.750  18.579  0.00  0.00    +0.000 C 
ATOM      3  O   UNL     1       3.166  14.565  18.284  0.00  0.00    +0.000 OA
ATOM      4  N   UNL     1       1.016  13.752  18.791  0.00  0.00    +0.000 N 
ATOM      5  C   UNL     1      -0.369  14.121  19.117  0.00  0.00    +0.000 C 
ATOM      6  C   UNL     1      -1.021  13.165  20.088  0.00  0.00    +0.000 C 
ATOM      7  C   UNL     1      -1.065  11.729  19.544  0.00  0.00    +0.000 C 
ATOM      8  C   UNL     1      -1.250  10.827  20.805  0.00  0.00    +0.000 C 
ATOM      9  C   UNL     1       0.280  11.377  18.892  0.00  0.00    +0.000 A 
ATOM     10  C   UNL     1       0.491  10.011  18.577  0.00  0.00    +0.000 A 
ATOM     11  C   UNL     1       1.669   9.539  18.026  0.00  0.00    +0.000 A 
ATOM     12  C   UNL     1       2.653  10.475  17.721  0.00  0.00    +0.000 A 
ATOM     13  C   UNL     1       2.446  11.848  17.982  0.00  0.00    +0.000 A 
ATOM     14  C   UNL     1       1.263  12.338  18.565  0.00  0.00    +0.000 A 
ENDROOT
BRANCH   7  15
ATOM     15  C   UNL     1      -2.232  11.585  18.534  0.00  0.00    +0.000 A 
ATOM     16  C   UNL     1      -3.566  11.827  18.926  0.00  0.00    +0.000 A 
ATOM     17  C   UNL     1      -4.631  11.679  18.035  0.00  0.00    +0.000 A 
ATOM     18  C   UNL     1      -4.389  11.284  16.724  0.00  0.00    +0.000 A 
ATOM     19  C   UNL     1      -3.084  11.052  16.307  0.00  0.00    +0.000 A 
ATOM     20  C   UNL     1      -2.018  11.197  17.201  0.00  0.00    +0.000 A 
ENDBRANCH   7  15
BRANCH  11  21
ATOM     21  N   UNL     1       1.916   8.169  17.804  0.00  0.00    +0.000 N 
ATOM     22  C   UNL     1       2.321   7.254  18.749  0.00  0.00    +0.000 C 
ATOM     23  O   UNL     1       2.368   7.390  19.964  0.00  0.00    +0.000 OA
ATOM     24  H   UNL     1       2.028   7.852  16.850  0.00  0.00    +0.000 HD
BRANCH  22  25
ATOM     25  O   UNL     1       2.825   6.161  18.114  0.00  0.00    +0.000 OA
BRANCH  25  26
ATOM     26  C   UNL     1       4.201   5.926  18.447  0.00  0.00    +0.000 C 
BRANCH  26  27
ATOM     27  C   UNL     1       5.201   6.520  17.455  0.00  0.00    +0.000 C 
BRANCH  27  28
ATOM     28  C   UNL     1       6.657   6.223  17.885  0.00  0.00    +0.000 C 
ATOM     29  C   UNL     1       7.211   4.948  17.240  0.00  0.00    +0.000 C 
ATOM     30  C   UNL     1       7.583   7.395  17.563  0.00  0.00    +0.000 C 
ENDBRANCH  27  28
ENDBRANCH  26  27
ENDBRANCH  25  26
ENDBRANCH  22  25
ENDBRANCH  11  21
TORSDOF 6
ENDMDL
