MODEL 1
REMARK VINA RESULT:      -7.2      0.000      0.000
REMARK  Name = 
REMARK  2 active torsions:
REMARK  status: ('A' for Active; 'I' for Inactive)
REMARK    1  A    between atoms: C_1  and  C_2
REMARK    2  A    between atoms: C_5  and  C_6
REMARK                            x       y       z     vdW  Elec       q    Type
REMARK                         _______ _______ _______ _____ _____    ______ ____
ROOT
ATOM      1  C   UNL     1       1.572   7.803  20.180  0.00  0.00    +0.000 A 
ATOM      2  N   UNL     1       2.220   8.090  19.101  0.00  0.00    +0.000 NA
ATOM      3  C   UNL     1       2.967   7.077  18.510  0.00  0.00    +0.000 A 
ATOM      4  C   UNL     1       3.730   7.382  17.380  0.00  0.00    +0.000 A 
ATOM      5  C   UNL     1       4.524   6.407  16.776  0.00  0.00    +0.000 A 
ATOM      6  C   UNL     1       4.541   5.117  17.296  0.00  0.00    +0.000 A 
ATOM      7 CL   UNL     1       5.528   3.915  16.561  0.00  0.00    +0.000 Cl
ATOM      8  C   UNL     1       3.778   4.794  18.417  0.00  0.00    +0.000 A 
ATOM      9  C   UNL     1       2.997   5.784  19.031  0.00  0.00    +0.000 A 
ATOM     10  C   UNL     1       2.201   5.550  20.246  0.00  0.00    +0.000 A 
ATOM     11  S   UNL     1       2.040   4.119  21.093  0.00  0.00    +0.000 S 
ATOM     12  O   UNL     1       1.523   6.591  20.778  0.00  0.00    +0.000 OA
ENDROOT
BRANCH   1  17
ATOM     13  C   UNL     1      -1.451  11.825  23.064  0.00  0.00    +0.000 C 
ATOM     14  C   UNL     1      -0.687  10.773  22.314  0.00  0.00    +0.000 A 
ATOM     15  C   UNL     1      -0.583  10.814  20.919  0.00  0.00    +0.000 A 
ATOM     16  C   UNL     1       0.144   9.837  20.236  0.00  0.00    +0.000 A 
ATOM     17  C   UNL     1       0.776   8.801  20.937  0.00  0.00    +0.000 A 
ATOM     18  C   UNL     1       0.665   8.756  22.333  0.00  0.00    +0.000 A 
ATOM     19  C   UNL     1      -0.061   9.737  23.015  0.00  0.00    +0.000 A 
ENDBRANCH   1  17
TORSDOF 1
ENDMDL
MODEL 2
REMARK VINA RESULT:      -7.2      2.849      7.073
REMARK  Name = 
REMARK  2 active torsions:
REMARK  status: ('A' for Active; 'I' for Inactive)
REMARK    1  A    between atoms: C_1  and  C_2
REMARK    2  A    between atoms: C_5  and  C_6
REMARK                            x       y       z     vdW  Elec       q    Type
REMARK                         _______ _______ _______ _____ _____    ______ ____
ROOT
ATOM      1  C   UNL     1       3.459   6.146  18.128  0.00  0.00    +0.000 A 
ATOM      2  N   UNL     1       3.032   7.365  18.134  0.00  0.00    +0.000 NA
ATOM      3  C   UNL     1       2.211   7.753  19.187  0.00  0.00    +0.000 A 
ATOM      4  C   UNL     1       1.681   9.047  19.178  0.00  0.00    +0.000 A 
ATOM      5  C   UNL     1       0.822   9.468  20.193  0.00  0.00    +0.000 A 
ATOM      6  C   UNL     1       0.507   8.596  21.231  0.00  0.00    +0.000 A 
ATOM      7 CL   UNL     1      -0.560   9.109  22.479  0.00  0.00    +0.000 Cl
ATOM      8  C   UNL     1       1.035   7.306  21.259  0.00  0.00    +0.000 A 
ATOM      9  C   UNL     1       1.882   6.883  20.224  0.00  0.00    +0.000 A 
ATOM     10  C   UNL     1       2.445   5.525  20.143  0.00  0.00    +0.000 A 
ATOM     11  S   UNL     1       2.230   4.272  21.227  0.00  0.00    +0.000 S 
ATOM     12  O   UNL     1       3.211   5.213  19.075  0.00  0.00    +0.000 OA
ENDROOT
BRANCH   1  17
ATOM     13  C   UNL     1       6.661   4.051  13.769  0.00  0.00    +0.000 C 
ATOM     14  C   UNL     1       5.850   4.597  14.909  0.00  0.00    +0.000 A 
ATOM     15  C   UNL     1       5.663   5.974  15.067  0.00  0.00    +0.000 A 
ATOM     16  C   UNL     1       4.894   6.466  16.123  0.00  0.00    +0.000 A 
ATOM     17  C   UNL     1       4.303   5.588  17.040  0.00  0.00    +0.000 A 
ATOM     18  C   UNL     1       4.496   4.209  16.887  0.00  0.00    +0.000 A 
ATOM     19  C   UNL     1       5.265   3.719  15.827  0.00  0.00    +0.000 A 
ENDBRANCH   1  17
TORSDOF 1
ENDMDL
MODEL 3
REMARK VINA RESULT:      -7.2      1.964      2.924
REMARK  Name = 
REMARK  2 active torsions:
REMARK  status: ('A' for Active; 'I' for Inactive)
REMARK    1  A    between atoms: C_1  and  C_2
REMARK    2  A    between atoms: C_5  and  C_6
REMARK                            x       y       z     vdW  Elec       q    Type
REMARK                         _______ _______ _______ _____ _____    ______ ____
ROOT
ATOM      1  C   UNL     1       1.598   7.358  20.393  0.00  0.00    +0.000 A 
ATOM      2  N   UNL     1       1.336   6.208  20.919  0.00  0.00    +0.000 NA
ATOM      3  C   UNL     1       1.908   5.086  20.329  0.00  0.00    +0.000 A 
ATOM      4  C   UNL     1       1.585   3.826  20.840  0.00  0.00    +0.000 A 
ATOM      5  C   UNL     1       2.105   2.670  20.257  0.00  0.00    +0.000 A 
ATOM      6  C   UNL     1       2.965   2.778  19.169  0.00  0.00    +0.000 A 
ATOM      7 CL   UNL     1       3.599   1.354  18.441  0.00  0.00    +0.000 Cl
ATOM      8  C   UNL     1       3.305   4.028  18.654  0.00  0.00    +0.000 A 
ATOM      9  C   UNL     1       2.763   5.184  19.233  0.00  0.00    +0.000 A 
ATOM     10  C   UNL     1       3.023   6.542  18.726  0.00  0.00    +0.000 A 
ATOM     11  S   UNL     1       3.994   6.974  17.437  0.00  0.00    +0.000 S 
ATOM     12  O   UNL     1       2.409   7.581  19.334  0.00  0.00    +0.000 OA
ENDROOT
BRANCH   1  17
ATOM     13  C   UNL     1      -0.808  12.238  22.400  0.00  0.00    +0.000 C 
ATOM     14  C   UNL     1      -0.166  10.981  21.889  0.00  0.00    +0.000 A 
ATOM     15  C   UNL     1       0.008   9.870  22.721  0.00  0.00    +0.000 A 
ATOM     16  C   UNL     1       0.593   8.703  22.227  0.00  0.00    +0.000 A 
ATOM     17  C   UNL     1       1.016   8.629  20.893  0.00  0.00    +0.000 A 
ATOM     18  C   UNL     1       0.848   9.744  20.061  0.00  0.00    +0.000 A 
ATOM     19  C   UNL     1       0.260  10.911  20.558  0.00  0.00    +0.000 A 
ENDBRANCH   1  17
TORSDOF 1
ENDMDL
MODEL 4
REMARK VINA RESULT:      -7.2      0.899      1.541
REMARK  Name = 
REMARK  2 active torsions:
REMARK  status: ('A' for Active; 'I' for Inactive)
REMARK    1  A    between atoms: C_1  and  C_2
REMARK    2  A    between atoms: C_5  and  C_6
REMARK                            x       y       z     vdW  Elec       q    Type
REMARK                         _______ _______ _______ _____ _____    ______ ____
ROOT
ATOM      1  C   UNL     1       2.216   7.494  19.366  0.00  0.00    +0.000 A 
ATOM      2  N   UNL     1       2.901   7.803  18.315  0.00  0.00    +0.000 NA
ATOM      3  C   UNL     1       3.619   6.787  17.694  0.00  0.00    +0.000 A 
ATOM      4  C   UNL     1       4.421   7.111  16.596  0.00  0.00    +0.000 A 
ATOM      5  C   UNL     1       5.188   6.132  15.964  0.00  0.00    +0.000 A 
ATOM      6  C   UNL     1       5.138   4.819  16.423  0.00  0.00    +0.000 A 
ATOM      7 CL   UNL     1       6.091   3.612  15.653  0.00  0.00    +0.000 Cl
ATOM      8  C   UNL     1       4.335   4.478  17.511  0.00  0.00    +0.000 A 
ATOM      9  C   UNL     1       3.582   5.472  18.153  0.00  0.00    +0.000 A 
ATOM     10  C   UNL     1       2.748   5.216  19.338  0.00  0.00    +0.000 A 
ATOM     11  S   UNL     1       2.508   3.755  20.113  0.00  0.00    +0.000 S 
ATOM     12  O   UNL     1       2.102   6.259  19.904  0.00  0.00    +0.000 OA
ENDROOT
BRANCH   1  17
ATOM     13  C   UNL     1      -0.894  11.259  22.494  0.00  0.00    +0.000 C 
ATOM     14  C   UNL     1      -0.071  10.294  21.690  0.00  0.00    +0.000 A 
ATOM     15  C   UNL     1       0.538   9.188  22.293  0.00  0.00    +0.000 A 
ATOM     16  C   UNL     1       1.288   8.292  21.530  0.00  0.00    +0.000 A 
ATOM     17  C   UNL     1       1.444   8.489  20.152  0.00  0.00    +0.000 A 
ATOM     18  C   UNL     1       0.841   9.601  19.549  0.00  0.00    +0.000 A 
ATOM     19  C   UNL     1       0.089  10.496  20.315  0.00  0.00    +0.000 A 
ENDBRANCH   1  17
TORSDOF 1
ENDMDL
MODEL 5
REMARK VINA RESULT:      -7.2      0.930      1.128
REMARK  Name = 
REMARK  2 active torsions:
REMARK  status: ('A' for Active; 'I' for Inactive)
REMARK    1  A    between atoms: C_1  and  C_2
REMARK    2  A    between atoms: C_5  and  C_6
REMARK                            x       y       z     vdW  Elec       q    Type
REMARK                         _______ _______ _______ _____ _____    ______ ____
ROOT
ATOM      1  C   UNL     1       2.233   7.426  19.364  0.00  0.00    +0.000 A 
ATOM      2  N   UNL     1       2.903   7.749  18.309  0.00  0.00    +0.000 NA
ATOM      3  C   UNL     1       3.633   6.747  17.678  0.00  0.00    +0.000 A 
ATOM      4  C   UNL     1       4.420   7.088  16.574  0.00  0.00    +0.000 A 
ATOM      5  C   UNL     1       5.198   6.123  15.933  0.00  0.00    +0.000 A 
ATOM      6  C   UNL     1       5.175   4.809  16.390  0.00  0.00    +0.000 A 
ATOM      7 CL   UNL     1       6.142   3.620  15.608  0.00  0.00    +0.000 Cl
ATOM      8  C   UNL     1       4.387   4.451  17.483  0.00  0.00    +0.000 A 
ATOM      9  C   UNL     1       3.623   5.430  18.135  0.00  0.00    +0.000 A 
ATOM     10  C   UNL     1       2.804   5.157  19.326  0.00  0.00    +0.000 A 
ATOM     11  S   UNL     1       2.596   3.690  20.100  0.00  0.00    +0.000 S 
ATOM     12  O   UNL     1       2.145   6.188  19.901  0.00  0.00    +0.000 OA
ENDROOT
BRANCH   1  17
ATOM     13  C   UNL     1      -0.717  11.375  22.420  0.00  0.00    +0.000 C 
ATOM     14  C   UNL     1       0.028  10.344  21.622  0.00  0.00    +0.000 A 
ATOM     15  C   UNL     1       0.274  10.527  20.257  0.00  0.00    +0.000 A 
ATOM     16  C   UNL     1       0.981   9.567  19.531  0.00  0.00    +0.000 A 
ATOM     17  C   UNL     1       1.451   8.406  20.159  0.00  0.00    +0.000 A 
ATOM     18  C   UNL     1       1.199   8.219  21.525  0.00  0.00    +0.000 A 
ATOM     19  C   UNL     1       0.492   9.183  22.249  0.00  0.00    +0.000 A 
ENDBRANCH   1  17
TORSDOF 1
ENDMDL
MODEL 6
REMARK VINA RESULT:      -7.1      2.836      7.104
REMARK  Name = 
REMARK  2 active torsions:
REMARK  status: ('A' for Active; 'I' for Inactive)
REMARK    1  A    between atoms: C_1  and  C_2
REMARK    2  A    between atoms: C_5  and  C_6
REMARK                            x       y       z     vdW  Elec       q    Type
REMARK                         _______ _______ _______ _____ _____    ______ ____
ROOT
ATOM      1  C   UNL     1       3.383   6.257  18.140  0.00  0.00    +0.000 A 
ATOM      2  N   UNL     1       2.949   7.473  18.167  0.00  0.00    +0.000 NA
ATOM      3  C   UNL     1       2.141   7.845  19.236  0.00  0.00    +0.000 A 
ATOM      4  C   UNL     1       1.605   9.135  19.250  0.00  0.00    +0.000 A 
ATOM      5  C   UNL     1       0.758   9.540  20.282  0.00  0.00    +0.000 A 
ATOM      6  C   UNL     1       0.460   8.653  21.313  0.00  0.00    +0.000 A 
ATOM      7 CL   UNL     1      -0.592   9.145  22.581  0.00  0.00    +0.000 Cl
ATOM      8  C   UNL     1       0.995   7.365  21.318  0.00  0.00    +0.000 A 
ATOM      9  C   UNL     1       1.830   6.960  20.266  0.00  0.00    +0.000 A 
ATOM     10  C   UNL     1       2.398   5.606  20.160  0.00  0.00    +0.000 A 
ATOM     11  S   UNL     1       2.204   4.338  21.231  0.00  0.00    +0.000 S 
ATOM     12  O   UNL     1       3.151   5.311  19.078  0.00  0.00    +0.000 OA
ENDROOT
BRANCH   1  17
ATOM     13  C   UNL     1       6.716   4.059  13.933  0.00  0.00    +0.000 C 
ATOM     14  C   UNL     1       5.836   4.625  15.010  0.00  0.00    +0.000 A 
ATOM     15  C   UNL     1       5.159   3.787  15.903  0.00  0.00    +0.000 A 
ATOM     16  C   UNL     1       4.356   4.328  16.909  0.00  0.00    +0.000 A 
ATOM     17  C   UNL     1       4.214   5.717  17.035  0.00  0.00    +0.000 A 
ATOM     18  C   UNL     1       4.885   6.556  16.136  0.00  0.00    +0.000 A 
ATOM     19  C   UNL     1       5.691   6.011  15.131  0.00  0.00    +0.000 A 
ENDBRANCH   1  17
TORSDOF 1
ENDMDL
MODEL 7
REMARK VINA RESULT:      -7.1      1.940      2.716
REMARK  Name = 
REMARK  2 active torsions:
REMARK  status: ('A' for Active; 'I' for Inactive)
REMARK    1  A    between atoms: C_1  and  C_2
REMARK    2  A    between atoms: C_5  and  C_6
REMARK                            x       y       z     vdW  Elec       q    Type
REMARK                         _______ _______ _______ _____ _____    ______ ____
ROOT
ATOM      1  C   UNL     1       1.435   7.413  20.538  0.00  0.00    +0.000 A 
ATOM      2  N   UNL     1       1.223   6.253  21.064  0.00  0.00    +0.000 NA
ATOM      3  C   UNL     1       1.828   5.154  20.462  0.00  0.00    +0.000 A 
ATOM      4  C   UNL     1       1.559   3.882  20.973  0.00  0.00    +0.000 A 
ATOM      5  C   UNL     1       2.112   2.748  20.378  0.00  0.00    +0.000 A 
ATOM      6  C   UNL     1       2.952   2.891  19.277  0.00  0.00    +0.000 A 
ATOM      7 CL   UNL     1       3.627   1.494  18.535  0.00  0.00    +0.000 Cl
ATOM      8  C   UNL     1       3.237   4.155  18.763  0.00  0.00    +0.000 A 
ATOM      9  C   UNL     1       2.662   5.288  19.354  0.00  0.00    +0.000 A 
ATOM     10  C   UNL     1       2.864   6.656  18.848  0.00  0.00    +0.000 A 
ATOM     11  S   UNL     1       3.800   7.128  17.547  0.00  0.00    +0.000 S 
ATOM     12  O   UNL     1       2.221   7.669  19.469  0.00  0.00    +0.000 OA
ENDROOT
BRANCH   1  17
ATOM     13  C   UNL     1      -0.849  12.366  22.511  0.00  0.00    +0.000 C 
ATOM     14  C   UNL     1      -0.276  11.080  21.990  0.00  0.00    +0.000 A 
ATOM     15  C   UNL     1       0.281  11.005  20.709  0.00  0.00    +0.000 A 
ATOM     16  C   UNL     1       0.823   9.805  20.244  0.00  0.00    +0.000 A 
ATOM     17  C   UNL     1       0.814   8.661  21.052  0.00  0.00    +0.000 A 
ATOM     18  C   UNL     1       0.249   8.734  22.332  0.00  0.00    +0.000 A 
ATOM     19  C   UNL     1      -0.291   9.937  22.796  0.00  0.00    +0.000 A 
ENDBRANCH   1  17
TORSDOF 1
ENDMDL
MODEL 8
REMARK VINA RESULT:      -6.9      5.261      6.346
REMARK  Name = 
REMARK  2 active torsions:
REMARK  status: ('A' for Active; 'I' for Inactive)
REMARK    1  A    between atoms: C_1  and  C_2
REMARK    2  A    between atoms: C_5  and  C_6
REMARK                            x       y       z     vdW  Elec       q    Type
REMARK                         _______ _______ _______ _____ _____    ______ ____
ROOT
ATOM      1  C   UNL     1       4.799   4.063  17.704  0.00  0.00    +0.000 A 
ATOM      2  N   UNL     1       4.763   3.553  16.519  0.00  0.00    +0.000 NA
ATOM      3  C   UNL     1       5.643   4.063  15.571  0.00  0.00    +0.000 A 
ATOM      4  C   UNL     1       5.575   3.574  14.264  0.00  0.00    +0.000 A 
ATOM      5  C   UNL     1       6.413   4.083  13.272  0.00  0.00    +0.000 A 
ATOM      6  C   UNL     1       7.334   5.075  13.594  0.00  0.00    +0.000 A 
ATOM      7 CL   UNL     1       8.361   5.713  12.370  0.00  0.00    +0.000 Cl
ATOM      8  C   UNL     1       7.421   5.566  14.896  0.00  0.00    +0.000 A 
ATOM      9  C   UNL     1       6.562   5.063  15.884  0.00  0.00    +0.000 A 
ATOM     10  C   UNL     1       6.546   5.557  17.270  0.00  0.00    +0.000 A 
ATOM     11  S   UNL     1       7.520   6.740  17.937  0.00  0.00    +0.000 S 
ATOM     12  O   UNL     1       5.643   5.031  18.126  0.00  0.00    +0.000 OA
ENDROOT
BRANCH   1  17
ATOM     13  C   UNL     1       1.199   2.586  22.005  0.00  0.00    +0.000 C 
ATOM     14  C   UNL     1       2.121   2.954  20.879  0.00  0.00    +0.000 A 
ATOM     15  C   UNL     1       1.727   3.863  19.891  0.00  0.00    +0.000 A 
ATOM     16  C   UNL     1       2.601   4.206  18.858  0.00  0.00    +0.000 A 
ATOM     17  C   UNL     1       3.883   3.644  18.795  0.00  0.00    +0.000 A 
ATOM     18  C   UNL     1       4.275   2.728  19.780  0.00  0.00    +0.000 A 
ATOM     19  C   UNL     1       3.398   2.387  20.815  0.00  0.00    +0.000 A 
ENDBRANCH   1  17
TORSDOF 1
ENDMDL
MODEL 9
REMARK VINA RESULT:      -6.9      5.151      6.342
REMARK  Name = 
REMARK  2 active torsions:
REMARK  status: ('A' for Active; 'I' for Inactive)
REMARK    1  A    between atoms: C_1  and  C_2
REMARK    2  A    between atoms: C_5  and  C_6
REMARK                            x       y       z     vdW  Elec       q    Type
REMARK                         _______ _______ _______ _____ _____    ______ ____
ROOT
ATOM      1  C   UNL     1       4.725   4.189  17.728  0.00  0.00    +0.000 A 
ATOM      2  N   UNL     1       4.678   3.630  16.565  0.00  0.00    +0.000 NA
ATOM      3  C   UNL     1       5.558   4.094  15.593  0.00  0.00    +0.000 A 
ATOM      4  C   UNL     1       5.479   3.551  14.307  0.00  0.00    +0.000 A 
ATOM      5  C   UNL     1       6.316   4.013  13.291  0.00  0.00    +0.000 A 
ATOM      6  C   UNL     1       7.246   5.010  13.567  0.00  0.00    +0.000 A 
ATOM      7 CL   UNL     1       8.271   5.589  12.313  0.00  0.00    +0.000 Cl
ATOM      8  C   UNL     1       7.343   5.555  14.847  0.00  0.00    +0.000 A 
ATOM      9  C   UNL     1       6.485   5.100  15.859  0.00  0.00    +0.000 A 
ATOM     10  C   UNL     1       6.480   5.651  17.224  0.00  0.00    +0.000 A 
ATOM     11  S   UNL     1       7.465   6.853  17.836  0.00  0.00    +0.000 S 
ATOM     12  O   UNL     1       5.577   5.168  18.105  0.00  0.00    +0.000 OA
ENDROOT
BRANCH   1  17
ATOM     13  C   UNL     1       1.173   2.596  22.028  0.00  0.00    +0.000 C 
ATOM     14  C   UNL     1       2.102   3.022  20.928  0.00  0.00    +0.000 A 
ATOM     15  C   UNL     1       3.379   2.464  20.806  0.00  0.00    +0.000 A 
ATOM     16  C   UNL     1       4.227   2.859  19.769  0.00  0.00    +0.000 A 
ATOM     17  C   UNL     1       3.811   3.822  18.840  0.00  0.00    +0.000 A 
ATOM     18  C   UNL     1       2.535   4.387  18.966  0.00  0.00    +0.000 A 
ATOM     19  C   UNL     1       1.688   3.987  20.004  0.00  0.00    +0.000 A 
ENDBRANCH   1  17
TORSDOF 1
ENDMDL
