MODEL 1
REMARK VINA RESULT:      -7.1      0.000      0.000
REMARK  Name = 
REMARK  14 active torsions:
REMARK  status: ('A' for Active; 'I' for Inactive)
REMARK    1  A    between atoms: C_1  and  C_2
REMARK    2  A    between atoms: C_2  and  C_3
REMARK    3  A    between atoms: C_3  and  C_4
REMARK    4  A    between atoms: C_4  and  C_5
REMARK    5  A    between atoms: C_5  and  C_6
REMARK    6  A    between atoms: C_6  and  C_7
REMARK    7  A    between atoms: C_7  and  C_8
REMARK    8  A    between atoms: C_8  and  C_9
REMARK    9  A    between atoms: C_9  and  C_10
REMARK   10  A    between atoms: C_10  and  C_11
REMARK   11  A    between atoms: C_11  and  C_12
REMARK   12  A    between atoms: C_12  and  C_13
REMARK   13  A    between atoms: C_13  and  C_14
REMARK   14  A    between atoms: C_15  and  C_16
REMARK                            x       y       z     vdW  Elec       q    Type
REMARK                         _______ _______ _______ _____ _____    ______ ____
ROOT
ATOM      1  C   UNL     1       7.835   8.094  17.569  0.00  0.00    +0.000 C 
ENDROOT
BRANCH   1   2
ATOM      2  C   UNL     1       8.641   8.735  18.668  0.00  0.00    +0.000 C 
ATOM      3  C   UNL     1       9.056  10.007  18.569  0.00  0.00    +0.000 C 
BRANCH   3   4
ATOM      4  C   UNL     1       9.739  10.783  19.658  0.00  0.00    +0.000 C 
ATOM      5  O   UNL     1       9.305  10.774  20.796  0.00  0.00    +0.000 OA
ATOM      6  N   UNL     1      10.856  11.527  19.244  0.00  0.00    +0.000 N 
ATOM      7  C   UNL     1      11.606  12.297  20.231  0.00  0.00    +0.000 C 
ATOM      8  C   UNL     1      11.391  13.807  20.137  0.00  0.00    +0.000 C 
ATOM      9  C   UNL     1       9.923  14.215  20.232  0.00  0.00    +0.000 C 
ATOM     10  C   UNL     1       9.249  14.528  18.893  0.00  0.00    +0.000 C 
ATOM     11  C   UNL     1       9.159  13.426  17.833  0.00  0.00    +0.000 C 
ATOM     12  C   UNL     1      10.486  12.962  17.213  0.00  0.00    +0.000 C 
ATOM     13  C   UNL     1      11.194  11.756  17.844  0.00  0.00    +0.000 C 
ENDBRANCH   3   4
ENDBRANCH   1   2
BRANCH   1  14
ATOM     14  C   UNL     1       7.562   6.608  17.798  0.00  0.00    +0.000 C 
BRANCH  14  15
ATOM     15  C   UNL     1       7.116   5.935  16.495  0.00  0.00    +0.000 C 
BRANCH  15  16
ATOM     16  C   UNL     1       6.681   4.493  16.744  0.00  0.00    +0.000 C 
BRANCH  16  17
ATOM     17  C   UNL     1       5.301   4.221  16.150  0.00  0.00    +0.000 C 
BRANCH  17  18
ATOM     18  C   UNL     1       4.205   4.624  17.131  0.00  0.00    +0.000 C 
BRANCH  18  19
ATOM     19  C   UNL     1       2.979   3.733  16.977  0.00  0.00    +0.000 C 
BRANCH  19  20
ATOM     20  C   UNL     1       1.790   4.314  17.735  0.00  0.00    +0.000 C 
BRANCH  20  21
ATOM     21  C   UNL     1       2.255   5.042  18.992  0.00  0.00    +0.000 C 
BRANCH  21  22
ATOM     22  C   UNL     1       1.288   4.811  20.149  0.00  0.00    +0.000 C 
BRANCH  22  23
ATOM     23  C   UNL     1       0.712   3.399  20.093  0.00  0.00    +0.000 C 
BRANCH  23  25
ATOM     24  C   UNL     1       2.324   2.783  21.913  0.00  0.00    +0.000 C 
ATOM     25  C   UNL     1       1.727   2.369  20.579  0.00  0.00    +0.000 C 
ENDBRANCH  23  25
ENDBRANCH  22  23
ENDBRANCH  21  22
ENDBRANCH  20  21
ENDBRANCH  19  20
ENDBRANCH  18  19
ENDBRANCH  17  18
ENDBRANCH  16  17
ENDBRANCH  15  16
ENDBRANCH  14  15
ENDBRANCH   1  14
TORSDOF 13
ENDMDL
MODEL 2
REMARK VINA RESULT:      -7.0      5.390      9.563
REMARK  Name = 
REMARK  14 active torsions:
REMARK  status: ('A' for Active; 'I' for Inactive)
REMARK    1  A    between atoms: C_1  and  C_2
REMARK    2  A    between atoms: C_2  and  C_3
REMARK    3  A    between atoms: C_3  and  C_4
REMARK    4  A    between atoms: C_4  and  C_5
REMARK    5  A    between atoms: C_5  and  C_6
REMARK    6  A    between atoms: C_6  and  C_7
REMARK    7  A    between atoms: C_7  and  C_8
REMARK    8  A    between atoms: C_8  and  C_9
REMARK    9  A    between atoms: C_9  and  C_10
REMARK   10  A    between atoms: C_10  and  C_11
REMARK   11  A    between atoms: C_11  and  C_12
REMARK   12  A    between atoms: C_12  and  C_13
REMARK   13  A    between atoms: C_13  and  C_14
REMARK   14  A    between atoms: C_15  and  C_16
REMARK                            x       y       z     vdW  Elec       q    Type
REMARK                         _______ _______ _______ _____ _____    ______ ____
ROOT
ATOM      1  C   UNL     1       4.909   6.925  16.718  0.00  0.00    +0.000 C 
ENDROOT
BRANCH   1   2
ATOM      2  C   UNL     1       3.960   6.726  17.871  0.00  0.00    +0.000 C 
ATOM      3  C   UNL     1       3.150   5.657  17.923  0.00  0.00    +0.000 C 
BRANCH   3   4
ATOM      4  C   UNL     1       2.273   5.291  19.085  0.00  0.00    +0.000 C 
ATOM      5  O   UNL     1       2.181   6.025  20.053  0.00  0.00    +0.000 OA
ATOM      6  N   UNL     1       1.631   4.046  18.974  0.00  0.00    +0.000 N 
ATOM      7  C   UNL     1       0.736   3.607  20.040  0.00  0.00    +0.000 C 
ATOM      8  C   UNL     1       1.309   2.492  20.913  0.00  0.00    +0.000 C 
ATOM      9  C   UNL     1       2.656   2.845  21.538  0.00  0.00    +0.000 C 
ATOM     10  C   UNL     1       3.876   2.251  20.830  0.00  0.00    +0.000 C 
ATOM     11  C   UNL     1       4.144   2.631  19.371  0.00  0.00    +0.000 C 
ATOM     12  C   UNL     1       3.127   2.129  18.334  0.00  0.00    +0.000 C 
ATOM     13  C   UNL     1       1.966   3.059  17.955  0.00  0.00    +0.000 C 
ENDBRANCH   3   4
ENDBRANCH   1   2
BRANCH   1  14
ATOM     14  C   UNL     1       6.373   7.029  17.142  0.00  0.00    +0.000 C 
BRANCH  14  15
ATOM     15  C   UNL     1       6.794   5.787  17.934  0.00  0.00    +0.000 C 
BRANCH  15  16
ATOM     16  C   UNL     1       7.414   4.736  17.017  0.00  0.00    +0.000 C 
BRANCH  16  17
ATOM     17  C   UNL     1       6.378   4.163  16.053  0.00  0.00    +0.000 C 
BRANCH  17  18
ATOM     18  C   UNL     1       6.709   4.553  14.616  0.00  0.00    +0.000 C 
BRANCH  18  19
ATOM     19  C   UNL     1       5.834   3.792  13.627  0.00  0.00    +0.000 C 
BRANCH  19  20
ATOM     20  C   UNL     1       6.659   3.301  12.443  0.00  0.00    +0.000 C 
BRANCH  20  21
ATOM     21  C   UNL     1       5.754   2.911  11.279  0.00  0.00    +0.000 C 
BRANCH  21  22
ATOM     22  C   UNL     1       4.346   3.468  11.469  0.00  0.00    +0.000 C 
BRANCH  22  23
ATOM     23  C   UNL     1       3.316   2.554  10.812  0.00  0.00    +0.000 C 
BRANCH  23  25
ATOM     24  C   UNL     1       3.107   4.588   9.358  0.00  0.00    +0.000 C 
ATOM     25  C   UNL     1       2.413   3.333   9.860  0.00  0.00    +0.000 C 
ENDBRANCH  23  25
ENDBRANCH  22  23
ENDBRANCH  21  22
ENDBRANCH  20  21
ENDBRANCH  19  20
ENDBRANCH  18  19
ENDBRANCH  17  18
ENDBRANCH  16  17
ENDBRANCH  15  16
ENDBRANCH  14  15
ENDBRANCH   1  14
TORSDOF 13
ENDMDL
MODEL 3
REMARK VINA RESULT:      -6.9      3.087     10.474
REMARK  Name = 
REMARK  14 active torsions:
REMARK  status: ('A' for Active; 'I' for Inactive)
REMARK    1  A    between atoms: C_1  and  C_2
REMARK    2  A    between atoms: C_2  and  C_3
REMARK    3  A    between atoms: C_3  and  C_4
REMARK    4  A    between atoms: C_4  and  C_5
REMARK    5  A    between atoms: C_5  and  C_6
REMARK    6  A    between atoms: C_6  and  C_7
REMARK    7  A    between atoms: C_7  and  C_8
REMARK    8  A    between atoms: C_8  and  C_9
REMARK    9  A    between atoms: C_9  and  C_10
REMARK   10  A    between atoms: C_10  and  C_11
REMARK   11  A    between atoms: C_11  and  C_12
REMARK   12  A    between atoms: C_12  and  C_13
REMARK   13  A    between atoms: C_13  and  C_14
REMARK   14  A    between atoms: C_15  and  C_16
REMARK                            x       y       z     vdW  Elec       q    Type
REMARK                         _______ _______ _______ _____ _____    ______ ____
ROOT
ATOM      1  C   UNL     1       6.747   5.398  17.029  0.00  0.00    +0.000 C 
ENDROOT
BRANCH   1   2
ATOM      2  C   UNL     1       5.739   4.452  17.626  0.00  0.00    +0.000 C 
ATOM      3  C   UNL     1       5.524   4.417  18.950  0.00  0.00    +0.000 C 
BRANCH   3   4
ATOM      4  C   UNL     1       4.451   3.618  19.633  0.00  0.00    +0.000 C 
ATOM      5  O   UNL     1       4.494   2.401  19.648  0.00  0.00    +0.000 OA
ATOM      6  N   UNL     1       3.409   4.378  20.189  0.00  0.00    +0.000 N 
ATOM      7  C   UNL     1       2.329   3.699  20.897  0.00  0.00    +0.000 C 
ATOM      8  C   UNL     1       1.008   3.664  20.130  0.00  0.00    +0.000 C 
ATOM      9  C   UNL     1       1.131   3.043  18.741  0.00  0.00    +0.000 C 
ATOM     10  C   UNL     1       1.213   4.044  17.586  0.00  0.00    +0.000 C 
ATOM     11  C   UNL     1       2.379   5.037  17.547  0.00  0.00    +0.000 C 
ATOM     12  C   UNL     1       2.411   6.101  18.654  0.00  0.00    +0.000 C 
ATOM     13  C   UNL     1       3.222   5.799  19.922  0.00  0.00    +0.000 C 
ENDBRANCH   3   4
ENDBRANCH   1   2
BRANCH   1  14
ATOM     14  C   UNL     1       7.503   6.223  18.070  0.00  0.00    +0.000 C 
BRANCH  14  15
ATOM     15  C   UNL     1       7.573   7.693  17.644  0.00  0.00    +0.000 C 
BRANCH  15  16
ATOM     16  C   UNL     1       8.595   8.458  18.481  0.00  0.00    +0.000 C 
BRANCH  16  17
ATOM     17  C   UNL     1       8.625   9.937  18.104  0.00  0.00    +0.000 C 
BRANCH  17  18
ATOM     18  C   UNL     1       9.190  10.772  19.248  0.00  0.00    +0.000 C 
BRANCH  18  19
ATOM     19  C   UNL     1      10.640  11.156  18.980  0.00  0.00    +0.000 C 
BRANCH  19  20
ATOM     20  C   UNL     1      10.768  11.883  17.646  0.00  0.00    +0.000 C 
BRANCH  20  21
ATOM     21  C   UNL     1      11.466  13.227  17.827  0.00  0.00    +0.000 C 
BRANCH  21  22
ATOM     22  C   UNL     1      10.665  14.139  18.752  0.00  0.00    +0.000 C 
BRANCH  22  23
ATOM     23  C   UNL     1       9.533  14.817  17.987  0.00  0.00    +0.000 C 
BRANCH  23  25
ATOM     24  C   UNL     1       7.325  13.691  17.600  0.00  0.00    +0.000 C 
ATOM     25  C   UNL     1       8.174  14.472  18.589  0.00  0.00    +0.000 C 
ENDBRANCH  23  25
ENDBRANCH  22  23
ENDBRANCH  21  22
ENDBRANCH  20  21
ENDBRANCH  19  20
ENDBRANCH  18  19
ENDBRANCH  17  18
ENDBRANCH  16  17
ENDBRANCH  15  16
ENDBRANCH  14  15
ENDBRANCH   1  14
TORSDOF 13
ENDMDL
MODEL 4
REMARK VINA RESULT:      -6.7      1.228      1.500
REMARK  Name = 
REMARK  14 active torsions:
REMARK  status: ('A' for Active; 'I' for Inactive)
REMARK    1  A    between atoms: C_1  and  C_2
REMARK    2  A    between atoms: C_2  and  C_3
REMARK    3  A    between atoms: C_3  and  C_4
REMARK    4  A    between atoms: C_4  and  C_5
REMARK    5  A    between atoms: C_5  and  C_6
REMARK    6  A    between atoms: C_6  and  C_7
REMARK    7  A    between atoms: C_7  and  C_8
REMARK    8  A    between atoms: C_8  and  C_9
REMARK    9  A    between atoms: C_9  and  C_10
REMARK   10  A    between atoms: C_10  and  C_11
REMARK   11  A    between atoms: C_11  and  C_12
REMARK   12  A    between atoms: C_12  and  C_13
REMARK   13  A    between atoms: C_13  and  C_14
REMARK   14  A    between atoms: C_15  and  C_16
REMARK                            x       y       z     vdW  Elec       q    Type
REMARK                         _______ _______ _______ _____ _____    ______ ____
ROOT
ATOM      1  C   UNL     1       7.487   8.830  17.537  0.00  0.00    +0.000 C 
ENDROOT
BRANCH   1   2
ATOM      2  C   UNL     1       8.535   9.260  18.530  0.00  0.00    +0.000 C 
ATOM      3  C   UNL     1       9.068  10.490  18.484  0.00  0.00    +0.000 C 
BRANCH   3   4
ATOM      4  C   UNL     1      10.010  11.066  19.503  0.00  0.00    +0.000 C 
ATOM      5  O   UNL     1       9.697  11.123  20.678  0.00  0.00    +0.000 OA
ATOM      6  N   UNL     1      11.219  11.556  18.982  0.00  0.00    +0.000 N 
ATOM      7  C   UNL     1      12.214  12.113  19.892  0.00  0.00    +0.000 C 
ATOM      8  C   UNL     1      12.333  13.635  19.827  0.00  0.00    +0.000 C 
ATOM      9  C   UNL     1      11.009  14.356  20.071  0.00  0.00    +0.000 C 
ATOM     10  C   UNL     1      10.295  14.846  18.808  0.00  0.00    +0.000 C 
ATOM     11  C   UNL     1       9.859  13.821  17.757  0.00  0.00    +0.000 C 
ATOM     12  C   UNL     1      10.983  13.091  17.005  0.00  0.00    +0.000 C 
ATOM     13  C   UNL     1      11.462  11.741  17.556  0.00  0.00    +0.000 C 
ENDBRANCH   3   4
ENDBRANCH   1   2
BRANCH   1  14
ATOM     14  C   UNL     1       7.699   7.415  16.999  0.00  0.00    +0.000 C 
BRANCH  14  15
ATOM     15  C   UNL     1       6.577   6.486  17.472  0.00  0.00    +0.000 C 
BRANCH  15  16
ATOM     16  C   UNL     1       7.024   5.656  18.673  0.00  0.00    +0.000 C 
BRANCH  16  17
ATOM     17  C   UNL     1       5.825   5.112  19.447  0.00  0.00    +0.000 C 
BRANCH  17  18
ATOM     18  C   UNL     1       4.683   4.770  18.497  0.00  0.00    +0.000 C 
BRANCH  18  19
ATOM     19  C   UNL     1       4.413   3.271  18.484  0.00  0.00    +0.000 C 
BRANCH  19  20
ATOM     20  C   UNL     1       3.125   2.960  17.728  0.00  0.00    +0.000 C 
BRANCH  20  21
ATOM     21  C   UNL     1       2.245   2.006  18.529  0.00  0.00    +0.000 C 
BRANCH  21  22
ATOM     22  C   UNL     1       0.820   2.539  18.641  0.00  0.00    +0.000 C 
BRANCH  22  23
ATOM     23  C   UNL     1       0.592   3.177  20.008  0.00  0.00    +0.000 C 
BRANCH  23  25
ATOM     24  C   UNL     1       2.424   3.965  21.530  0.00  0.00    +0.000 C 
ATOM     25  C   UNL     1       1.670   2.755  21.002  0.00  0.00    +0.000 C 
ENDBRANCH  23  25
ENDBRANCH  22  23
ENDBRANCH  21  22
ENDBRANCH  20  21
ENDBRANCH  19  20
ENDBRANCH  18  19
ENDBRANCH  17  18
ENDBRANCH  16  17
ENDBRANCH  15  16
ENDBRANCH  14  15
ENDBRANCH   1  14
TORSDOF 13
ENDMDL
MODEL 5
REMARK VINA RESULT:      -6.7      3.138     10.936
REMARK  Name = 
REMARK  14 active torsions:
REMARK  status: ('A' for Active; 'I' for Inactive)
REMARK    1  A    between atoms: C_1  and  C_2
REMARK    2  A    between atoms: C_2  and  C_3
REMARK    3  A    between atoms: C_3  and  C_4
REMARK    4  A    between atoms: C_4  and  C_5
REMARK    5  A    between atoms: C_5  and  C_6
REMARK    6  A    between atoms: C_6  and  C_7
REMARK    7  A    between atoms: C_7  and  C_8
REMARK    8  A    between atoms: C_8  and  C_9
REMARK    9  A    between atoms: C_9  and  C_10
REMARK   10  A    between atoms: C_10  and  C_11
REMARK   11  A    between atoms: C_11  and  C_12
REMARK   12  A    between atoms: C_12  and  C_13
REMARK   13  A    between atoms: C_13  and  C_14
REMARK   14  A    between atoms: C_15  and  C_16
REMARK                            x       y       z     vdW  Elec       q    Type
REMARK                         _______ _______ _______ _____ _____    ______ ____
ROOT
ATOM      1  C   UNL     1       6.955   5.750  18.377  0.00  0.00    +0.000 C 
ENDROOT
BRANCH   1   2
ATOM      2  C   UNL     1       5.469   5.844  18.601  0.00  0.00    +0.000 C 
ATOM      3  C   UNL     1       4.614   5.094  17.888  0.00  0.00    +0.000 C 
BRANCH   3   4
ATOM      4  C   UNL     1       3.133   5.006  18.125  0.00  0.00    +0.000 C 
ATOM      5  O   UNL     1       2.502   5.980  18.496  0.00  0.00    +0.000 OA
ATOM      6  N   UNL     1       2.577   3.731  17.931  0.00  0.00    +0.000 N 
ATOM      7  C   UNL     1       1.141   3.544  18.112  0.00  0.00    +0.000 C 
ATOM      8  C   UNL     1       0.767   2.789  19.387  0.00  0.00    +0.000 C 
ATOM      9  C   UNL     1       1.327   3.429  20.654  0.00  0.00    +0.000 C 
ATOM     10  C   UNL     1       2.588   2.767  21.215  0.00  0.00    +0.000 C 
ATOM     11  C   UNL     1       3.851   2.726  20.349  0.00  0.00    +0.000 C 
ATOM     12  C   UNL     1       3.787   1.853  19.085  0.00  0.00    +0.000 C 
ATOM     13  C   UNL     1       3.376   2.523  17.767  0.00  0.00    +0.000 C 
ENDBRANCH   3   4
ENDBRANCH   1   2
BRANCH   1  14
ATOM     14  C   UNL     1       7.508   6.852  17.474  0.00  0.00    +0.000 C 
BRANCH  14  15
ATOM     15  C   UNL     1       8.157   7.958  18.311  0.00  0.00    +0.000 C 
BRANCH  15  16
ATOM     16  C   UNL     1       8.016   9.316  17.629  0.00  0.00    +0.000 C 
BRANCH  16  17
ATOM     17  C   UNL     1       8.942  10.353  18.260  0.00  0.00    +0.000 C 
BRANCH  17  18
ATOM     18  C   UNL     1       9.192  10.025  19.729  0.00  0.00    +0.000 C 
BRANCH  18  19
ATOM     19  C   UNL     1      10.039  11.104  20.393  0.00  0.00    +0.000 C 
BRANCH  19  20
ATOM     20  C   UNL     1       9.155  12.137  21.083  0.00  0.00    +0.000 C 
BRANCH  20  21
ATOM     21  C   UNL     1       9.589  13.552  20.714  0.00  0.00    +0.000 C 
BRANCH  21  22
ATOM     22  C   UNL     1      11.057  13.583  20.298  0.00  0.00    +0.000 C 
BRANCH  22  23
ATOM     23  C   UNL     1      11.197  14.098  18.868  0.00  0.00    +0.000 C 
BRANCH  23  25
ATOM     24  C   UNL     1      11.532  13.468  16.464  0.00  0.00    +0.000 C 
ATOM     25  C   UNL     1      11.492  12.961  17.896  0.00  0.00    +0.000 C 
ENDBRANCH  23  25
ENDBRANCH  22  23
ENDBRANCH  21  22
ENDBRANCH  20  21
ENDBRANCH  19  20
ENDBRANCH  18  19
ENDBRANCH  17  18
ENDBRANCH  16  17
ENDBRANCH  15  16
ENDBRANCH  14  15
ENDBRANCH   1  14
TORSDOF 13
ENDMDL
MODEL 6
REMARK VINA RESULT:      -6.7      3.078     10.897
REMARK  Name = 
REMARK  14 active torsions:
REMARK  status: ('A' for Active; 'I' for Inactive)
REMARK    1  A    between atoms: C_1  and  C_2
REMARK    2  A    between atoms: C_2  and  C_3
REMARK    3  A    between atoms: C_3  and  C_4
REMARK    4  A    between atoms: C_4  and  C_5
REMARK    5  A    between atoms: C_5  and  C_6
REMARK    6  A    between atoms: C_6  and  C_7
REMARK    7  A    between atoms: C_7  and  C_8
REMARK    8  A    between atoms: C_8  and  C_9
REMARK    9  A    between atoms: C_9  and  C_10
REMARK   10  A    between atoms: C_10  and  C_11
REMARK   11  A    between atoms: C_11  and  C_12
REMARK   12  A    between atoms: C_12  and  C_13
REMARK   13  A    between atoms: C_13  and  C_14
REMARK   14  A    between atoms: C_15  and  C_16
REMARK                            x       y       z     vdW  Elec       q    Type
REMARK                         _______ _______ _______ _____ _____    ______ ____
ROOT
ATOM      1  C   UNL     1       5.284   6.560  16.392  0.00  0.00    +0.000 C 
ENDROOT
BRANCH   1   2
ATOM      2  C   UNL     1       4.023   6.364  17.192  0.00  0.00    +0.000 C 
ATOM      3  C   UNL     1       3.984   5.506  18.222  0.00  0.00    +0.000 C 
BRANCH   3   4
ATOM      4  C   UNL     1       2.830   5.339  19.168  0.00  0.00    +0.000 C 
ATOM      5  O   UNL     1       2.658   6.120  20.087  0.00  0.00    +0.000 OA
ATOM      6  N   UNL     1       2.026   4.212  18.928  0.00  0.00    +0.000 N 
ATOM      7  C   UNL     1       0.862   3.972  19.776  0.00  0.00    +0.000 C 
ATOM      8  C   UNL     1       1.038   2.817  20.761  0.00  0.00    +0.000 C 
ATOM      9  C   UNL     1       2.260   2.973  21.663  0.00  0.00    +0.000 C 
ATOM     10  C   UNL     1       3.486   2.158  21.244  0.00  0.00    +0.000 C 
ATOM     11  C   UNL     1       4.120   2.424  19.875  0.00  0.00    +0.000 C 
ATOM     12  C   UNL     1       3.279   2.050  18.645  0.00  0.00    +0.000 C 
ATOM     13  C   UNL     1       2.400   3.139  18.015  0.00  0.00    +0.000 C 
ENDBRANCH   3   4
ENDBRANCH   1   2
BRANCH   1  14
ATOM     14  C   UNL     1       6.284   7.510  17.049  0.00  0.00    +0.000 C 
BRANCH  14  15
ATOM     15  C   UNL     1       7.424   6.724  17.703  0.00  0.00    +0.000 C 
BRANCH  15  16
ATOM     16  C   UNL     1       8.281   7.630  18.583  0.00  0.00    +0.000 C 
BRANCH  16  17
ATOM     17  C   UNL     1       8.350   9.047  18.018  0.00  0.00    +0.000 C 
BRANCH  17  18
ATOM     18  C   UNL     1       9.109   9.968  18.967  0.00  0.00    +0.000 C 
BRANCH  18  19
ATOM     19  C   UNL     1       9.438  11.296  18.295  0.00  0.00    +0.000 C 
BRANCH  19  20
ATOM     20  C   UNL     1      10.944  11.452  18.116  0.00  0.00    +0.000 C 
BRANCH  20  21
ATOM     21  C   UNL     1      11.623  11.713  19.456  0.00  0.00    +0.000 C 
BRANCH  21  22
ATOM     22  C   UNL     1      11.872  13.204  19.663  0.00  0.00    +0.000 C 
BRANCH  22  23
ATOM     23  C   UNL     1      10.819  13.800  20.593  0.00  0.00    +0.000 C 
BRANCH  23  25
ATOM     24  C   UNL     1      10.398  15.161  18.529  0.00  0.00    +0.000 C 
ATOM     25  C   UNL     1      10.274  15.114  20.043  0.00  0.00    +0.000 C 
ENDBRANCH  23  25
ENDBRANCH  22  23
ENDBRANCH  21  22
ENDBRANCH  20  21
ENDBRANCH  19  20
ENDBRANCH  18  19
ENDBRANCH  17  18
ENDBRANCH  16  17
ENDBRANCH  15  16
ENDBRANCH  14  15
ENDBRANCH   1  14
TORSDOF 13
ENDMDL
MODEL 7
REMARK VINA RESULT:      -6.7      1.894      3.083
REMARK  Name = 
REMARK  14 active torsions:
REMARK  status: ('A' for Active; 'I' for Inactive)
REMARK    1  A    between atoms: C_1  and  C_2
REMARK    2  A    between atoms: C_2  and  C_3
REMARK    3  A    between atoms: C_3  and  C_4
REMARK    4  A    between atoms: C_4  and  C_5
REMARK    5  A    between atoms: C_5  and  C_6
REMARK    6  A    between atoms: C_6  and  C_7
REMARK    7  A    between atoms: C_7  and  C_8
REMARK    8  A    between atoms: C_8  and  C_9
REMARK    9  A    between atoms: C_9  and  C_10
REMARK   10  A    between atoms: C_10  and  C_11
REMARK   11  A    between atoms: C_11  and  C_12
REMARK   12  A    between atoms: C_12  and  C_13
REMARK   13  A    between atoms: C_13  and  C_14
REMARK   14  A    between atoms: C_15  and  C_16
REMARK                            x       y       z     vdW  Elec       q    Type
REMARK                         _______ _______ _______ _____ _____    ______ ____
ROOT
ATOM      1  C   UNL     1       8.235   7.470  18.205  0.00  0.00    +0.000 C 
ENDROOT
BRANCH   1   2
ATOM      2  C   UNL     1       7.918   8.918  17.937  0.00  0.00    +0.000 C 
ATOM      3  C   UNL     1       8.649   9.899  18.488  0.00  0.00    +0.000 C 
BRANCH   3   4
ATOM      4  C   UNL     1       8.509  11.362  18.179  0.00  0.00    +0.000 C 
ATOM      5  O   UNL     1       7.980  11.733  17.147  0.00  0.00    +0.000 OA
ATOM      6  N   UNL     1       9.067  12.226  19.136  0.00  0.00    +0.000 N 
ATOM      7  C   UNL     1       8.962  13.668  18.943  0.00  0.00    +0.000 C 
ATOM      8  C   UNL     1      10.274  14.339  18.537  0.00  0.00    +0.000 C 
ATOM      9  C   UNL     1      10.899  13.735  17.282  0.00  0.00    +0.000 C 
ATOM     10  C   UNL     1      12.045  12.752  17.535  0.00  0.00    +0.000 C 
ATOM     11  C   UNL     1      11.767  11.480  18.342  0.00  0.00    +0.000 C 
ATOM     12  C   UNL     1      11.420  11.672  19.827  0.00  0.00    +0.000 C 
ATOM     13  C   UNL     1       9.938  11.774  20.214  0.00  0.00    +0.000 C 
ENDBRANCH   3   4
ENDBRANCH   1   2
BRANCH   1  14
ATOM     14  C   UNL     1       7.004   6.564  18.202  0.00  0.00    +0.000 C 
BRANCH  14  15
ATOM     15  C   UNL     1       7.250   5.324  17.337  0.00  0.00    +0.000 C 
BRANCH  15  16
ATOM     16  C   UNL     1       6.740   5.539  15.914  0.00  0.00    +0.000 C 
BRANCH  16  17
ATOM     17  C   UNL     1       5.294   5.070  15.767  0.00  0.00    +0.000 C 
BRANCH  17  18
ATOM     18  C   UNL     1       5.115   3.685  16.379  0.00  0.00    +0.000 C 
BRANCH  18  19
ATOM     19  C   UNL     1       3.997   3.686  17.415  0.00  0.00    +0.000 C 
BRANCH  19  20
ATOM     20  C   UNL     1       3.390   5.077  17.554  0.00  0.00    +0.000 C 
BRANCH  20  21
ATOM     21  C   UNL     1       3.156   5.421  19.021  0.00  0.00    +0.000 C 
BRANCH  21  22
ATOM     22  C   UNL     1       2.683   6.864  19.177  0.00  0.00    +0.000 C 
BRANCH  22  23
ATOM     23  C   UNL     1       2.999   7.670  17.920  0.00  0.00    +0.000 C 
BRANCH  23  25
ATOM     24  C   UNL     1       1.364   9.177  19.081  0.00  0.00    +0.000 C 
ATOM     25  C   UNL     1       2.039   8.845  17.760  0.00  0.00    +0.000 C 
ENDBRANCH  23  25
ENDBRANCH  22  23
ENDBRANCH  21  22
ENDBRANCH  20  21
ENDBRANCH  19  20
ENDBRANCH  18  19
ENDBRANCH  17  18
ENDBRANCH  16  17
ENDBRANCH  15  16
ENDBRANCH  14  15
ENDBRANCH   1  14
TORSDOF 13
ENDMDL
MODEL 8
REMARK VINA RESULT:      -6.7      0.664      1.053
REMARK  Name = 
REMARK  14 active torsions:
REMARK  status: ('A' for Active; 'I' for Inactive)
REMARK    1  A    between atoms: C_1  and  C_2
REMARK    2  A    between atoms: C_2  and  C_3
REMARK    3  A    between atoms: C_3  and  C_4
REMARK    4  A    between atoms: C_4  and  C_5
REMARK    5  A    between atoms: C_5  and  C_6
REMARK    6  A    between atoms: C_6  and  C_7
REMARK    7  A    between atoms: C_7  and  C_8
REMARK    8  A    between atoms: C_8  and  C_9
REMARK    9  A    between atoms: C_9  and  C_10
REMARK   10  A    between atoms: C_10  and  C_11
REMARK   11  A    between atoms: C_11  and  C_12
REMARK   12  A    between atoms: C_12  and  C_13
REMARK   13  A    between atoms: C_13  and  C_14
REMARK   14  A    between atoms: C_15  and  C_16
REMARK                            x       y       z     vdW  Elec       q    Type
REMARK                         _______ _______ _______ _____ _____    ______ ____
ROOT
ATOM      1  C   UNL     1       7.821   8.151  17.581  0.00  0.00    +0.000 C 
ENDROOT
BRANCH   1   2
ATOM      2  C   UNL     1       8.814   8.773  18.527  0.00  0.00    +0.000 C 
ATOM      3  C   UNL     1       8.851  10.101  18.716  0.00  0.00    +0.000 C 
BRANCH   3   4
ATOM      4  C   UNL     1       9.699  10.809  19.733  0.00  0.00    +0.000 C 
ATOM      5  O   UNL     1       9.385  10.818  20.910  0.00  0.00    +0.000 OA
ATOM      6  N   UNL     1      10.820  11.474  19.210  0.00  0.00    +0.000 N 
ATOM      7  C   UNL     1      11.724  12.172  20.118  0.00  0.00    +0.000 C 
ATOM      8  C   UNL     1      11.615  13.695  20.056  0.00  0.00    +0.000 C 
ATOM      9  C   UNL     1      10.200  14.210  20.303  0.00  0.00    +0.000 C 
ATOM     10  C   UNL     1       9.417  14.590  19.044  0.00  0.00    +0.000 C 
ATOM     11  C   UNL     1       9.136  13.513  17.992  0.00  0.00    +0.000 C 
ATOM     12  C   UNL     1      10.353  12.959  17.236  0.00  0.00    +0.000 C 
ATOM     13  C   UNL     1      11.029  11.695  17.784  0.00  0.00    +0.000 C 
ENDBRANCH   3   4
ENDBRANCH   1   2
BRANCH   1  14
ATOM     14  C   UNL     1       7.290   6.799  18.055  0.00  0.00    +0.000 C 
BRANCH  14  15
ATOM     15  C   UNL     1       5.922   6.508  17.429  0.00  0.00    +0.000 C 
BRANCH  15  16
ATOM     16  C   UNL     1       6.063   6.129  15.957  0.00  0.00    +0.000 C 
BRANCH  16  17
ATOM     17  C   UNL     1       6.545   4.689  15.800  0.00  0.00    +0.000 C 
BRANCH  17  18
ATOM     18  C   UNL     1       5.363   3.746  15.600  0.00  0.00    +0.000 C 
BRANCH  18  19
ATOM     19  C   UNL     1       4.675   3.444  16.926  0.00  0.00    +0.000 C 
BRANCH  19  20
ATOM     20  C   UNL     1       3.166   3.630  16.806  0.00  0.00    +0.000 C 
BRANCH  20  21
ATOM     21  C   UNL     1       2.459   3.132  18.062  0.00  0.00    +0.000 C 
BRANCH  21  22
ATOM     22  C   UNL     1       1.397   4.126  18.524  0.00  0.00    +0.000 C 
BRANCH  22  23
ATOM     23  C   UNL     1       1.083   3.926  20.003  0.00  0.00    +0.000 C 
BRANCH  23  25
ATOM     24  C   UNL     1       2.414   2.729  21.760  0.00  0.00    +0.000 C 
ATOM     25  C   UNL     1       1.583   2.572  20.497  0.00  0.00    +0.000 C 
ENDBRANCH  23  25
ENDBRANCH  22  23
ENDBRANCH  21  22
ENDBRANCH  20  21
ENDBRANCH  19  20
ENDBRANCH  18  19
ENDBRANCH  17  18
ENDBRANCH  16  17
ENDBRANCH  15  16
ENDBRANCH  14  15
ENDBRANCH   1  14
TORSDOF 13
ENDMDL
MODEL 9
REMARK VINA RESULT:      -6.7      1.451      2.310
REMARK  Name = 
REMARK  14 active torsions:
REMARK  status: ('A' for Active; 'I' for Inactive)
REMARK    1  A    between atoms: C_1  and  C_2
REMARK    2  A    between atoms: C_2  and  C_3
REMARK    3  A    between atoms: C_3  and  C_4
REMARK    4  A    between atoms: C_4  and  C_5
REMARK    5  A    between atoms: C_5  and  C_6
REMARK    6  A    between atoms: C_6  and  C_7
REMARK    7  A    between atoms: C_7  and  C_8
REMARK    8  A    between atoms: C_8  and  C_9
REMARK    9  A    between atoms: C_9  and  C_10
REMARK   10  A    between atoms: C_10  and  C_11
REMARK   11  A    between atoms: C_11  and  C_12
REMARK   12  A    between atoms: C_12  and  C_13
REMARK   13  A    between atoms: C_13  and  C_14
REMARK   14  A    between atoms: C_15  and  C_16
REMARK                            x       y       z     vdW  Elec       q    Type
REMARK                         _______ _______ _______ _____ _____    ______ ____
ROOT
ATOM      1  C   UNL     1       8.375   7.788  17.988  0.00  0.00    +0.000 C 
ENDROOT
BRANCH   1   2
ATOM      2  C   UNL     1       8.046   9.255  17.908  0.00  0.00    +0.000 C 
ATOM      3  C   UNL     1       8.863  10.177  18.440  0.00  0.00    +0.000 C 
BRANCH   3   4
ATOM      4  C   UNL     1       8.704  11.663  18.296  0.00  0.00    +0.000 C 
ATOM      5  O   UNL     1       8.099  12.136  17.350  0.00  0.00    +0.000 OA
ATOM      6  N   UNL     1       9.336  12.426  19.291  0.00  0.00    +0.000 N 
ATOM      7  C   UNL     1       9.221  13.881  19.256  0.00  0.00    +0.000 C 
ATOM      8  C   UNL     1      10.500  14.596  18.823  0.00  0.00    +0.000 C 
ATOM      9  C   UNL     1      11.026  14.127  17.469  0.00  0.00    +0.000 C 
ATOM     10  C   UNL     1      12.185  13.130  17.531  0.00  0.00    +0.000 C 
ATOM     11  C   UNL     1      11.966  11.780  18.221  0.00  0.00    +0.000 C 
ATOM     12  C   UNL     1      11.734  11.816  19.740  0.00  0.00    +0.000 C 
ATOM     13  C   UNL     1      10.286  11.870  20.247  0.00  0.00    +0.000 C 
ENDBRANCH   3   4
ENDBRANCH   1   2
BRANCH   1  14
ATOM     14  C   UNL     1       7.163   6.878  17.792  0.00  0.00    +0.000 C 
BRANCH  14  15
ATOM     15  C   UNL     1       6.070   7.600  16.999  0.00  0.00    +0.000 C 
BRANCH  15  16
ATOM     16  C   UNL     1       4.990   6.624  16.540  0.00  0.00    +0.000 C 
BRANCH  16  17
ATOM     17  C   UNL     1       5.561   5.573  15.591  0.00  0.00    +0.000 C 
BRANCH  17  18
ATOM     18  C   UNL     1       4.963   4.201  15.887  0.00  0.00    +0.000 C 
BRANCH  18  19
ATOM     19  C   UNL     1       5.325   3.740  17.293  0.00  0.00    +0.000 C 
BRANCH  19  20
ATOM     20  C   UNL     1       4.076   3.329  18.066  0.00  0.00    +0.000 C 
BRANCH  20  21
ATOM     21  C   UNL     1       2.816   3.708  17.295  0.00  0.00    +0.000 C 
BRANCH  21  22
ATOM     22  C   UNL     1       1.561   3.319  18.071  0.00  0.00    +0.000 C 
BRANCH  22  23
ATOM     23  C   UNL     1       1.892   2.282  19.140  0.00  0.00    +0.000 C 
BRANCH  23  25
ATOM     24  C   UNL     1       0.947   4.157  20.512  0.00  0.00    +0.000 C 
ATOM     25  C   UNL     1       1.748   2.866  20.542  0.00  0.00    +0.000 C 
ENDBRANCH  23  25
ENDBRANCH  22  23
ENDBRANCH  21  22
ENDBRANCH  20  21
ENDBRANCH  19  20
ENDBRANCH  18  19
ENDBRANCH  17  18
ENDBRANCH  16  17
ENDBRANCH  15  16
ENDBRANCH  14  15
ENDBRANCH   1  14
TORSDOF 13
ENDMDL
