MODEL 1
REMARK VINA RESULT:      -7.0      0.000      0.000
REMARK  Name = 
REMARK  11 active torsions:
REMARK  status: ('A' for Active; 'I' for Inactive)
REMARK    1  A    between atoms: C_1  and  O_2
REMARK    2  A    between atoms: O_2  and  C_3
REMARK    3  A    between atoms: C_5  and  C_6
REMARK    4  A    between atoms: C_6  and  N_7
REMARK    5  A    between atoms: N_10  and  C_11
REMARK    6  A    between atoms: C_11  and  C_12
REMARK    7  A    between atoms: C_15  and  C_16
REMARK    8  A    between atoms: C_25  and  O_26
REMARK    9  A    between atoms: O_26  and  C_27
REMARK   10  A    between atoms: C_28  and  O_29
REMARK   11  A    between atoms: O_29  and  C_30
REMARK                            x       y       z     vdW  Elec       q    Type
REMARK                         _______ _______ _______ _____ _____    ______ ____
ROOT
ATOM      1  N   UNL     1       0.404  11.607  19.507  0.00  0.00    +0.000 NA
ATOM      2  C   UNL     1       0.099  10.167  19.628  0.00  0.00    +0.000 C 
ATOM      3  C   UNL     1       0.486   9.280  18.413  0.00  0.00    +0.000 C 
ATOM      4  N   UNL     1       1.793   9.526  17.766  0.00  0.00    +0.000 NA
ATOM      5  C   UNL     1       2.133  10.961  17.761  0.00  0.00    +0.000 C 
ATOM      6  C   UNL     1       1.814  11.721  19.071  0.00  0.00    +0.000 C 
ENDROOT
BRANCH   1   7
ATOM      7  C   UNL     1      -0.479  12.297  18.545  0.00  0.00    +0.000 C 
BRANCH   7  10
ATOM      8  C   UNL     1      -4.171  12.302  19.622  0.00  0.00    +0.000 A 
ATOM      9  C   UNL     1      -2.773  12.382  19.715  0.00  0.00    +0.000 A 
ATOM     10  C   UNL     1      -1.967  12.013  18.635  0.00  0.00    +0.000 A 
ATOM     11  C   UNL     1      -2.590  11.456  17.506  0.00  0.00    +0.000 A 
ATOM     12  C   UNL     1      -3.983  11.395  17.381  0.00  0.00    +0.000 A 
ATOM     13  C   UNL     1      -4.789  11.887  18.417  0.00  0.00    +0.000 A 
BRANCH   8  15
ATOM     14  C   UNL     1      -5.173  13.905  21.069  0.00  0.00    +0.000 C 
ATOM     15  O   UNL     1      -5.000  12.548  20.689  0.00  0.00    +0.000 OA
ENDBRANCH   8  15
BRANCH  12  16
ATOM     16  O   UNL     1      -4.382  10.798  16.217  0.00  0.00    +0.000 OA
ATOM     17  C   UNL     1      -3.410  10.664  15.193  0.00  0.00    +0.000 C 
ENDBRANCH  12  16
BRANCH  13  18
ATOM     18  O   UNL     1      -6.155  11.885  18.286  0.00  0.00    +0.000 OA
ATOM     19  C   UNL     1      -6.751  10.633  18.652  0.00  0.00    +0.000 C 
ENDBRANCH  13  18
ENDBRANCH   7  10
ENDBRANCH   1   7
BRANCH   4  20
ATOM     20  C   UNL     1       2.887   8.717  18.316  0.00  0.00    +0.000 C 
BRANCH  20  21
ATOM     21  C   UNL     1       2.468   7.315  18.727  0.00  0.00    +0.000 A 
ATOM     22  C   UNL     1       2.399   6.269  17.785  0.00  0.00    +0.000 A 
ATOM     23  C   UNL     1       2.029   4.983  18.177  0.00  0.00    +0.000 A 
ATOM     24  C   UNL     1       1.732   4.703  19.516  0.00  0.00    +0.000 A 
ATOM     25  C   UNL     1       1.798   5.743  20.456  0.00  0.00    +0.000 A 
ATOM     26  C   UNL     1       2.168   7.033  20.062  0.00  0.00    +0.000 A 
BRANCH  24  27
ATOM     27  C   UNL     1       1.335   3.316  19.968  0.00  0.00    +0.000 C 
ATOM     28  F   UNL     1       2.348   2.407  19.900  0.00  0.00    +0.000 F 
ATOM     29  F   UNL     1       0.908   3.300  21.262  0.00  0.00    +0.000 F 
ATOM     30  F   UNL     1       0.315   2.791  19.236  0.00  0.00    +0.000 F 
ENDBRANCH  24  27
ENDBRANCH  20  21
ENDBRANCH   4  20
TORSDOF 8
ENDMDL
MODEL 2
REMARK VINA RESULT:      -6.9      5.776      9.477
REMARK  Name = 
REMARK  11 active torsions:
REMARK  status: ('A' for Active; 'I' for Inactive)
REMARK    1  A    between atoms: C_1  and  O_2
REMARK    2  A    between atoms: O_2  and  C_3
REMARK    3  A    between atoms: C_5  and  C_6
REMARK    4  A    between atoms: C_6  and  N_7
REMARK    5  A    between atoms: N_10  and  C_11
REMARK    6  A    between atoms: C_11  and  C_12
REMARK    7  A    between atoms: C_15  and  C_16
REMARK    8  A    between atoms: C_25  and  O_26
REMARK    9  A    between atoms: O_26  and  C_27
REMARK   10  A    between atoms: C_28  and  O_29
REMARK   11  A    between atoms: O_29  and  C_30
REMARK                            x       y       z     vdW  Elec       q    Type
REMARK                         _______ _______ _______ _____ _____    ______ ____
ROOT
ATOM      1  N   UNL     1       2.115   8.773  19.004  0.00  0.00    +0.000 NA
ATOM      2  C   UNL     1       1.601   9.874  18.165  0.00  0.00    +0.000 C 
ATOM      3  C   UNL     1       0.107  10.248  18.365  0.00  0.00    +0.000 C 
ATOM      4  N   UNL     1      -0.412  10.305  19.749  0.00  0.00    +0.000 NA
ATOM      5  C   UNL     1       0.203   9.270  20.601  0.00  0.00    +0.000 C 
ATOM      6  C   UNL     1       1.724   9.067  20.401  0.00  0.00    +0.000 C 
ENDROOT
BRANCH   1   7
ATOM      7  C   UNL     1       1.587   7.454  18.599  0.00  0.00    +0.000 C 
BRANCH   7  10
ATOM      8  C   UNL     1       2.732   4.198  20.296  0.00  0.00    +0.000 A 
ATOM      9  C   UNL     1       2.107   5.442  20.123  0.00  0.00    +0.000 A 
ATOM     10  C   UNL     1       2.386   6.228  19.001  0.00  0.00    +0.000 A 
ATOM     11  C   UNL     1       3.389   5.790  18.122  0.00  0.00    +0.000 A 
ATOM     12  C   UNL     1       4.003   4.539  18.259  0.00  0.00    +0.000 A 
ATOM     13  C   UNL     1       3.624   3.699  19.315  0.00  0.00    +0.000 A 
BRANCH   8  15
ATOM     14  C   UNL     1       1.409   2.634  21.508  0.00  0.00    +0.000 C 
ATOM     15  O   UNL     1       2.575   3.440  21.431  0.00  0.00    +0.000 OA
ENDBRANCH   8  15
BRANCH  12  16
ATOM     16  O   UNL     1       4.964   4.317  17.312  0.00  0.00    +0.000 OA
ATOM     17  C   UNL     1       6.280   4.754  17.611  0.00  0.00    +0.000 C 
ENDBRANCH  12  16
BRANCH  13  18
ATOM     18  O   UNL     1       4.177   2.449  19.432  0.00  0.00    +0.000 OA
ATOM     19  C   UNL     1       3.578   1.488  18.552  0.00  0.00    +0.000 C 
ENDBRANCH  13  18
ENDBRANCH   7  10
ENDBRANCH   1   7
BRANCH   4  20
ATOM     20  C   UNL     1      -0.314  11.634  20.363  0.00  0.00    +0.000 C 
BRANCH  20  21
ATOM     21  C   UNL     1      -1.485  11.980  21.269  0.00  0.00    +0.000 A 
ATOM     22  C   UNL     1      -2.655  12.572  20.753  0.00  0.00    +0.000 A 
ATOM     23  C   UNL     1      -3.729  12.870  21.591  0.00  0.00    +0.000 A 
ATOM     24  C   UNL     1      -3.671  12.574  22.958  0.00  0.00    +0.000 A 
ATOM     25  C   UNL     1      -2.506  11.987  23.475  0.00  0.00    +0.000 A 
ATOM     26  C   UNL     1      -1.428  11.689  22.635  0.00  0.00    +0.000 A 
BRANCH  24  27
ATOM     27  C   UNL     1      -4.824  12.880  23.887  0.00  0.00    +0.000 C 
ATOM     28  F   UNL     1      -6.037  12.494  23.400  0.00  0.00    +0.000 F 
ATOM     29  F   UNL     1      -4.692  12.259  25.092  0.00  0.00    +0.000 F 
ATOM     30  F   UNL     1      -4.942  14.208  24.166  0.00  0.00    +0.000 F 
ENDBRANCH  24  27
ENDBRANCH  20  21
ENDBRANCH   4  20
TORSDOF 8
ENDMDL
MODEL 3
REMARK VINA RESULT:      -6.9      5.688      9.531
REMARK  Name = 
REMARK  11 active torsions:
REMARK  status: ('A' for Active; 'I' for Inactive)
REMARK    1  A    between atoms: C_1  and  O_2
REMARK    2  A    between atoms: O_2  and  C_3
REMARK    3  A    between atoms: C_5  and  C_6
REMARK    4  A    between atoms: C_6  and  N_7
REMARK    5  A    between atoms: N_10  and  C_11
REMARK    6  A    between atoms: C_11  and  C_12
REMARK    7  A    between atoms: C_15  and  C_16
REMARK    8  A    between atoms: C_25  and  O_26
REMARK    9  A    between atoms: O_26  and  C_27
REMARK   10  A    between atoms: C_28  and  O_29
REMARK   11  A    between atoms: O_29  and  C_30
REMARK                            x       y       z     vdW  Elec       q    Type
REMARK                         _______ _______ _______ _____ _____    ______ ____
ROOT
ATOM      1  N   UNL     1       2.423   8.420  18.557  0.00  0.00    +0.000 NA
ATOM      2  C   UNL     1       1.974   9.645  17.864  0.00  0.00    +0.000 C 
ATOM      3  C   UNL     1       0.517  10.099  18.150  0.00  0.00    +0.000 C 
ATOM      4  N   UNL     1       0.034  10.033  19.547  0.00  0.00    +0.000 NA
ATOM      5  C   UNL     1       0.589   8.866  20.257  0.00  0.00    +0.000 C 
ATOM      6  C   UNL     1       2.085   8.578  19.989  0.00  0.00    +0.000 C 
ENDROOT
BRANCH   1   7
ATOM      7  C   UNL     1       1.790   7.199  18.021  0.00  0.00    +0.000 C 
BRANCH   7  10
ATOM      8  C   UNL     1       4.588   4.627  18.614  0.00  0.00    +0.000 A 
ATOM      9  C   UNL     1       3.964   5.859  18.368  0.00  0.00    +0.000 A 
ATOM     10  C   UNL     1       2.603   5.918  18.056  0.00  0.00    +0.000 A 
ATOM     11  C   UNL     1       1.913   4.707  17.885  0.00  0.00    +0.000 A 
ATOM     12  C   UNL     1       2.508   3.468  18.155  0.00  0.00    +0.000 A 
ATOM     13  C   UNL     1       3.838   3.425  18.593  0.00  0.00    +0.000 A 
BRANCH   8  15
ATOM     14  C   UNL     1       6.661   5.706  19.066  0.00  0.00    +0.000 C 
ATOM     15  O   UNL     1       5.941   4.508  18.817  0.00  0.00    +0.000 OA
ENDBRANCH   8  15
BRANCH  12  16
ATOM     16  O   UNL     1       1.671   2.416  17.904  0.00  0.00    +0.000 OA
ATOM     17  C   UNL     1       0.691   2.120  18.886  0.00  0.00    +0.000 C 
ENDBRANCH  12  16
BRANCH  13  18
ATOM     18  O   UNL     1       4.418   2.223  18.914  0.00  0.00    +0.000 OA
ATOM     19  C   UNL     1       4.367   1.935  20.318  0.00  0.00    +0.000 C 
ENDBRANCH  13  18
ENDBRANCH   7  10
ENDBRANCH   1   7
BRANCH   4  20
ATOM     20  C   UNL     1       0.245  11.272  20.305  0.00  0.00    +0.000 C 
BRANCH  20  21
ATOM     21  C   UNL     1      -0.923  11.647  21.204  0.00  0.00    +0.000 A 
ATOM     22  C   UNL     1      -0.911  11.342  22.580  0.00  0.00    +0.000 A 
ATOM     23  C   UNL     1      -1.980  11.705  23.397  0.00  0.00    +0.000 A 
ATOM     24  C   UNL     1      -3.079  12.394  22.870  0.00  0.00    +0.000 A 
ATOM     25  C   UNL     1      -3.095  12.698  21.501  0.00  0.00    +0.000 A 
ATOM     26  C   UNL     1      -2.023  12.331  20.680  0.00  0.00    +0.000 A 
BRANCH  24  27
ATOM     27  C   UNL     1      -4.248  12.806  23.736  0.00  0.00    +0.000 C 
ATOM     28  F   UNL     1      -4.069  14.001  24.366  0.00  0.00    +0.000 F 
ATOM     29  F   UNL     1      -5.400  12.933  23.020  0.00  0.00    +0.000 F 
ATOM     30  F   UNL     1      -4.523  11.905  24.721  0.00  0.00    +0.000 F 
ENDBRANCH  24  27
ENDBRANCH  20  21
ENDBRANCH   4  20
TORSDOF 8
ENDMDL
MODEL 4
REMARK VINA RESULT:      -6.8      1.578      3.437
REMARK  Name = 
REMARK  11 active torsions:
REMARK  status: ('A' for Active; 'I' for Inactive)
REMARK    1  A    between atoms: C_1  and  O_2
REMARK    2  A    between atoms: O_2  and  C_3
REMARK    3  A    between atoms: C_5  and  C_6
REMARK    4  A    between atoms: C_6  and  N_7
REMARK    5  A    between atoms: N_10  and  C_11
REMARK    6  A    between atoms: C_11  and  C_12
REMARK    7  A    between atoms: C_15  and  C_16
REMARK    8  A    between atoms: C_25  and  O_26
REMARK    9  A    between atoms: O_26  and  C_27
REMARK   10  A    between atoms: C_28  and  O_29
REMARK   11  A    between atoms: O_29  and  C_30
REMARK                            x       y       z     vdW  Elec       q    Type
REMARK                         _______ _______ _______ _____ _____    ______ ____
ROOT
ATOM      1  N   UNL     1      -1.601  12.291  18.627  0.00  0.00    +0.000 NA
ATOM      2  C   UNL     1      -0.211  12.780  18.521  0.00  0.00    +0.000 C 
ATOM      3  C   UNL     1       0.834  12.079  19.431  0.00  0.00    +0.000 C 
ATOM      4  N   UNL     1       0.763  10.607  19.557  0.00  0.00    +0.000 NA
ATOM      5  C   UNL     1      -0.632  10.128  19.543  0.00  0.00    +0.000 C 
ATOM      6  C   UNL     1      -1.557  10.816  18.511  0.00  0.00    +0.000 C 
ENDROOT
BRANCH   1   7
ATOM      7  C   UNL     1      -2.244  12.677  19.899  0.00  0.00    +0.000 C 
BRANCH   7  10
ATOM      8  C   UNL     1      -5.931  11.927  19.102  0.00  0.00    +0.000 A 
ATOM      9  C   UNL     1      -4.576  12.229  18.899  0.00  0.00    +0.000 A 
ATOM     10  C   UNL     1      -3.757  12.580  19.975  0.00  0.00    +0.000 A 
ATOM     11  C   UNL     1      -4.354  12.731  21.237  0.00  0.00    +0.000 A 
ATOM     12  C   UNL     1      -5.696  12.406  21.467  0.00  0.00    +0.000 A 
ATOM     13  C   UNL     1      -6.481  11.931  20.407  0.00  0.00    +0.000 A 
BRANCH   8  15
ATOM     14  C   UNL     1      -6.986  12.731  17.124  0.00  0.00    +0.000 C 
ATOM     15  O   UNL     1      -6.800  11.685  18.066  0.00  0.00    +0.000 OA
ENDBRANCH   8  15
BRANCH  12  16
ATOM     16  O   UNL     1      -6.082  12.646  22.757  0.00  0.00    +0.000 OA
ATOM     17  C   UNL     1      -5.148  13.300  23.601  0.00  0.00    +0.000 C 
ENDBRANCH  12  16
BRANCH  13  18
ATOM     18  O   UNL     1      -7.782  11.556  20.629  0.00  0.00    +0.000 OA
ATOM     19  C   UNL     1      -7.911  10.179  21.008  0.00  0.00    +0.000 C 
ENDBRANCH  13  18
ENDBRANCH   7  10
ENDBRANCH   1   7
BRANCH   4  20
ATOM     20  C   UNL     1       1.586   9.888  18.578  0.00  0.00    +0.000 C 
BRANCH  20  21
ATOM     21  C   UNL     1       1.878   8.446  18.961  0.00  0.00    +0.000 A 
ATOM     22  C   UNL     1       1.663   7.983  20.274  0.00  0.00    +0.000 A 
ATOM     23  C   UNL     1       1.918   6.654  20.610  0.00  0.00    +0.000 A 
ATOM     24  C   UNL     1       2.381   5.751  19.644  0.00  0.00    +0.000 A 
ATOM     25  C   UNL     1       2.598   6.209  18.336  0.00  0.00    +0.000 A 
ATOM     26  C   UNL     1       2.343   7.543  18.001  0.00  0.00    +0.000 A 
BRANCH  24  27
ATOM     27  C   UNL     1       2.658   4.303  19.980  0.00  0.00    +0.000 C 
ATOM     28  F   UNL     1       2.302   3.956  21.249  0.00  0.00    +0.000 F 
ATOM     29  F   UNL     1       1.988   3.447  19.159  0.00  0.00    +0.000 F 
ATOM     30  F   UNL     1       3.975   3.974  19.861  0.00  0.00    +0.000 F 
ENDBRANCH  24  27
ENDBRANCH  20  21
ENDBRANCH   4  20
TORSDOF 8
ENDMDL
MODEL 5
REMARK VINA RESULT:      -6.8      5.867      9.697
REMARK  Name = 
REMARK  11 active torsions:
REMARK  status: ('A' for Active; 'I' for Inactive)
REMARK    1  A    between atoms: C_1  and  O_2
REMARK    2  A    between atoms: O_2  and  C_3
REMARK    3  A    between atoms: C_5  and  C_6
REMARK    4  A    between atoms: C_6  and  N_7
REMARK    5  A    between atoms: N_10  and  C_11
REMARK    6  A    between atoms: C_11  and  C_12
REMARK    7  A    between atoms: C_15  and  C_16
REMARK    8  A    between atoms: C_25  and  O_26
REMARK    9  A    between atoms: O_26  and  C_27
REMARK   10  A    between atoms: C_28  and  O_29
REMARK   11  A    between atoms: O_29  and  C_30
REMARK                            x       y       z     vdW  Elec       q    Type
REMARK                         _______ _______ _______ _____ _____    ______ ____
ROOT
ATOM      1  N   UNL     1       2.181   8.658  18.935  0.00  0.00    +0.000 NA
ATOM      2  C   UNL     1       1.680   9.733  18.055  0.00  0.00    +0.000 C 
ATOM      3  C   UNL     1       0.181  10.105  18.214  0.00  0.00    +0.000 C 
ATOM      4  N   UNL     1      -0.367  10.198  19.584  0.00  0.00    +0.000 NA
ATOM      5  C   UNL     1       0.234   9.189  20.477  0.00  0.00    +0.000 C 
ATOM      6  C   UNL     1       1.759   8.987  20.314  0.00  0.00    +0.000 C 
ENDROOT
BRANCH   1   7
ATOM      7  C   UNL     1       1.667   7.326  18.555  0.00  0.00    +0.000 C 
BRANCH   7  10
ATOM      8  C   UNL     1       3.311   4.064  17.350  0.00  0.00    +0.000 A 
ATOM      9  C   UNL     1       2.390   4.923  17.969  0.00  0.00    +0.000 A 
ATOM     10  C   UNL     1       2.683   6.280  18.133  0.00  0.00    +0.000 A 
ATOM     11  C   UNL     1       3.962   6.728  17.766  0.00  0.00    +0.000 A 
ATOM     12  C   UNL     1       4.884   5.895  17.120  0.00  0.00    +0.000 A 
ATOM     13  C   UNL     1       4.534   4.567  16.843  0.00  0.00    +0.000 A 
BRANCH   8  15
ATOM     14  C   UNL     1       3.289   1.957  18.457  0.00  0.00    +0.000 C 
ATOM     15  O   UNL     1       3.117   2.707  17.264  0.00  0.00    +0.000 OA
ENDBRANCH   8  15
BRANCH  12  16
ATOM     16  O   UNL     1       6.074   6.521  16.870  0.00  0.00    +0.000 OA
ATOM     17  C   UNL     1       7.102   6.364  17.835  0.00  0.00    +0.000 C 
ENDBRANCH  12  16
BRANCH  13  18
ATOM     18  O   UNL     1       5.405   3.754  16.161  0.00  0.00    +0.000 OA
ATOM     19  C   UNL     1       5.565   4.132  14.787  0.00  0.00    +0.000 C 
ENDBRANCH  13  18
ENDBRANCH   7  10
ENDBRANCH   1   7
BRANCH   4  20
ATOM     20  C   UNL     1      -0.287  11.543  20.165  0.00  0.00    +0.000 C 
BRANCH  20  21
ATOM     21  C   UNL     1      -1.419  11.864  21.128  0.00  0.00    +0.000 A 
ATOM     22  C   UNL     1      -1.303  11.591  22.505  0.00  0.00    +0.000 A 
ATOM     23  C   UNL     1      -2.341  11.905  23.381  0.00  0.00    +0.000 A 
ATOM     24  C   UNL     1      -3.513  12.511  22.911  0.00  0.00    +0.000 A 
ATOM     25  C   UNL     1      -3.632  12.782  21.540  0.00  0.00    +0.000 A 
ATOM     26  C   UNL     1      -2.591  12.465  20.661  0.00  0.00    +0.000 A 
BRANCH  24  27
ATOM     27  C   UNL     1      -4.651  12.868  23.841  0.00  0.00    +0.000 C 
ATOM     28  F   UNL     1      -5.880  12.796  23.257  0.00  0.00    +0.000 F 
ATOM     29  F   UNL     1      -4.706  12.046  24.925  0.00  0.00    +0.000 F 
ATOM     30  F   UNL     1      -4.551  14.132  24.340  0.00  0.00    +0.000 F 
ENDBRANCH  24  27
ENDBRANCH  20  21
ENDBRANCH   4  20
TORSDOF 8
ENDMDL
MODEL 6
REMARK VINA RESULT:      -6.7      1.095      1.297
REMARK  Name = 
REMARK  11 active torsions:
REMARK  status: ('A' for Active; 'I' for Inactive)
REMARK    1  A    between atoms: C_1  and  O_2
REMARK    2  A    between atoms: O_2  and  C_3
REMARK    3  A    between atoms: C_5  and  C_6
REMARK    4  A    between atoms: C_6  and  N_7
REMARK    5  A    between atoms: N_10  and  C_11
REMARK    6  A    between atoms: C_11  and  C_12
REMARK    7  A    between atoms: C_15  and  C_16
REMARK    8  A    between atoms: C_25  and  O_26
REMARK    9  A    between atoms: O_26  and  C_27
REMARK   10  A    between atoms: C_28  and  O_29
REMARK   11  A    between atoms: O_29  and  C_30
REMARK                            x       y       z     vdW  Elec       q    Type
REMARK                         _______ _______ _______ _____ _____    ______ ____
ROOT
ATOM      1  N   UNL     1       0.082  12.081  20.253  0.00  0.00    +0.000 NA
ATOM      2  C   UNL     1      -0.506  10.840  20.796  0.00  0.00    +0.000 C 
ATOM      3  C   UNL     1      -0.356   9.568  19.917  0.00  0.00    +0.000 C 
ATOM      4  N   UNL     1       0.948   9.333  19.260  0.00  0.00    +0.000 NA
ATOM      5  C   UNL     1       1.574  10.597  18.830  0.00  0.00    +0.000 C 
ATOM      6  C   UNL     1       1.467  11.765  19.840  0.00  0.00    +0.000 C 
ENDROOT
BRANCH   1   7
ATOM      7  C   UNL     1      -0.678  12.616  19.106  0.00  0.00    +0.000 C 
BRANCH   7  10
ATOM      8  C   UNL     1      -4.479  12.320  19.613  0.00  0.00    +0.000 A 
ATOM      9  C   UNL     1      -3.123  12.523  19.913  0.00  0.00    +0.000 A 
ATOM     10  C   UNL     1      -2.133  12.205  18.979  0.00  0.00    +0.000 A 
ATOM     11  C   UNL     1      -2.528  11.575  17.787  0.00  0.00    +0.000 A 
ATOM     12  C   UNL     1      -3.876  11.392  17.456  0.00  0.00    +0.000 A 
ATOM     13  C   UNL     1      -4.869  11.831  18.342  0.00  0.00    +0.000 A 
BRANCH   8  15
ATOM     14  C   UNL     1      -5.888  13.853  20.768  0.00  0.00    +0.000 C 
ATOM     15  O   UNL     1      -5.479  12.513  20.534  0.00  0.00    +0.000 OA
ENDBRANCH   8  15
BRANCH  12  16
ATOM     16  O   UNL     1      -4.041  10.741  16.264  0.00  0.00    +0.000 OA
ATOM     17  C   UNL     1      -3.001   9.868  15.854  0.00  0.00    +0.000 C 
ENDBRANCH  12  16
BRANCH  13  18
ATOM     18  O   UNL     1      -6.194  11.708  18.007  0.00  0.00    +0.000 OA
ATOM     19  C   UNL     1      -6.664  12.781  17.180  0.00  0.00    +0.000 C 
ENDBRANCH  13  18
ENDBRANCH   7  10
ENDBRANCH   1   7
BRANCH   4  20
ATOM     20  C   UNL     1       1.874   8.520  20.056  0.00  0.00    +0.000 C 
BRANCH  20  21
ATOM     21  C   UNL     1       1.915   7.056  19.646  0.00  0.00    +0.000 A 
ATOM     22  C   UNL     1       2.320   6.672  18.353  0.00  0.00    +0.000 A 
ATOM     23  C   UNL     1       2.369   5.326  17.993  0.00  0.00    +0.000 A 
ATOM     24  C   UNL     1       2.029   4.329  18.916  0.00  0.00    +0.000 A 
ATOM     25  C   UNL     1       1.623   4.708  20.205  0.00  0.00    +0.000 A 
ATOM     26  C   UNL     1       1.573   6.059  20.564  0.00  0.00    +0.000 A 
BRANCH  24  27
ATOM     27  C   UNL     1       2.081   2.862  18.554  0.00  0.00    +0.000 C 
ATOM     28  F   UNL     1       2.972   2.145  19.295  0.00  0.00    +0.000 F 
ATOM     29  F   UNL     1       0.877   2.248  18.726  0.00  0.00    +0.000 F 
ATOM     30  F   UNL     1       2.423   2.648  17.254  0.00  0.00    +0.000 F 
ENDBRANCH  24  27
ENDBRANCH  20  21
ENDBRANCH   4  20
TORSDOF 8
ENDMDL
MODEL 7
REMARK VINA RESULT:      -6.7      3.624      4.602
REMARK  Name = 
REMARK  11 active torsions:
REMARK  status: ('A' for Active; 'I' for Inactive)
REMARK    1  A    between atoms: C_1  and  O_2
REMARK    2  A    between atoms: O_2  and  C_3
REMARK    3  A    between atoms: C_5  and  C_6
REMARK    4  A    between atoms: C_6  and  N_7
REMARK    5  A    between atoms: N_10  and  C_11
REMARK    6  A    between atoms: C_11  and  C_12
REMARK    7  A    between atoms: C_15  and  C_16
REMARK    8  A    between atoms: C_25  and  O_26
REMARK    9  A    between atoms: O_26  and  C_27
REMARK   10  A    between atoms: C_28  and  O_29
REMARK   11  A    between atoms: O_29  and  C_30
REMARK                            x       y       z     vdW  Elec       q    Type
REMARK                         _______ _______ _______ _____ _____    ______ ____
ROOT
ATOM      1  N   UNL     1      -0.041  11.182  22.227  0.00  0.00    +0.000 NA
ATOM      2  C   UNL     1      -0.146   9.863  22.884  0.00  0.00    +0.000 C 
ATOM      3  C   UNL     1      -0.272   8.636  21.941  0.00  0.00    +0.000 C 
ATOM      4  N   UNL     1       0.585   8.598  20.737  0.00  0.00    +0.000 NA
ATOM      5  C   UNL     1       0.773   9.944  20.163  0.00  0.00    +0.000 C 
ATOM      6  C   UNL     1       1.012  11.074  21.193  0.00  0.00    +0.000 C 
ENDROOT
BRANCH   1   7
ATOM      7  C   UNL     1      -1.311  11.612  21.609  0.00  0.00    +0.000 C 
BRANCH   7  10
ATOM      8  C   UNL     1      -3.822  13.245  24.023  0.00  0.00    +0.000 A 
ATOM      9  C   UNL     1      -3.248  12.292  23.168  0.00  0.00    +0.000 A 
ATOM     10  C   UNL     1      -2.150  12.624  22.369  0.00  0.00    +0.000 A 
ATOM     11  C   UNL     1      -1.717  13.959  22.365  0.00  0.00    +0.000 A 
ATOM     12  C   UNL     1      -2.255  14.918  23.233  0.00  0.00    +0.000 A 
ATOM     13  C   UNL     1      -3.270  14.546  24.124  0.00  0.00    +0.000 A 
BRANCH   8  15
ATOM     14  C   UNL     1      -6.163  12.814  24.005  0.00  0.00    +0.000 C 
ATOM     15  O   UNL     1      -4.965  13.001  24.744  0.00  0.00    +0.000 OA
ENDBRANCH   8  15
BRANCH  12  16
ATOM     16  O   UNL     1      -1.707  16.158  23.052  0.00  0.00    +0.000 OA
ATOM     17  C   UNL     1      -1.897  16.771  21.787  0.00  0.00    +0.000 C 
ENDBRANCH  12  16
BRANCH  13  18
ATOM     18  O   UNL     1      -3.769  15.459  25.018  0.00  0.00    +0.000 OA
ATOM     19  C   UNL     1      -4.748  16.333  24.440  0.00  0.00    +0.000 C 
ENDBRANCH  13  18
ENDBRANCH   7  10
ENDBRANCH   1   7
BRANCH   4  20
ATOM     20  C   UNL     1       1.870   7.920  20.945  0.00  0.00    +0.000 C 
BRANCH  20  21
ATOM     21  C   UNL     1       2.007   6.614  20.178  0.00  0.00    +0.000 A 
ATOM     22  C   UNL     1       1.561   5.396  20.728  0.00  0.00    +0.000 A 
ATOM     23  C   UNL     1       1.678   4.208  20.008  0.00  0.00    +0.000 A 
ATOM     24  C   UNL     1       2.227   4.204  18.720  0.00  0.00    +0.000 A 
ATOM     25  C   UNL     1       2.673   5.416  18.170  0.00  0.00    +0.000 A 
ATOM     26  C   UNL     1       2.558   6.608  18.894  0.00  0.00    +0.000 A 
BRANCH  24  27
ATOM     27  C   UNL     1       2.357   2.931  17.915  0.00  0.00    +0.000 C 
ATOM     28  F   UNL     1       2.370   3.132  16.567  0.00  0.00    +0.000 F 
ATOM     29  F   UNL     1       3.508   2.259  18.200  0.00  0.00    +0.000 F 
ATOM     30  F   UNL     1       1.346   2.049  18.149  0.00  0.00    +0.000 F 
ENDBRANCH  24  27
ENDBRANCH  20  21
ENDBRANCH   4  20
TORSDOF 8
ENDMDL
MODEL 8
REMARK VINA RESULT:      -6.7      5.717      9.616
REMARK  Name = 
REMARK  11 active torsions:
REMARK  status: ('A' for Active; 'I' for Inactive)
REMARK    1  A    between atoms: C_1  and  O_2
REMARK    2  A    between atoms: O_2  and  C_3
REMARK    3  A    between atoms: C_5  and  C_6
REMARK    4  A    between atoms: C_6  and  N_7
REMARK    5  A    between atoms: N_10  and  C_11
REMARK    6  A    between atoms: C_11  and  C_12
REMARK    7  A    between atoms: C_15  and  C_16
REMARK    8  A    between atoms: C_25  and  O_26
REMARK    9  A    between atoms: O_26  and  C_27
REMARK   10  A    between atoms: C_28  and  O_29
REMARK   11  A    between atoms: O_29  and  C_30
REMARK                            x       y       z     vdW  Elec       q    Type
REMARK                         _______ _______ _______ _____ _____    ______ ____
ROOT
ATOM      1  N   UNL     1       2.437   8.135  18.560  0.00  0.00    +0.000 NA
ATOM      2  C   UNL     1       2.076   9.438  17.967  0.00  0.00    +0.000 C 
ATOM      3  C   UNL     1       0.661   9.978  18.307  0.00  0.00    +0.000 C 
ATOM      4  N   UNL     1       0.186   9.845  19.701  0.00  0.00    +0.000 NA
ATOM      5  C   UNL     1       0.657   8.589  20.315  0.00  0.00    +0.000 C 
ATOM      6  C   UNL     1       2.125   8.210  20.005  0.00  0.00    +0.000 C 
ENDROOT
BRANCH   1   7
ATOM      7  C   UNL     1       1.708   7.008  17.945  0.00  0.00    +0.000 C 
BRANCH   7  10
ATOM      8  C   UNL     1       4.258   4.131  17.837  0.00  0.00    +0.000 A 
ATOM      9  C   UNL     1       3.636   5.350  17.528  0.00  0.00    +0.000 A 
ATOM     10  C   UNL     1       2.356   5.638  18.010  0.00  0.00    +0.000 A 
ATOM     11  C   UNL     1       1.674   4.630  18.710  0.00  0.00    +0.000 A 
ATOM     12  C   UNL     1       2.287   3.419  19.055  0.00  0.00    +0.000 A 
ATOM     13  C   UNL     1       3.617   3.189  18.678  0.00  0.00    +0.000 A 
BRANCH   8  15
ATOM     14  C   UNL     1       6.597   4.538  17.656  0.00  0.00    +0.000 C 
ATOM     15  O   UNL     1       5.466   3.758  17.299  0.00  0.00    +0.000 OA
ENDBRANCH   8  15
BRANCH  12  16
ATOM     16  O   UNL     1       1.441   2.570  19.715  0.00  0.00    +0.000 OA
ATOM     17  C   UNL     1       1.214   2.825  21.092  0.00  0.00    +0.000 C 
ENDBRANCH  12  16
BRANCH  13  18
ATOM     18  O   UNL     1       4.249   2.032  19.056  0.00  0.00    +0.000 OA
ATOM     19  C   UNL     1       4.763   2.085  20.393  0.00  0.00    +0.000 C 
ENDBRANCH  13  18
ENDBRANCH   7  10
ENDBRANCH   1   7
BRANCH   4  20
ATOM     20  C   UNL     1       0.497  11.003  20.546  0.00  0.00    +0.000 C 
BRANCH  20  21
ATOM     21  C   UNL     1      -0.685  11.503  21.362  0.00  0.00    +0.000 A 
ATOM     22  C   UNL     1      -1.618  12.406  20.816  0.00  0.00    +0.000 A 
ATOM     23  C   UNL     1      -2.707  12.844  21.568  0.00  0.00    +0.000 A 
ATOM     24  C   UNL     1      -2.900  12.386  22.877  0.00  0.00    +0.000 A 
ATOM     25  C   UNL     1      -1.971  11.488  23.425  0.00  0.00    +0.000 A 
ATOM     26  C   UNL     1      -0.878  11.050  22.670  0.00  0.00    +0.000 A 
BRANCH  24  27
ATOM     27  C   UNL     1      -4.076  12.840  23.712  0.00  0.00    +0.000 C 
ATOM     28  F   UNL     1      -5.284  12.638  23.114  0.00  0.00    +0.000 F 
ATOM     29  F   UNL     1      -4.140  12.189  24.907  0.00  0.00    +0.000 F 
ATOM     30  F   UNL     1      -4.030  14.167  24.016  0.00  0.00    +0.000 F 
ENDBRANCH  24  27
ENDBRANCH  20  21
ENDBRANCH   4  20
TORSDOF 8
ENDMDL
MODEL 9
REMARK VINA RESULT:      -6.7      5.782      9.443
REMARK  Name = 
REMARK  11 active torsions:
REMARK  status: ('A' for Active; 'I' for Inactive)
REMARK    1  A    between atoms: C_1  and  O_2
REMARK    2  A    between atoms: O_2  and  C_3
REMARK    3  A    between atoms: C_5  and  C_6
REMARK    4  A    between atoms: C_6  and  N_7
REMARK    5  A    between atoms: N_10  and  C_11
REMARK    6  A    between atoms: C_11  and  C_12
REMARK    7  A    between atoms: C_15  and  C_16
REMARK    8  A    between atoms: C_25  and  O_26
REMARK    9  A    between atoms: O_26  and  C_27
REMARK   10  A    between atoms: C_28  and  O_29
REMARK   11  A    between atoms: O_29  and  C_30
REMARK                            x       y       z     vdW  Elec       q    Type
REMARK                         _______ _______ _______ _____ _____    ______ ____
ROOT
ATOM      1  N   UNL     1       1.595  10.181  19.674  0.00  0.00    +0.000 NA
ATOM      2  C   UNL     1       1.066  11.445  19.124  0.00  0.00    +0.000 C 
ATOM      3  C   UNL     1      -0.470  11.649  19.231  0.00  0.00    +0.000 C 
ATOM      4  N   UNL     1      -1.133  11.264  20.496  0.00  0.00    +0.000 NA
ATOM      5  C   UNL     1      -0.511  10.066  21.090  0.00  0.00    +0.000 C 
ATOM      6  C   UNL     1       1.035  10.026  21.035  0.00  0.00    +0.000 C 
ENDROOT
BRANCH   1   7
ATOM      7  C   UNL     1       1.243   9.010  18.847  0.00  0.00    +0.000 C 
BRANCH   7  10
ATOM      8  C   UNL     1       2.782   5.592  19.710  0.00  0.00    +0.000 A 
ATOM      9  C   UNL     1       2.053   6.781  19.857  0.00  0.00    +0.000 A 
ATOM     10  C   UNL     1       2.165   7.806  18.913  0.00  0.00    +0.000 A 
ATOM     11  C   UNL     1       3.107   7.654  17.883  0.00  0.00    +0.000 A 
ATOM     12  C   UNL     1       3.822   6.463  17.700  0.00  0.00    +0.000 A 
ATOM     13  C   UNL     1       3.610   5.391  18.578  0.00  0.00    +0.000 A 
BRANCH   8  15
ATOM     14  C   UNL     1       1.548   3.981  20.955  0.00  0.00    +0.000 C 
ATOM     15  O   UNL     1       2.791   4.604  20.664  0.00  0.00    +0.000 OA
ENDBRANCH   8  15
BRANCH  12  16
ATOM     16  O   UNL     1       4.701   6.533  16.655  0.00  0.00    +0.000 OA
ATOM     17  C   UNL     1       6.048   6.853  16.963  0.00  0.00    +0.000 C 
ENDBRANCH  12  16
BRANCH  13  18
ATOM     18  O   UNL     1       4.261   4.200  18.379  0.00  0.00    +0.000 OA
ATOM     19  C   UNL     1       3.554   3.315  17.500  0.00  0.00    +0.000 C 
ENDBRANCH  13  18
ENDBRANCH   7  10
ENDBRANCH   1   7
BRANCH   4  20
ATOM     20  C   UNL     1      -1.228  12.357  21.470  0.00  0.00    +0.000 C 
BRANCH  20  21
ATOM     21  C   UNL     1      -2.635  12.588  21.998  0.00  0.00    +0.000 A 
ATOM     22  C   UNL     1      -3.671  13.019  21.147  0.00  0.00    +0.000 A 
ATOM     23  C   UNL     1      -4.961  13.212  21.639  0.00  0.00    +0.000 A 
ATOM     24  C   UNL     1      -5.255  12.968  22.987  0.00  0.00    +0.000 A 
ATOM     25  C   UNL     1      -4.224  12.540  23.838  0.00  0.00    +0.000 A 
ATOM     26  C   UNL     1      -2.930  12.348  23.343  0.00  0.00    +0.000 A 
BRANCH  24  27
ATOM     27  C   UNL     1      -6.646  13.162  23.544  0.00  0.00    +0.000 C 
ATOM     28  F   UNL     1      -7.627  13.122  22.599  0.00  0.00    +0.000 F 
ATOM     29  F   UNL     1      -6.973  12.204  24.457  0.00  0.00    +0.000 F 
ATOM     30  F   UNL     1      -6.799  14.353  24.187  0.00  0.00    +0.000 F 
ENDBRANCH  24  27
ENDBRANCH  20  21
ENDBRANCH   4  20
TORSDOF 8
ENDMDL
