MODEL 1
REMARK VINA RESULT:      -7.8      0.000      0.000
REMARK  Name = 
REMARK  8 active torsions:
REMARK  status: ('A' for Active; 'I' for Inactive)
REMARK    1  A    between atoms: C_1  and  C_2
REMARK    2  A    between atoms: C_2  and  C_3
REMARK    3  A    between atoms: C_3  and  C_4
REMARK    4  A    between atoms: C_4  and  N_5
REMARK    5  A    between atoms: C_4  and  C_16
REMARK    6  A    between atoms: C_6  and  C_8
REMARK    7  A    between atoms: C_10  and  C_11
REMARK    8  A    between atoms: C_14  and  O_15
REMARK                            x       y       z     vdW  Elec       q    Type
REMARK                         _______ _______ _______ _____ _____    ______ ____
ROOT
ATOM      1  N   UNL     1       5.158   4.630  17.388  0.00  0.00    +0.000 N 
ATOM      2  C   UNL     1       4.920   4.072  18.620  0.00  0.00    +0.000 C 
ATOM      3  O   UNL     1       5.820   3.928  19.445  0.00  0.00    +0.000 OA
ATOM      4  H   UNL     1       4.413   4.571  16.697  0.00  0.00    +0.000 HD
ENDROOT
BRANCH   2   5
ATOM      5  C   UNL     1       3.526   3.607  18.904  0.00  0.00    +0.000 A 
ATOM      6  C   UNL     1       3.196   3.339  20.245  0.00  0.00    +0.000 A 
ATOM      7  C   UNL     1       1.913   2.896  20.602  0.00  0.00    +0.000 A 
ATOM      8  C   UNL     1       1.556   2.637  22.035  0.00  0.00    +0.000 C 
ATOM      9  C   UNL     1       0.954   2.712  19.600  0.00  0.00    +0.000 A 
ATOM     10  C   UNL     1       1.263   2.977  18.266  0.00  0.00    +0.000 A 
ATOM     11  C   UNL     1       2.539   3.430  17.920  0.00  0.00    +0.000 A 
BRANCH  11  12
ATOM     12  O   UNL     1       2.803   3.696  16.601  0.00  0.00    +0.000 OA
ATOM     13  H   UNL     1       3.177   4.593  16.530  0.00  0.00    +0.000 HD
ENDBRANCH  11  12
ENDBRANCH   2   5
BRANCH   1  14
ATOM     14  C   UNL     1       6.451   5.151  16.979  0.00  0.00    +0.000 C 
BRANCH  14  15
ATOM     15  C   UNL     1       6.651   4.861  15.530  0.00  0.00    +0.000 A 
ATOM     16  N   UNL     1       6.045   3.981  14.759  0.00  0.00    +0.000 NA
ATOM     17  N   UNL     1       6.583   4.139  13.504  0.00  0.00    +0.000 NA
ATOM     18  N   UNL     1       7.503   5.092  13.498  0.00  0.00    +0.000 NA
ATOM     19  N   UNL     1       7.546   5.546  14.756  0.00  0.00    +0.000 N 
ATOM     20  H   UNL     1       8.196   6.278  15.029  0.00  0.00    +0.000 HD
ENDBRANCH  14  15
BRANCH  14  21
ATOM     21  C   UNL     1       6.547   6.661  17.261  0.00  0.00    +0.000 C 
BRANCH  21  23
ATOM     22  C   UNL     1       8.122   8.507  17.922  0.00  0.00    +0.000 C 
ATOM     23  C   UNL     1       7.771   7.038  18.100  0.00  0.00    +0.000 C 
ENDBRANCH  21  23
ENDBRANCH  14  21
ENDBRANCH   1  14
TORSDOF 6
ENDMDL
MODEL 2
REMARK VINA RESULT:      -7.7      1.083      1.382
REMARK  Name = 
REMARK  8 active torsions:
REMARK  status: ('A' for Active; 'I' for Inactive)
REMARK    1  A    between atoms: C_1  and  C_2
REMARK    2  A    between atoms: C_2  and  C_3
REMARK    3  A    between atoms: C_3  and  C_4
REMARK    4  A    between atoms: C_4  and  N_5
REMARK    5  A    between atoms: C_4  and  C_16
REMARK    6  A    between atoms: C_6  and  C_8
REMARK    7  A    between atoms: C_10  and  C_11
REMARK    8  A    between atoms: C_14  and  O_15
REMARK                            x       y       z     vdW  Elec       q    Type
REMARK                         _______ _______ _______ _____ _____    ______ ____
ROOT
ATOM      1  N   UNL     1       5.401   4.526  17.202  0.00  0.00    +0.000 N 
ATOM      2  C   UNL     1       5.183   4.120  18.495  0.00  0.00    +0.000 C 
ATOM      3  O   UNL     1       6.066   4.190  19.348  0.00  0.00    +0.000 OA
ATOM      4  H   UNL     1       4.690   4.292  16.512  0.00  0.00    +0.000 HD
ENDROOT
BRANCH   2   5
ATOM      5  C   UNL     1       3.837   3.548  18.816  0.00  0.00    +0.000 A 
ATOM      6  C   UNL     1       2.942   4.366  19.529  0.00  0.00    +0.000 A 
ATOM      7  C   UNL     1       1.661   3.910  19.875  0.00  0.00    +0.000 A 
ATOM      8  C   UNL     1       0.699   4.794  20.612  0.00  0.00    +0.000 C 
ATOM      9  C   UNL     1       1.278   2.616  19.510  0.00  0.00    +0.000 A 
ATOM     10  C   UNL     1       2.151   1.793  18.798  0.00  0.00    +0.000 A 
ATOM     11  C   UNL     1       3.421   2.259  18.447  0.00  0.00    +0.000 A 
BRANCH  11  12
ATOM     12  O   UNL     1       4.248   1.428  17.734  0.00  0.00    +0.000 OA
ATOM     13  H   UNL     1       4.862   0.990  18.351  0.00  0.00    +0.000 HD
ENDBRANCH  11  12
ENDBRANCH   2   5
BRANCH   1  14
ATOM     14  C   UNL     1       6.644   5.126  16.747  0.00  0.00    +0.000 C 
BRANCH  14  15
ATOM     15  C   UNL     1       6.804   4.857  15.289  0.00  0.00    +0.000 A 
ATOM     16  N   UNL     1       7.603   5.431  14.412  0.00  0.00    +0.000 NA
ATOM     17  N   UNL     1       7.375   4.797  13.215  0.00  0.00    +0.000 NA
ATOM     18  N   UNL     1       6.455   3.852  13.345  0.00  0.00    +0.000 NA
ATOM     19  N   UNL     1       6.100   3.885  14.635  0.00  0.00    +0.000 N 
ATOM     20  H   UNL     1       5.381   3.264  14.998  0.00  0.00    +0.000 HD
ENDBRANCH  14  15
BRANCH  14  21
ATOM     21  C   UNL     1       6.662   6.637  17.037  0.00  0.00    +0.000 C 
BRANCH  21  23
ATOM     22  C   UNL     1       8.070   8.542  17.881  0.00  0.00    +0.000 C 
ATOM     23  C   UNL     1       7.788   7.052  17.988  0.00  0.00    +0.000 C 
ENDBRANCH  21  23
ENDBRANCH  14  21
ENDBRANCH   1  14
TORSDOF 6
ENDMDL
MODEL 3
REMARK VINA RESULT:      -7.6      1.693      1.874
REMARK  Name = 
REMARK  8 active torsions:
REMARK  status: ('A' for Active; 'I' for Inactive)
REMARK    1  A    between atoms: C_1  and  C_2
REMARK    2  A    between atoms: C_2  and  C_3
REMARK    3  A    between atoms: C_3  and  C_4
REMARK    4  A    between atoms: C_4  and  N_5
REMARK    5  A    between atoms: C_4  and  C_16
REMARK    6  A    between atoms: C_6  and  C_8
REMARK    7  A    between atoms: C_10  and  C_11
REMARK    8  A    between atoms: C_14  and  O_15
REMARK                            x       y       z     vdW  Elec       q    Type
REMARK                         _______ _______ _______ _____ _____    ______ ____
ROOT
ATOM      1  N   UNL     1       5.480   4.910  18.224  0.00  0.00    +0.000 N 
ATOM      2  C   UNL     1       4.892   3.967  19.032  0.00  0.00    +0.000 C 
ATOM      3  O   UNL     1       5.467   2.919  19.320  0.00  0.00    +0.000 OA
ATOM      4  H   UNL     1       4.892   5.672  17.893  0.00  0.00    +0.000 HD
ENDROOT
BRANCH   2   5
ATOM      5  C   UNL     1       3.503   4.248  19.514  0.00  0.00    +0.000 A 
ATOM      6  C   UNL     1       3.203   5.573  19.877  0.00  0.00    +0.000 A 
ATOM      7  C   UNL     1       1.927   5.927  20.343  0.00  0.00    +0.000 A 
ATOM      8  C   UNL     1       1.602   7.346  20.704  0.00  0.00    +0.000 C 
ATOM      9  C   UNL     1       0.945   4.937  20.454  0.00  0.00    +0.000 A 
ATOM     10  C   UNL     1       1.225   3.618  20.094  0.00  0.00    +0.000 A 
ATOM     11  C   UNL     1       2.494   3.277  19.620  0.00  0.00    +0.000 A 
BRANCH  11  12
ATOM     12  O   UNL     1       2.729   1.974  19.260  0.00  0.00    +0.000 OA
ATOM     13  H   UNL     1       1.937   1.444  19.464  0.00  0.00    +0.000 HD
ENDBRANCH  11  12
ENDBRANCH   2   5
BRANCH   1  14
ATOM     14  C   UNL     1       6.830   4.790  17.703  0.00  0.00    +0.000 C 
BRANCH  14  15
ATOM     15  C   UNL     1       6.762   4.631  16.221  0.00  0.00    +0.000 A 
ATOM     16  N   UNL     1       6.028   3.809  15.498  0.00  0.00    +0.000 NA
ATOM     17  N   UNL     1       6.326   4.085  14.186  0.00  0.00    +0.000 NA
ATOM     18  N   UNL     1       7.226   5.054  14.097  0.00  0.00    +0.000 NA
ATOM     19  N   UNL     1       7.497   5.398  15.362  0.00  0.00    +0.000 N 
ATOM     20  H   UNL     1       8.184   6.116  15.575  0.00  0.00    +0.000 HD
ENDBRANCH  14  15
BRANCH  14  21
ATOM     21  C   UNL     1       7.678   6.014  18.090  0.00  0.00    +0.000 C 
BRANCH  21  23
ATOM     22  C   UNL     1       8.028   8.483  17.763  0.00  0.00    +0.000 C 
ATOM     23  C   UNL     1       7.023   7.344  17.706  0.00  0.00    +0.000 C 
ENDBRANCH  21  23
ENDBRANCH  14  21
ENDBRANCH   1  14
TORSDOF 6
ENDMDL
MODEL 4
REMARK VINA RESULT:      -7.5      2.495      3.689
REMARK  Name = 
REMARK  8 active torsions:
REMARK  status: ('A' for Active; 'I' for Inactive)
REMARK    1  A    between atoms: C_1  and  C_2
REMARK    2  A    between atoms: C_2  and  C_3
REMARK    3  A    between atoms: C_3  and  C_4
REMARK    4  A    between atoms: C_4  and  N_5
REMARK    5  A    between atoms: C_4  and  C_16
REMARK    6  A    between atoms: C_6  and  C_8
REMARK    7  A    between atoms: C_10  and  C_11
REMARK    8  A    between atoms: C_14  and  O_15
REMARK                            x       y       z     vdW  Elec       q    Type
REMARK                         _______ _______ _______ _____ _____    ______ ____
ROOT
ATOM      1  N   UNL     1       4.773   5.184  17.286  0.00  0.00    +0.000 N 
ATOM      2  C   UNL     1       3.777   5.984  17.790  0.00  0.00    +0.000 C 
ATOM      3  O   UNL     1       3.737   7.188  17.549  0.00  0.00    +0.000 OA
ATOM      4  H   UNL     1       4.842   4.237  17.653  0.00  0.00    +0.000 HD
ENDROOT
BRANCH   2   5
ATOM      5  C   UNL     1       2.762   5.336  18.680  0.00  0.00    +0.000 A 
ATOM      6  C   UNL     1       2.281   4.071  18.295  0.00  0.00    +0.000 A 
ATOM      7  C   UNL     1       1.326   3.392  19.067  0.00  0.00    +0.000 A 
ATOM      8  C   UNL     1       0.835   2.033  18.669  0.00  0.00    +0.000 C 
ATOM      9  C   UNL     1       0.844   3.993  20.234  0.00  0.00    +0.000 A 
ATOM     10  C   UNL     1       1.314   5.245  20.634  0.00  0.00    +0.000 A 
ATOM     11  C   UNL     1       2.273   5.909  19.865  0.00  0.00    +0.000 A 
BRANCH  11  12
ATOM     12  O   UNL     1       2.725   7.131  20.296  0.00  0.00    +0.000 OA
ATOM     13  H   UNL     1       3.641   7.033  20.611  0.00  0.00    +0.000 HD
ENDBRANCH  11  12
ENDBRANCH   2   5
BRANCH   1  14
ATOM     14  C   UNL     1       5.809   5.663  16.388  0.00  0.00    +0.000 C 
BRANCH  14  15
ATOM     15  C   UNL     1       6.779   6.487  17.167  0.00  0.00    +0.000 A 
ATOM     16  N   UNL     1       7.563   6.137  18.167  0.00  0.00    +0.000 NA
ATOM     17  N   UNL     1       8.272   7.264  18.507  0.00  0.00    +0.000 NA
ATOM     18  N   UNL     1       7.935   8.289  17.738  0.00  0.00    +0.000 NA
ATOM     19  N   UNL     1       7.008   7.807  16.901  0.00  0.00    +0.000 N 
ATOM     20  H   UNL     1       6.562   8.406  16.211  0.00  0.00    +0.000 HD
ENDBRANCH  14  15
BRANCH  14  21
ATOM     21  C   UNL     1       6.516   4.488  15.690  0.00  0.00    +0.000 C 
BRANCH  21  23
ATOM     22  C   UNL     1       6.267   3.870  13.265  0.00  0.00    +0.000 C 
ATOM     23  C   UNL     1       6.939   4.809  14.254  0.00  0.00    +0.000 C 
ENDBRANCH  21  23
ENDBRANCH  14  21
ENDBRANCH   1  14
TORSDOF 6
ENDMDL
MODEL 5
REMARK VINA RESULT:      -7.5      1.624      1.936
REMARK  Name = 
REMARK  8 active torsions:
REMARK  status: ('A' for Active; 'I' for Inactive)
REMARK    1  A    between atoms: C_1  and  C_2
REMARK    2  A    between atoms: C_2  and  C_3
REMARK    3  A    between atoms: C_3  and  C_4
REMARK    4  A    between atoms: C_4  and  N_5
REMARK    5  A    between atoms: C_4  and  C_16
REMARK    6  A    between atoms: C_6  and  C_8
REMARK    7  A    between atoms: C_10  and  C_11
REMARK    8  A    between atoms: C_14  and  O_15
REMARK                            x       y       z     vdW  Elec       q    Type
REMARK                         _______ _______ _______ _____ _____    ______ ____
ROOT
ATOM      1  N   UNL     1       5.277   5.623  17.851  0.00  0.00    +0.000 N 
ATOM      2  C   UNL     1       5.079   4.719  18.866  0.00  0.00    +0.000 C 
ATOM      3  O   UNL     1       5.990   4.002  19.274  0.00  0.00    +0.000 OA
ATOM      4  H   UNL     1       4.452   6.065  17.451  0.00  0.00    +0.000 HD
ENDROOT
BRANCH   2   5
ATOM      5  C   UNL     1       3.696   4.613  19.428  0.00  0.00    +0.000 A 
ATOM      6  C   UNL     1       3.097   5.797  19.895  0.00  0.00    +0.000 A 
ATOM      7  C   UNL     1       1.805   5.790  20.442  0.00  0.00    +0.000 A 
ATOM      8  C   UNL     1       1.159   7.059  20.914  0.00  0.00    +0.000 C 
ATOM      9  C   UNL     1       1.110   4.580  20.528  0.00  0.00    +0.000 A 
ATOM     10  C   UNL     1       1.686   3.397  20.065  0.00  0.00    +0.000 A 
ATOM     11  C   UNL     1       2.969   3.414  19.511  0.00  0.00    +0.000 A 
BRANCH  11  12
ATOM     12  O   UNL     1       3.499   2.235  19.052  0.00  0.00    +0.000 OA
ATOM     13  H   UNL     1       4.418   2.393  18.770  0.00  0.00    +0.000 HD
ENDBRANCH  11  12
ENDBRANCH   2   5
BRANCH   1  14
ATOM     14  C   UNL     1       6.567   5.857  17.225  0.00  0.00    +0.000 C 
BRANCH  14  15
ATOM     15  C   UNL     1       6.544   5.291  15.845  0.00  0.00    +0.000 A 
ATOM     16  N   UNL     1       7.425   5.414  14.873  0.00  0.00    +0.000 NA
ATOM     17  N   UNL     1       6.937   4.677  13.821  0.00  0.00    +0.000 NA
ATOM     18  N   UNL     1       5.780   4.112  14.133  0.00  0.00    +0.000 NA
ATOM     19  N   UNL     1       5.534   4.489  15.393  0.00  0.00    +0.000 N 
ATOM     20  H   UNL     1       4.683   4.204  15.870  0.00  0.00    +0.000 HD
ENDBRANCH  14  15
BRANCH  14  21
ATOM     21  C   UNL     1       6.900   7.359  17.202  0.00  0.00    +0.000 C 
BRANCH  21  23
ATOM     22  C   UNL     1       8.334   9.226  18.086  0.00  0.00    +0.000 C 
ATOM     23  C   UNL     1       8.069   7.729  18.118  0.00  0.00    +0.000 C 
ENDBRANCH  21  23
ENDBRANCH  14  21
ENDBRANCH   1  14
TORSDOF 6
ENDMDL
MODEL 6
REMARK VINA RESULT:      -7.5      2.963      6.419
REMARK  Name = 
REMARK  8 active torsions:
REMARK  status: ('A' for Active; 'I' for Inactive)
REMARK    1  A    between atoms: C_1  and  C_2
REMARK    2  A    between atoms: C_2  and  C_3
REMARK    3  A    between atoms: C_3  and  C_4
REMARK    4  A    between atoms: C_4  and  N_5
REMARK    5  A    between atoms: C_4  and  C_16
REMARK    6  A    between atoms: C_6  and  C_8
REMARK    7  A    between atoms: C_10  and  C_11
REMARK    8  A    between atoms: C_14  and  O_15
REMARK                            x       y       z     vdW  Elec       q    Type
REMARK                         _______ _______ _______ _____ _____    ______ ____
ROOT
ATOM      1  N   UNL     1       5.232   3.693  16.404  0.00  0.00    +0.000 N 
ATOM      2  C   UNL     1       5.541   4.765  15.603  0.00  0.00    +0.000 C 
ATOM      3  O   UNL     1       5.447   5.920  16.011  0.00  0.00    +0.000 OA
ATOM      4  H   UNL     1       5.173   2.779  15.960  0.00  0.00    +0.000 HD
ENDROOT
BRANCH   2   5
ATOM      5  C   UNL     1       5.957   4.470  14.195  0.00  0.00    +0.000 A 
ATOM      6  C   UNL     1       5.064   3.728  13.401  0.00  0.00    +0.000 A 
ATOM      7  C   UNL     1       5.374   3.403  12.071  0.00  0.00    +0.000 A 
ATOM      8  C   UNL     1       4.409   2.635  11.218  0.00  0.00    +0.000 C 
ATOM      9  C   UNL     1       6.597   3.820  11.537  0.00  0.00    +0.000 A 
ATOM     10  C   UNL     1       7.492   4.561  12.309  0.00  0.00    +0.000 A 
ATOM     11  C   UNL     1       7.171   4.891  13.629  0.00  0.00    +0.000 A 
BRANCH  11  12
ATOM     12  O   UNL     1       8.068   5.634  14.354  0.00  0.00    +0.000 OA
ATOM     13  H   UNL     1       8.953   5.239  14.258  0.00  0.00    +0.000 HD
ENDBRANCH  11  12
ENDBRANCH   2   5
BRANCH   1  14
ATOM     14  C   UNL     1       4.840   3.819  17.797  0.00  0.00    +0.000 C 
BRANCH  14  15
ATOM     15  C   UNL     1       5.961   4.443  18.559  0.00  0.00    +0.000 A 
ATOM     16  N   UNL     1       5.929   5.149  19.672  0.00  0.00    +0.000 NA
ATOM     17  N   UNL     1       7.235   5.464  19.961  0.00  0.00    +0.000 NA
ATOM     18  N   UNL     1       8.058   4.967  19.048  0.00  0.00    +0.000 NA
ATOM     19  N   UNL     1       7.268   4.329  18.176  0.00  0.00    +0.000 N 
ATOM     20  H   UNL     1       7.655   3.872  17.355  0.00  0.00    +0.000 HD
ENDBRANCH  14  15
BRANCH  14  21
ATOM     21  C   UNL     1       3.551   4.649  17.931  0.00  0.00    +0.000 C 
BRANCH  21  23
ATOM     22  C   UNL     1       1.962   2.738  18.316  0.00  0.00    +0.000 C 
ATOM     23  C   UNL     1       2.309   3.914  17.418  0.00  0.00    +0.000 C 
ENDBRANCH  21  23
ENDBRANCH  14  21
ENDBRANCH   1  14
TORSDOF 6
ENDMDL
MODEL 7
REMARK VINA RESULT:      -7.4      1.481      1.754
REMARK  Name = 
REMARK  8 active torsions:
REMARK  status: ('A' for Active; 'I' for Inactive)
REMARK    1  A    between atoms: C_1  and  C_2
REMARK    2  A    between atoms: C_2  and  C_3
REMARK    3  A    between atoms: C_3  and  C_4
REMARK    4  A    between atoms: C_4  and  N_5
REMARK    5  A    between atoms: C_4  and  C_16
REMARK    6  A    between atoms: C_6  and  C_8
REMARK    7  A    between atoms: C_10  and  C_11
REMARK    8  A    between atoms: C_14  and  O_15
REMARK                            x       y       z     vdW  Elec       q    Type
REMARK                         _______ _______ _______ _____ _____    ______ ____
ROOT
ATOM      1  N   UNL     1       5.477   5.470  17.673  0.00  0.00    +0.000 N 
ATOM      2  C   UNL     1       5.310   5.046  18.968  0.00  0.00    +0.000 C 
ATOM      3  O   UNL     1       6.265   4.699  19.659  0.00  0.00    +0.000 OA
ATOM      4  H   UNL     1       4.639   5.586  17.107  0.00  0.00    +0.000 HD
ENDROOT
BRANCH   2   5
ATOM      5  C   UNL     1       3.909   4.983  19.493  0.00  0.00    +0.000 A 
ATOM      6  C   UNL     1       3.567   3.872  20.285  0.00  0.00    +0.000 A 
ATOM      7  C   UNL     1       2.275   3.729  20.815  0.00  0.00    +0.000 A 
ATOM      8  C   UNL     1       1.921   2.558  21.681  0.00  0.00    +0.000 C 
ATOM      9  C   UNL     1       1.316   4.709  20.540  0.00  0.00    +0.000 A 
ATOM     10  C   UNL     1       1.640   5.819  19.761  0.00  0.00    +0.000 A 
ATOM     11  C   UNL     1       2.931   5.960  19.246  0.00  0.00    +0.000 A 
BRANCH  11  12
ATOM     12  O   UNL     1       3.219   7.072  18.497  0.00  0.00    +0.000 OA
ATOM     13  H   UNL     1       3.936   6.855  17.874  0.00  0.00    +0.000 HD
ENDBRANCH  11  12
ENDBRANCH   2   5
BRANCH   1  14
ATOM     14  C   UNL     1       6.775   5.610  17.035  0.00  0.00    +0.000 C 
BRANCH  14  15
ATOM     15  C   UNL     1       6.699   5.044  15.657  0.00  0.00    +0.000 A 
ATOM     16  N   UNL     1       7.412   5.338  14.589  0.00  0.00    +0.000 NA
ATOM     17  N   UNL     1       6.958   4.513  13.588  0.00  0.00    +0.000 NA
ATOM     18  N   UNL     1       5.985   3.727  14.025  0.00  0.00    +0.000 NA
ATOM     19  N   UNL     1       5.823   4.053  15.313  0.00  0.00    +0.000 N 
ATOM     20  H   UNL     1       5.112   3.604  15.883  0.00  0.00    +0.000 HD
ENDBRANCH  14  15
BRANCH  14  21
ATOM     21  C   UNL     1       7.216   7.084  17.005  0.00  0.00    +0.000 C 
BRANCH  21  23
ATOM     22  C   UNL     1       8.347   8.981  18.208  0.00  0.00    +0.000 C 
ATOM     23  C   UNL     1       8.001   7.501  18.252  0.00  0.00    +0.000 C 
ENDBRANCH  21  23
ENDBRANCH  14  21
ENDBRANCH   1  14
TORSDOF 6
ENDMDL
MODEL 8
REMARK VINA RESULT:      -7.3      2.725      3.457
REMARK  Name = 
REMARK  8 active torsions:
REMARK  status: ('A' for Active; 'I' for Inactive)
REMARK    1  A    between atoms: C_1  and  C_2
REMARK    2  A    between atoms: C_2  and  C_3
REMARK    3  A    between atoms: C_3  and  C_4
REMARK    4  A    between atoms: C_4  and  N_5
REMARK    5  A    between atoms: C_4  and  C_16
REMARK    6  A    between atoms: C_6  and  C_8
REMARK    7  A    between atoms: C_10  and  C_11
REMARK    8  A    between atoms: C_14  and  O_15
REMARK                            x       y       z     vdW  Elec       q    Type
REMARK                         _______ _______ _______ _____ _____    ______ ____
ROOT
ATOM      1  N   UNL     1       5.396   5.433  18.010  0.00  0.00    +0.000 N 
ATOM      2  C   UNL     1       4.186   5.008  18.502  0.00  0.00    +0.000 C 
ATOM      3  O   UNL     1       3.877   3.819  18.508  0.00  0.00    +0.000 OA
ATOM      4  H   UNL     1       5.523   6.435  17.883  0.00  0.00    +0.000 HD
ENDROOT
BRANCH   2   5
ATOM      5  C   UNL     1       3.240   6.059  18.994  0.00  0.00    +0.000 A 
ATOM      6  C   UNL     1       3.059   7.194  18.183  0.00  0.00    +0.000 A 
ATOM      7  C   UNL     1       2.194   8.230  18.567  0.00  0.00    +0.000 A 
ATOM      8  C   UNL     1       1.983   9.427  17.688  0.00  0.00    +0.000 C 
ATOM      9  C   UNL     1       1.510   8.129  19.782  0.00  0.00    +0.000 A 
ATOM     10  C   UNL     1       1.673   7.007  20.596  0.00  0.00    +0.000 A 
ATOM     11  C   UNL     1       2.528   5.975  20.201  0.00  0.00    +0.000 A 
BRANCH  11  12
ATOM     12  O   UNL     1       2.652   4.880  21.018  0.00  0.00    +0.000 OA
ATOM     13  H   UNL     1       2.506   5.158  21.940  0.00  0.00    +0.000 HD
ENDBRANCH  11  12
ENDBRANCH   2   5
BRANCH   1  14
ATOM     14  C   UNL     1       6.426   4.531  17.525  0.00  0.00    +0.000 C 
BRANCH  14  15
ATOM     15  C   UNL     1       6.523   4.664  16.042  0.00  0.00    +0.000 A 
ATOM     16  N   UNL     1       7.341   5.400  15.317  0.00  0.00    +0.000 NA
ATOM     17  N   UNL     1       7.029   5.137  14.005  0.00  0.00    +0.000 NA
ATOM     18  N   UNL     1       6.040   4.259  13.918  0.00  0.00    +0.000 NA
ATOM     19  N   UNL     1       5.725   3.960  15.184  0.00  0.00    +0.000 N 
ATOM     20  H   UNL     1       4.970   3.315  15.399  0.00  0.00    +0.000 HD
ENDBRANCH  14  15
BRANCH  14  21
ATOM     21  C   UNL     1       7.778   4.830  18.197  0.00  0.00    +0.000 C 
BRANCH  21  23
ATOM     22  C   UNL     1       8.093   7.323  18.295  0.00  0.00    +0.000 C 
ATOM     23  C   UNL     1       7.743   6.074  19.089  0.00  0.00    +0.000 C 
ENDBRANCH  21  23
ENDBRANCH  14  21
ENDBRANCH   1  14
TORSDOF 6
ENDMDL
MODEL 9
REMARK VINA RESULT:      -7.2      3.603      5.137
REMARK  Name = 
REMARK  8 active torsions:
REMARK  status: ('A' for Active; 'I' for Inactive)
REMARK    1  A    between atoms: C_1  and  C_2
REMARK    2  A    between atoms: C_2  and  C_3
REMARK    3  A    between atoms: C_3  and  C_4
REMARK    4  A    between atoms: C_4  and  N_5
REMARK    5  A    between atoms: C_4  and  C_16
REMARK    6  A    between atoms: C_6  and  C_8
REMARK    7  A    between atoms: C_10  and  C_11
REMARK    8  A    between atoms: C_14  and  O_15
REMARK                            x       y       z     vdW  Elec       q    Type
REMARK                         _______ _______ _______ _____ _____    ______ ____
ROOT
ATOM      1  N   UNL     1       3.436   5.003  17.939  0.00  0.00    +0.000 N 
ATOM      2  C   UNL     1       3.491   6.362  17.748  0.00  0.00    +0.000 C 
ATOM      3  O   UNL     1       4.221   6.863  16.896  0.00  0.00    +0.000 OA
ATOM      4  H   UNL     1       2.941   4.666  18.761  0.00  0.00    +0.000 HD
ENDROOT
BRANCH   2   5
ATOM      5  C   UNL     1       2.653   7.214  18.651  0.00  0.00    +0.000 A 
ATOM      6  C   UNL     1       2.163   8.422  18.124  0.00  0.00    +0.000 A 
ATOM      7  C   UNL     1       1.372   9.284  18.900  0.00  0.00    +0.000 A 
ATOM      8  C   UNL     1       0.828  10.559  18.328  0.00  0.00    +0.000 C 
ATOM      9  C   UNL     1       1.079   8.933  20.222  0.00  0.00    +0.000 A 
ATOM     10  C   UNL     1       1.554   7.736  20.758  0.00  0.00    +0.000 A 
ATOM     11  C   UNL     1       2.330   6.877  19.975  0.00  0.00    +0.000 A 
BRANCH  11  12
ATOM     12  O   UNL     1       2.766   5.701  20.530  0.00  0.00    +0.000 OA
ATOM     13  H   UNL     1       2.104   5.008  20.358  0.00  0.00    +0.000 HD
ENDBRANCH  11  12
ENDBRANCH   2   5
BRANCH   1  14
ATOM     14  C   UNL     1       4.169   4.049  17.124  0.00  0.00    +0.000 C 
BRANCH  14  15
ATOM     15  C   UNL     1       5.631   4.254  17.340  0.00  0.00    +0.000 A 
ATOM     16  N   UNL     1       6.583   4.496  16.461  0.00  0.00    +0.000 NA
ATOM     17  N   UNL     1       7.745   4.627  17.183  0.00  0.00    +0.000 NA
ATOM     18  N   UNL     1       7.519   4.469  18.479  0.00  0.00    +0.000 NA
ATOM     19  N   UNL     1       6.204   4.240  18.580  0.00  0.00    +0.000 N 
ATOM     20  H   UNL     1       5.771   4.061  19.482  0.00  0.00    +0.000 HD
ENDBRANCH  14  15
BRANCH  14  21
ATOM     21  C   UNL     1       3.757   2.606  17.465  0.00  0.00    +0.000 C 
BRANCH  21  23
ATOM     22  C   UNL     1       2.083   2.030  19.252  0.00  0.00    +0.000 C 
ATOM     23  C   UNL     1       2.271   2.472  17.809  0.00  0.00    +0.000 C 
ENDBRANCH  21  23
ENDBRANCH  14  21
ENDBRANCH   1  14
TORSDOF 6
ENDMDL
