MODEL 1
REMARK VINA RESULT:      -8.4      0.000      0.000
REMARK  Name = 
REMARK  8 active torsions:
REMARK  status: ('A' for Active; 'I' for Inactive)
REMARK    1  A    between atoms: C_1  and  O_2
REMARK    2  A    between atoms: O_2  and  C_3
REMARK    3  A    between atoms: C_7  and  C_8
REMARK    4  A    between atoms: C_9  and  C_10
REMARK    5  A    between atoms: C_10  and  C_12
REMARK    6  A    between atoms: C_16  and  O_17
REMARK    7  A    between atoms: C_24  and  O_25
REMARK    8  A    between atoms: O_25  and  C_26
REMARK                            x       y       z     vdW  Elec       q    Type
REMARK                         _______ _______ _______ _____ _____    ______ ____
ROOT
ATOM      1  C   UNL     1       5.519   4.875  18.380  0.00  0.00    +0.000 C 
ATOM      2  O   UNL     1       5.932   3.991  19.130  0.00  0.00    +0.000 OA
ENDROOT
BRANCH   1   3
ATOM      3  C   UNL     1       5.994   4.976  16.950  0.00  0.00    +0.000 A 
ATOM      4  C   UNL     1       5.500   4.083  16.069  0.00  0.00    +0.000 A 
ATOM      5  C   UNL     1       5.939   4.114  14.675  0.00  0.00    +0.000 A 
ATOM      6  C   UNL     1       5.295   3.414  13.655  0.00  0.00    +0.000 A 
ATOM      7  C   UNL     1       5.817   3.466  12.359  0.00  0.00    +0.000 A 
ATOM      8  C   UNL     1       6.980   4.172  12.071  0.00  0.00    +0.000 A 
ATOM      9  C   UNL     1       7.628   4.872  13.090  0.00  0.00    +0.000 A 
ATOM     10  C   UNL     1       7.079   4.853  14.368  0.00  0.00    +0.000 A 
ATOM     11  O   UNL     1       7.686   5.663  15.333  0.00  0.00    +0.000 OA
ATOM     12  C   UNL     1       6.916   6.018  16.438  0.00  0.00    +0.000 A 
ATOM     13  O   UNL     1       7.056   7.124  16.951  0.00  0.00    +0.000 OA
BRANCH   7  14
ATOM     14  O   UNL     1       5.204   2.829  11.319  0.00  0.00    +0.000 OA
ATOM     15  H   UNL     1       5.846   2.252  10.875  0.00  0.00    +0.000 HD
ENDBRANCH   7  14
ENDBRANCH   1   3
BRANCH   1  17
ATOM     16  C   UNL     1       3.502   6.356  18.138  0.00  0.00    +0.000 C 
ATOM     17  C   UNL     1       4.534   5.888  18.857  0.00  0.00    +0.000 C 
BRANCH  16  22
ATOM     18  C   UNL     1       1.117   8.530  20.189  0.00  0.00    +0.000 A 
ATOM     19  C   UNL     1       0.984   9.626  19.320  0.00  0.00    +0.000 A 
ATOM     20  C   UNL     1       1.604   9.628  18.082  0.00  0.00    +0.000 A 
ATOM     21  C   UNL     1       2.400   8.550  17.717  0.00  0.00    +0.000 A 
ATOM     22  C   UNL     1       2.655   7.487  18.610  0.00  0.00    +0.000 A 
ATOM     23  C   UNL     1       2.018   7.486  19.878  0.00  0.00    +0.000 A 
BRANCH  18  25
ATOM     24  C   UNL     1       0.832   9.225  22.430  0.00  0.00    +0.000 C 
ATOM     25  O   UNL     1       0.338   8.465  21.319  0.00  0.00    +0.000 OA
ENDBRANCH  18  25
BRANCH  23  26
ATOM     26  O   UNL     1       2.309   6.390  20.656  0.00  0.00    +0.000 OA
ATOM     27  C   UNL     1       1.402   5.299  20.710  0.00  0.00    +0.000 C 
ENDBRANCH  23  26
ENDBRANCH  16  22
ENDBRANCH   1  17
TORSDOF 6
ENDMDL
MODEL 2
REMARK VINA RESULT:      -8.1      4.867      7.297
REMARK  Name = 
REMARK  8 active torsions:
REMARK  status: ('A' for Active; 'I' for Inactive)
REMARK    1  A    between atoms: C_1  and  O_2
REMARK    2  A    between atoms: O_2  and  C_3
REMARK    3  A    between atoms: C_7  and  C_8
REMARK    4  A    between atoms: C_9  and  C_10
REMARK    5  A    between atoms: C_10  and  C_12
REMARK    6  A    between atoms: C_16  and  O_17
REMARK    7  A    between atoms: C_24  and  O_25
REMARK    8  A    between atoms: O_25  and  C_26
REMARK                            x       y       z     vdW  Elec       q    Type
REMARK                         _______ _______ _______ _____ _____    ______ ____
ROOT
ATOM      1  C   UNL     1       7.659   7.325  17.367  0.00  0.00    +0.000 C 
ATOM      2  O   UNL     1       8.029   7.183  16.202  0.00  0.00    +0.000 OA
ENDROOT
BRANCH   1   3
ATOM      3  C   UNL     1       6.668   6.375  17.997  0.00  0.00    +0.000 A 
ATOM      4  C   UNL     1       5.425   6.343  17.478  0.00  0.00    +0.000 A 
ATOM      5  C   UNL     1       4.413   5.462  18.059  0.00  0.00    +0.000 A 
ATOM      6  C   UNL     1       3.202   5.171  17.433  0.00  0.00    +0.000 A 
ATOM      7  C   UNL     1       2.275   4.356  18.089  0.00  0.00    +0.000 A 
ATOM      8  C   UNL     1       2.521   3.854  19.363  0.00  0.00    +0.000 A 
ATOM      9  C   UNL     1       3.732   4.145  19.993  0.00  0.00    +0.000 A 
ATOM     10  C   UNL     1       4.668   4.920  19.317  0.00  0.00    +0.000 A 
ATOM     11  O   UNL     1       5.915   5.088  19.928  0.00  0.00    +0.000 OA
ATOM     12  C   UNL     1       6.981   5.440  19.104  0.00  0.00    +0.000 A 
ATOM     13  O   UNL     1       8.106   5.011  19.343  0.00  0.00    +0.000 OA
BRANCH   7  14
ATOM     14  O   UNL     1       1.091   4.012  17.504  0.00  0.00    +0.000 OA
ATOM     15  H   UNL     1       0.823   4.714  16.890  0.00  0.00    +0.000 HD
ENDBRANCH   7  14
ENDBRANCH   1   3
BRANCH   1  17
ATOM     16  C   UNL     1       8.229   9.731  17.819  0.00  0.00    +0.000 C 
ATOM     17  C   UNL     1       8.173   8.447  18.204  0.00  0.00    +0.000 C 
BRANCH  16  22
ATOM     18  C   UNL     1       9.662  13.059  19.042  0.00  0.00    +0.000 A 
ATOM     19  C   UNL     1      10.334  12.621  20.196  0.00  0.00    +0.000 A 
ATOM     20  C   UNL     1      10.367  11.278  20.530  0.00  0.00    +0.000 A 
ATOM     21  C   UNL     1       9.692  10.362  19.735  0.00  0.00    +0.000 A 
ATOM     22  C   UNL     1       8.907  10.776  18.638  0.00  0.00    +0.000 A 
ATOM     23  C   UNL     1       8.874  12.153  18.296  0.00  0.00    +0.000 A 
BRANCH  18  25
ATOM     24  C   UNL     1      10.875  14.574  17.693  0.00  0.00    +0.000 C 
ATOM     25  O   UNL     1       9.809  14.361  18.627  0.00  0.00    +0.000 OA
ENDBRANCH  18  25
BRANCH  23  26
ATOM     26  O   UNL     1       8.106  12.444  17.193  0.00  0.00    +0.000 OA
ATOM     27  C   UNL     1       7.067  13.406  17.288  0.00  0.00    +0.000 C 
ENDBRANCH  23  26
ENDBRANCH  16  22
ENDBRANCH   1  17
TORSDOF 6
ENDMDL
MODEL 3
REMARK VINA RESULT:      -8.0      2.400      4.429
REMARK  Name = 
REMARK  8 active torsions:
REMARK  status: ('A' for Active; 'I' for Inactive)
REMARK    1  A    between atoms: C_1  and  O_2
REMARK    2  A    between atoms: O_2  and  C_3
REMARK    3  A    between atoms: C_7  and  C_8
REMARK    4  A    between atoms: C_9  and  C_10
REMARK    5  A    between atoms: C_10  and  C_12
REMARK    6  A    between atoms: C_16  and  O_17
REMARK    7  A    between atoms: C_24  and  O_25
REMARK    8  A    between atoms: O_25  and  C_26
REMARK                            x       y       z     vdW  Elec       q    Type
REMARK                         _______ _______ _______ _____ _____    ______ ____
ROOT
ATOM      1  C   UNL     1       1.942   4.776  20.693  0.00  0.00    +0.000 C 
ATOM      2  O   UNL     1       1.892   3.946  21.599  0.00  0.00    +0.000 OA
ENDROOT
BRANCH   1   3
ATOM      3  C   UNL     1       2.732   4.515  19.432  0.00  0.00    +0.000 A 
ATOM      4  C   UNL     1       4.056   4.761  19.469  0.00  0.00    +0.000 A 
ATOM      5  C   UNL     1       4.871   4.551  18.274  0.00  0.00    +0.000 A 
ATOM      6  C   UNL     1       6.265   4.525  18.293  0.00  0.00    +0.000 A 
ATOM      7  C   UNL     1       6.960   4.366  17.090  0.00  0.00    +0.000 A 
ATOM      8  C   UNL     1       6.295   4.265  15.873  0.00  0.00    +0.000 A 
ATOM      9  C   UNL     1       4.899   4.293  15.850  0.00  0.00    +0.000 A 
ATOM     10  C   UNL     1       4.213   4.406  17.055  0.00  0.00    +0.000 A 
ATOM     11  O   UNL     1       2.818   4.308  17.003  0.00  0.00    +0.000 OA
ATOM     12  C   UNL     1       2.165   3.956  18.182  0.00  0.00    +0.000 A 
ATOM     13  O   UNL     1       1.157   3.257  18.137  0.00  0.00    +0.000 OA
BRANCH   7  14
ATOM     14  O   UNL     1       8.323   4.297  17.060  0.00  0.00    +0.000 OA
ATOM     15  H   UNL     1       8.620   4.261  16.137  0.00  0.00    +0.000 HD
ENDBRANCH   7  14
ENDBRANCH   1   3
BRANCH   1  17
ATOM     16  C   UNL     1       1.764   7.278  20.533  0.00  0.00    +0.000 C 
ATOM     17  C   UNL     1       1.227   6.080  20.806  0.00  0.00    +0.000 C 
BRANCH  16  22
ATOM     18  C   UNL     1       0.183  10.744  20.196  0.00  0.00    +0.000 A 
ATOM     19  C   UNL     1      -0.184  10.971  21.534  0.00  0.00    +0.000 A 
ATOM     20  C   UNL     1       0.127  10.050  22.521  0.00  0.00    +0.000 A 
ATOM     21  C   UNL     1       0.773   8.872  22.172  0.00  0.00    +0.000 A 
ATOM     22  C   UNL     1       1.049   8.553  20.826  0.00  0.00    +0.000 A 
ATOM     23  C   UNL     1       0.731   9.497  19.815  0.00  0.00    +0.000 A 
BRANCH  18  25
ATOM     24  C   UNL     1       0.910  12.875  19.478  0.00  0.00    +0.000 C 
ATOM     25  O   UNL     1       0.040  11.754  19.276  0.00  0.00    +0.000 OA
ENDBRANCH  18  25
BRANCH  23  26
ATOM     26  O   UNL     1       1.070   9.102  18.543  0.00  0.00    +0.000 OA
ATOM     27  C   UNL     1       2.183   9.697  17.890  0.00  0.00    +0.000 C 
ENDBRANCH  23  26
ENDBRANCH  16  22
ENDBRANCH   1  17
TORSDOF 6
ENDMDL
MODEL 4
REMARK VINA RESULT:      -8.0      2.388      9.485
REMARK  Name = 
REMARK  8 active torsions:
REMARK  status: ('A' for Active; 'I' for Inactive)
REMARK    1  A    between atoms: C_1  and  O_2
REMARK    2  A    between atoms: O_2  and  C_3
REMARK    3  A    between atoms: C_7  and  C_8
REMARK    4  A    between atoms: C_9  and  C_10
REMARK    5  A    between atoms: C_10  and  C_12
REMARK    6  A    between atoms: C_16  and  O_17
REMARK    7  A    between atoms: C_24  and  O_25
REMARK    8  A    between atoms: O_25  and  C_26
REMARK                            x       y       z     vdW  Elec       q    Type
REMARK                         _______ _______ _______ _____ _____    ______ ____
ROOT
ATOM      1  C   UNL     1       1.816   9.243  18.281  0.00  0.00    +0.000 C 
ATOM      2  O   UNL     1       2.064  10.099  17.433  0.00  0.00    +0.000 OA
ENDROOT
BRANCH   1   3
ATOM      3  C   UNL     1       1.018   9.574  19.520  0.00  0.00    +0.000 A 
ATOM      4  C   UNL     1       0.190  10.635  19.459  0.00  0.00    +0.000 A 
ATOM      5  C   UNL     1      -0.592  11.021  20.632  0.00  0.00    +0.000 A 
ATOM      6  C   UNL     1      -1.652  11.925  20.581  0.00  0.00    +0.000 A 
ATOM      7  C   UNL     1      -2.311  12.269  21.766  0.00  0.00    +0.000 A 
ATOM      8  C   UNL     1      -1.912  11.755  22.996  0.00  0.00    +0.000 A 
ATOM      9  C   UNL     1      -0.850  10.851  23.050  0.00  0.00    +0.000 A 
ATOM     10  C   UNL     1      -0.228  10.479  21.863  0.00  0.00    +0.000 A 
ATOM     11  O   UNL     1       0.749   9.481  21.943  0.00  0.00    +0.000 OA
ATOM     12  C   UNL     1       1.038   8.782  20.774  0.00  0.00    +0.000 A 
ATOM     13  O   UNL     1       1.329   7.591  20.829  0.00  0.00    +0.000 OA
BRANCH   7  14
ATOM     14  O   UNL     1      -3.377  13.120  21.765  0.00  0.00    +0.000 OA
ATOM     15  H   UNL     1      -3.062  14.026  21.613  0.00  0.00    +0.000 HD
ENDBRANCH   7  14
ENDBRANCH   1   3
BRANCH   1  17
ATOM     16  C   UNL     1       3.554   7.493  17.799  0.00  0.00    +0.000 C 
ATOM     17  C   UNL     1       2.299   7.841  18.121  0.00  0.00    +0.000 C 
BRANCH  16  22
ATOM     18  C   UNL     1       5.358   4.402  16.451  0.00  0.00    +0.000 A 
ATOM     19  C   UNL     1       4.458   3.402  16.858  0.00  0.00    +0.000 A 
ATOM     20  C   UNL     1       3.275   3.731  17.498  0.00  0.00    +0.000 A 
ATOM     21  C   UNL     1       2.999   5.064  17.775  0.00  0.00    +0.000 A 
ATOM     22  C   UNL     1       3.932   6.084  17.491  0.00  0.00    +0.000 A 
ATOM     23  C   UNL     1       5.144   5.746  16.835  0.00  0.00    +0.000 A 
BRANCH  18  25
ATOM     24  C   UNL     1       6.146   4.104  14.242  0.00  0.00    +0.000 C 
ATOM     25  O   UNL     1       6.422   4.067  15.649  0.00  0.00    +0.000 OA
ENDBRANCH  18  25
BRANCH  23  26
ATOM     26  O   UNL     1       5.965   6.817  16.577  0.00  0.00    +0.000 OA
ATOM     27  C   UNL     1       7.156   6.994  17.330  0.00  0.00    +0.000 C 
ENDBRANCH  23  26
ENDBRANCH  16  22
ENDBRANCH   1  17
TORSDOF 6
ENDMDL
MODEL 5
REMARK VINA RESULT:      -8.0      3.772      8.836
REMARK  Name = 
REMARK  8 active torsions:
REMARK  status: ('A' for Active; 'I' for Inactive)
REMARK    1  A    between atoms: C_1  and  O_2
REMARK    2  A    between atoms: O_2  and  C_3
REMARK    3  A    between atoms: C_7  and  C_8
REMARK    4  A    between atoms: C_9  and  C_10
REMARK    5  A    between atoms: C_10  and  C_12
REMARK    6  A    between atoms: C_16  and  O_17
REMARK    7  A    between atoms: C_24  and  O_25
REMARK    8  A    between atoms: O_25  and  C_26
REMARK                            x       y       z     vdW  Elec       q    Type
REMARK                         _______ _______ _______ _____ _____    ______ ____
ROOT
ATOM      1  C   UNL     1       1.727   9.133  18.125  0.00  0.00    +0.000 C 
ATOM      2  O   UNL     1       2.562   9.707  17.427  0.00  0.00    +0.000 OA
ENDROOT
BRANCH   1   3
ATOM      3  C   UNL     1       0.468   9.833  18.578  0.00  0.00    +0.000 A 
ATOM      4  C   UNL     1      -0.578   9.838  17.727  0.00  0.00    +0.000 A 
ATOM      5  C   UNL     1      -1.817  10.518  18.097  0.00  0.00    +0.000 A 
ATOM      6  C   UNL     1      -3.017  10.351  17.408  0.00  0.00    +0.000 A 
ATOM      7  C   UNL     1      -4.140  11.083  17.807  0.00  0.00    +0.000 A 
ATOM      8  C   UNL     1      -4.079  11.995  18.855  0.00  0.00    +0.000 A 
ATOM      9  C   UNL     1      -2.878  12.166  19.546  0.00  0.00    +0.000 A 
ATOM     10  C   UNL     1      -1.777  11.403  19.173  0.00  0.00    +0.000 A 
ATOM     11  O   UNL     1      -0.629  11.512  19.966  0.00  0.00    +0.000 OA
ATOM     12  C   UNL     1       0.283  10.461  19.908  0.00  0.00    +0.000 A 
ATOM     13  O   UNL     1       0.906  10.136  20.914  0.00  0.00    +0.000 OA
BRANCH   7  14
ATOM     14  O   UNL     1      -5.346  10.929  17.188  0.00  0.00    +0.000 OA
ATOM     15  H   UNL     1      -5.232  11.047  16.231  0.00  0.00    +0.000 HD
ENDBRANCH   7  14
ENDBRANCH   1   3
BRANCH   1  17
ATOM     16  C   UNL     1       2.710   6.828  17.930  0.00  0.00    +0.000 C 
ATOM     17  C   UNL     1       1.930   7.720  18.558  0.00  0.00    +0.000 C 
BRANCH  16  22
ATOM     18  C   UNL     1       3.841   3.410  19.219  0.00  0.00    +0.000 A 
ATOM     19  C   UNL     1       2.721   2.638  18.868  0.00  0.00    +0.000 A 
ATOM     20  C   UNL     1       1.659   3.202  18.180  0.00  0.00    +0.000 A 
ATOM     21  C   UNL     1       1.688   4.556  17.875  0.00  0.00    +0.000 A 
ATOM     22  C   UNL     1       2.739   5.389  18.316  0.00  0.00    +0.000 A 
ATOM     23  C   UNL     1       3.827   4.809  19.019  0.00  0.00    +0.000 A 
BRANCH  18  25
ATOM     24  C   UNL     1       4.688   1.712  20.628  0.00  0.00    +0.000 C 
ATOM     25  O   UNL     1       4.959   2.788  19.721  0.00  0.00    +0.000 OA
ENDBRANCH  18  25
BRANCH  23  26
ATOM     26  O   UNL     1       4.810   5.702  19.374  0.00  0.00    +0.000 OA
ATOM     27  C   UNL     1       6.086   5.633  18.754  0.00  0.00    +0.000 C 
ENDBRANCH  23  26
ENDBRANCH  16  22
ENDBRANCH   1  17
TORSDOF 6
ENDMDL
MODEL 6
REMARK VINA RESULT:      -7.9      4.111      6.510
REMARK  Name = 
REMARK  8 active torsions:
REMARK  status: ('A' for Active; 'I' for Inactive)
REMARK    1  A    between atoms: C_1  and  O_2
REMARK    2  A    between atoms: O_2  and  C_3
REMARK    3  A    between atoms: C_7  and  C_8
REMARK    4  A    between atoms: C_9  and  C_10
REMARK    5  A    between atoms: C_10  and  C_12
REMARK    6  A    between atoms: C_16  and  O_17
REMARK    7  A    between atoms: C_24  and  O_25
REMARK    8  A    between atoms: O_25  and  C_26
REMARK                            x       y       z     vdW  Elec       q    Type
REMARK                         _______ _______ _______ _____ _____    ______ ____
ROOT
ATOM      1  C   UNL     1       2.178   8.545  18.052  0.00  0.00    +0.000 C 
ATOM      2  O   UNL     1       3.176   9.069  17.559  0.00  0.00    +0.000 OA
ENDROOT
BRANCH   1   3
ATOM      3  C   UNL     1       2.290   7.348  18.966  0.00  0.00    +0.000 A 
ATOM      4  C   UNL     1       2.970   6.279  18.507  0.00  0.00    +0.000 A 
ATOM      5  C   UNL     1       3.094   5.081  19.334  0.00  0.00    +0.000 A 
ATOM      6  C   UNL     1       3.988   4.047  19.055  0.00  0.00    +0.000 A 
ATOM      7  C   UNL     1       4.000   2.917  19.879  0.00  0.00    +0.000 A 
ATOM      8  C   UNL     1       3.122   2.787  20.949  0.00  0.00    +0.000 A 
ATOM      9  C   UNL     1       2.225   3.820  21.230  0.00  0.00    +0.000 A 
ATOM     10  C   UNL     1       2.248   4.960  20.435  0.00  0.00    +0.000 A 
ATOM     11  O   UNL     1       1.422   6.021  20.820  0.00  0.00    +0.000 OA
ATOM     12  C   UNL     1       1.756   7.288  20.348  0.00  0.00    +0.000 A 
ATOM     13  O   UNL     1       1.564   8.274  21.054  0.00  0.00    +0.000 OA
BRANCH   7  14
ATOM     14  O   UNL     1       4.880   1.895  19.670  0.00  0.00    +0.000 OA
ATOM     15  H   UNL     1       5.473   1.824  20.436  0.00  0.00    +0.000 HD
ENDBRANCH   7  14
ENDBRANCH   1   3
BRANCH   1  17
ATOM     16  C   UNL     1       0.281  10.175  18.309  0.00  0.00    +0.000 C 
ATOM     17  C   UNL     1       0.812   9.071  17.763  0.00  0.00    +0.000 C 
BRANCH  16  22
ATOM     18  C   UNL     1      -3.204  11.679  18.770  0.00  0.00    +0.000 A 
ATOM     19  C   UNL     1      -3.870  11.077  17.690  0.00  0.00    +0.000 A 
ATOM     20  C   UNL     1      -3.220  10.165  16.875  0.00  0.00    +0.000 A 
ATOM     21  C   UNL     1      -1.881   9.879  17.108  0.00  0.00    +0.000 A 
ATOM     22  C   UNL     1      -1.146  10.553  18.105  0.00  0.00    +0.000 A 
ATOM     23  C   UNL     1      -1.814  11.486  18.940  0.00  0.00    +0.000 A 
BRANCH  18  25
ATOM     24  C   UNL     1      -5.301  12.610  19.337  0.00  0.00    +0.000 C 
ATOM     25  O   UNL     1      -3.921  12.423  19.676  0.00  0.00    +0.000 OA
ENDBRANCH  18  25
BRANCH  23  26
ATOM     26  O   UNL     1      -1.014  12.061  19.899  0.00  0.00    +0.000 OA
ATOM     27  C   UNL     1      -1.017  11.549  21.224  0.00  0.00    +0.000 C 
ENDBRANCH  23  26
ENDBRANCH  16  22
ENDBRANCH   1  17
TORSDOF 6
ENDMDL
MODEL 7
REMARK VINA RESULT:      -7.9      1.666      7.837
REMARK  Name = 
REMARK  8 active torsions:
REMARK  status: ('A' for Active; 'I' for Inactive)
REMARK    1  A    between atoms: C_1  and  O_2
REMARK    2  A    between atoms: O_2  and  C_3
REMARK    3  A    between atoms: C_7  and  C_8
REMARK    4  A    between atoms: C_9  and  C_10
REMARK    5  A    between atoms: C_10  and  C_12
REMARK    6  A    between atoms: C_16  and  O_17
REMARK    7  A    between atoms: C_24  and  O_25
REMARK    8  A    between atoms: O_25  and  C_26
REMARK                            x       y       z     vdW  Elec       q    Type
REMARK                         _______ _______ _______ _____ _____    ______ ____
ROOT
ATOM      1  C   UNL     1       3.090   3.446  18.404  0.00  0.00    +0.000 C 
ATOM      2  O   UNL     1       2.941   2.406  19.043  0.00  0.00    +0.000 OA
ENDROOT
BRANCH   1   3
ATOM      3  C   UNL     1       2.517   4.756  18.891  0.00  0.00    +0.000 A 
ATOM      4  C   UNL     1       2.794   5.860  18.168  0.00  0.00    +0.000 A 
ATOM      5  C   UNL     1       2.288   7.161  18.600  0.00  0.00    +0.000 A 
ATOM      6  C   UNL     1       2.299   8.294  17.788  0.00  0.00    +0.000 A 
ATOM      7  C   UNL     1       1.838   9.509  18.306  0.00  0.00    +0.000 A 
ATOM      8  C   UNL     1       1.398   9.618  19.621  0.00  0.00    +0.000 A 
ATOM      9  C   UNL     1       1.388   8.486  20.437  0.00  0.00    +0.000 A 
ATOM     10  C   UNL     1       1.806   7.272  19.902  0.00  0.00    +0.000 A 
ATOM     11  O   UNL     1       1.666   6.139  20.711  0.00  0.00    +0.000 OA
ATOM     12  C   UNL     1       1.631   4.904  20.070  0.00  0.00    +0.000 A 
ATOM     13  O   UNL     1       0.923   4.004  20.514  0.00  0.00    +0.000 OA
BRANCH   7  14
ATOM     14  O   UNL     1       1.793  10.637  17.540  0.00  0.00    +0.000 OA
ATOM     15  H   UNL     1       0.876  10.802  17.269  0.00  0.00    +0.000 HD
ENDBRANCH   7  14
ENDBRANCH   1   3
BRANCH   1  17
ATOM     16  C   UNL     1       5.092   3.918  16.958  0.00  0.00    +0.000 C 
ATOM     17  C   UNL     1       3.843   3.454  17.116  0.00  0.00    +0.000 C 
BRANCH  16  22
ATOM     18  C   UNL     1       7.398   4.955  14.090  0.00  0.00    +0.000 A 
ATOM     19  C   UNL     1       6.738   4.335  13.015  0.00  0.00    +0.000 A 
ATOM     20  C   UNL     1       5.550   3.652  13.212  0.00  0.00    +0.000 A 
ATOM     21  C   UNL     1       5.030   3.546  14.495  0.00  0.00    +0.000 A 
ATOM     22  C   UNL     1       5.724   4.051  15.615  0.00  0.00    +0.000 A 
ATOM     23  C   UNL     1       6.942   4.751  15.412  0.00  0.00    +0.000 A 
BRANCH  18  25
ATOM     24  C   UNL     1       8.689   6.067  12.451  0.00  0.00    +0.000 C 
ATOM     25  O   UNL     1       8.462   5.788  13.839  0.00  0.00    +0.000 OA
ENDBRANCH  18  25
BRANCH  23  26
ATOM     26  O   UNL     1       7.519   5.229  16.565  0.00  0.00    +0.000 OA
ATOM     27  C   UNL     1       7.251   6.556  16.994  0.00  0.00    +0.000 C 
ENDBRANCH  23  26
ENDBRANCH  16  22
ENDBRANCH   1  17
TORSDOF 6
ENDMDL
MODEL 8
REMARK VINA RESULT:      -7.8      2.209      4.425
REMARK  Name = 
REMARK  8 active torsions:
REMARK  status: ('A' for Active; 'I' for Inactive)
REMARK    1  A    between atoms: C_1  and  O_2
REMARK    2  A    between atoms: O_2  and  C_3
REMARK    3  A    between atoms: C_7  and  C_8
REMARK    4  A    between atoms: C_9  and  C_10
REMARK    5  A    between atoms: C_10  and  C_12
REMARK    6  A    between atoms: C_16  and  O_17
REMARK    7  A    between atoms: C_24  and  O_25
REMARK    8  A    between atoms: O_25  and  C_26
REMARK                            x       y       z     vdW  Elec       q    Type
REMARK                         _______ _______ _______ _____ _____    ______ ____
ROOT
ATOM      1  C   UNL     1       2.128   5.165  20.619  0.00  0.00    +0.000 C 
ATOM      2  O   UNL     1       2.081   4.405  21.585  0.00  0.00    +0.000 OA
ENDROOT
BRANCH   1   3
ATOM      3  C   UNL     1       2.963   4.839  19.404  0.00  0.00    +0.000 A 
ATOM      4  C   UNL     1       3.937   5.709  19.070  0.00  0.00    +0.000 A 
ATOM      5  C   UNL     1       4.763   5.462  17.890  0.00  0.00    +0.000 A 
ATOM      6  C   UNL     1       5.944   6.154  17.625  0.00  0.00    +0.000 A 
ATOM      7  C   UNL     1       6.643   5.882  16.444  0.00  0.00    +0.000 A 
ATOM      8  C   UNL     1       6.171   4.960  15.516  0.00  0.00    +0.000 A 
ATOM      9  C   UNL     1       4.988   4.267  15.778  0.00  0.00    +0.000 A 
ATOM     10  C   UNL     1       4.321   4.510  16.974  0.00  0.00    +0.000 A 
ATOM     11  O   UNL     1       3.209   3.710  17.256  0.00  0.00    +0.000 OA
ATOM     12  C   UNL     1       2.824   3.608  18.590  0.00  0.00    +0.000 A 
ATOM     13  O   UNL     1       2.363   2.552  19.015  0.00  0.00    +0.000 OA
BRANCH   7  14
ATOM     14  O   UNL     1       7.822   6.505  16.156  0.00  0.00    +0.000 OA
ATOM     15  H   UNL     1       8.439   6.377  16.894  0.00  0.00    +0.000 HD
ENDBRANCH   7  14
ENDBRANCH   1   3
BRANCH   1  17
ATOM     16  C   UNL     1       1.789   7.598  21.154  0.00  0.00    +0.000 C 
ATOM     17  C   UNL     1       1.364   6.446  20.613  0.00  0.00    +0.000 C 
BRANCH  16  22
ATOM     18  C   UNL     1       0.095  10.961  20.487  0.00  0.00    +0.000 A 
ATOM     19  C   UNL     1      -0.693  11.067  21.646  0.00  0.00    +0.000 A 
ATOM     20  C   UNL     1      -0.628  10.102  22.638  0.00  0.00    +0.000 A 
ATOM     21  C   UNL     1       0.196   8.999  22.461  0.00  0.00    +0.000 A 
ATOM     22  C   UNL     1       0.909   8.796  21.260  0.00  0.00    +0.000 A 
ATOM     23  C   UNL     1       0.842   9.786  20.245  0.00  0.00    +0.000 A 
BRANCH  18  25
ATOM     24  C   UNL     1      -1.054  12.282  18.899  0.00  0.00    +0.000 C 
ATOM     25  O   UNL     1       0.160  12.021  19.616  0.00  0.00    +0.000 OA
ENDBRANCH  18  25
BRANCH  23  26
ATOM     26  O   UNL     1       1.598   9.506  19.132  0.00  0.00    +0.000 OA
ATOM     27  C   UNL     1       0.962   9.258  17.887  0.00  0.00    +0.000 C 
ENDBRANCH  23  26
ENDBRANCH  16  22
ENDBRANCH   1  17
TORSDOF 6
ENDMDL
MODEL 9
REMARK VINA RESULT:      -7.8      3.324      9.009
REMARK  Name = 
REMARK  8 active torsions:
REMARK  status: ('A' for Active; 'I' for Inactive)
REMARK    1  A    between atoms: C_1  and  O_2
REMARK    2  A    between atoms: O_2  and  C_3
REMARK    3  A    between atoms: C_7  and  C_8
REMARK    4  A    between atoms: C_9  and  C_10
REMARK    5  A    between atoms: C_10  and  C_12
REMARK    6  A    between atoms: C_16  and  O_17
REMARK    7  A    between atoms: C_24  and  O_25
REMARK    8  A    between atoms: O_25  and  C_26
REMARK                            x       y       z     vdW  Elec       q    Type
REMARK                         _______ _______ _______ _____ _____    ______ ____
ROOT
ATOM      1  C   UNL     1       1.589   9.363  18.421  0.00  0.00    +0.000 C 
ATOM      2  O   UNL     1       2.334   9.824  17.557  0.00  0.00    +0.000 OA
ENDROOT
BRANCH   1   3
ATOM      3  C   UNL     1       0.303  10.058  18.800  0.00  0.00    +0.000 A 
ATOM      4  C   UNL     1      -0.738   9.941  17.952  0.00  0.00    +0.000 A 
ATOM      5  C   UNL     1      -2.003  10.610  18.251  0.00  0.00    +0.000 A 
ATOM      6  C   UNL     1      -3.193  10.331  17.580  0.00  0.00    +0.000 A 
ATOM      7  C   UNL     1      -4.343  11.058  17.902  0.00  0.00    +0.000 A 
ATOM      8  C   UNL     1      -4.319  12.072  18.854  0.00  0.00    +0.000 A 
ATOM      9  C   UNL     1      -3.129  12.354  19.527  0.00  0.00    +0.000 A 
ATOM     10  C   UNL     1      -1.999  11.598  19.233  0.00  0.00    +0.000 A 
ATOM     11  O   UNL     1      -0.860  11.827  20.012  0.00  0.00    +0.000 OA
ATOM     12  C   UNL     1       0.089  10.810  20.060  0.00  0.00    +0.000 A 
ATOM     13  O   UNL     1       0.719  10.609  21.095  0.00  0.00    +0.000 OA
BRANCH   7  14
ATOM     14  O   UNL     1      -5.540  10.799  17.301  0.00  0.00    +0.000 OA
ATOM     15  H   UNL     1      -6.182  11.478  17.563  0.00  0.00    +0.000 HD
ENDBRANCH   7  14
ENDBRANCH   1   3
BRANCH   1  17
ATOM     16  C   UNL     1       2.474   7.014  18.558  0.00  0.00    +0.000 C 
ATOM     17  C   UNL     1       1.929   8.098  19.133  0.00  0.00    +0.000 C 
BRANCH  16  22
ATOM     18  C   UNL     1       3.606   3.508  19.582  0.00  0.00    +0.000 A 
ATOM     19  C   UNL     1       2.744   3.285  20.669  0.00  0.00    +0.000 A 
ATOM     20  C   UNL     1       1.787   4.223  21.019  0.00  0.00    +0.000 A 
ATOM     21  C   UNL     1       1.710   5.414  20.308  0.00  0.00    +0.000 A 
ATOM     22  C   UNL     1       2.634   5.726  19.289  0.00  0.00    +0.000 A 
ATOM     23  C   UNL     1       3.614   4.763  18.931  0.00  0.00    +0.000 A 
BRANCH  18  25
ATOM     24  C   UNL     1       3.702   1.392  18.533  0.00  0.00    +0.000 C 
ATOM     25  O   UNL     1       4.408   2.485  19.135  0.00  0.00    +0.000 OA
ENDBRANCH  18  25
BRANCH  23  26
ATOM     26  O   UNL     1       4.443   5.154  17.907  0.00  0.00    +0.000 OA
ATOM     27  C   UNL     1       4.407   4.466  16.665  0.00  0.00    +0.000 C 
ENDBRANCH  23  26
ENDBRANCH  16  22
ENDBRANCH   1  17
TORSDOF 6
ENDMDL
