MODEL 1
REMARK VINA RESULT:      -7.1      0.000      0.000
REMARK  Name = 
REMARK  11 active torsions:
REMARK  status: ('A' for Active; 'I' for Inactive)
REMARK    1  A    between atoms: C_1  and  C_2
REMARK    2  A    between atoms: C_2  and  N_3
REMARK    3  A    between atoms: N_3  and  C_4
REMARK    4  A    between atoms: N_3  and  C_6
REMARK    5  A    between atoms: C_4  and  C_5
REMARK    6  A    between atoms: C_6  and  C_7
REMARK    7  A    between atoms: C_10  and  C_11
REMARK    8  A    between atoms: C_17  and  O_18
REMARK    9  A    between atoms: O_18  and  C_19
REMARK   10  A    between atoms: C_20  and  O_21
REMARK   11  A    between atoms: O_21  and  C_22
REMARK                            x       y       z     vdW  Elec       q    Type
REMARK                         _______ _______ _______ _____ _____    ______ ____
ROOT
ATOM      1  C   UNL     1       0.941   9.025  20.427  0.00  0.00    +0.000 A 
ATOM      2  C   UNL     1       1.192   9.038  21.735  0.00  0.00    +0.000 A 
ATOM      3  C   UNL     1       0.306   9.762  22.639  0.00  0.00    +0.000 A 
ATOM      4  O   UNL     1       0.293   9.517  23.837  0.00  0.00    +0.000 OA
ATOM      5  C   UNL     1      -0.488  10.809  22.020  0.00  0.00    +0.000 A 
ATOM      6  C   UNL     1      -0.998  11.784  22.865  0.00  0.00    +0.000 A 
ATOM      7  C   UNL     1      -1.561  12.930  22.336  0.00  0.00    +0.000 A 
ATOM      8  C   UNL     1      -1.665  13.077  20.938  0.00  0.00    +0.000 A 
ATOM      9  C   UNL     1      -1.207  12.030  20.087  0.00  0.00    +0.000 A 
ATOM     10  C   UNL     1      -0.574  10.890  20.633  0.00  0.00    +0.000 A 
ATOM     11  O   UNL     1       0.002   9.900  19.814  0.00  0.00    +0.000 OA
ENDROOT
BRANCH   1  15
ATOM     12  C   UNL     1       3.667   6.363  18.327  0.00  0.00    +0.000 A 
ATOM     13  C   UNL     1       3.081   5.972  19.520  0.00  0.00    +0.000 A 
ATOM     14  C   UNL     1       2.122   6.808  20.127  0.00  0.00    +0.000 A 
ATOM     15  C   UNL     1       1.757   8.078  19.599  0.00  0.00    +0.000 A 
ATOM     16  C   UNL     1       2.251   8.386  18.336  0.00  0.00    +0.000 A 
ATOM     17  C   UNL     1       3.199   7.540  17.710  0.00  0.00    +0.000 A 
BRANCH  12  18
ATOM     18  C   UNL     1       4.851   5.609  17.748  0.00  0.00    +0.000 C 
BRANCH  18  19
ATOM     19  N   UNL     1       5.668   6.292  16.724  0.00  0.00    +0.000 NA
BRANCH  19  21
ATOM     20  C   UNL     1       7.376   5.943  18.551  0.00  0.00    +0.000 C 
ATOM     21  C   UNL     1       7.066   6.462  17.149  0.00  0.00    +0.000 C 
ENDBRANCH  19  21
BRANCH  19  22
ATOM     22  C   UNL     1       5.529   5.610  15.418  0.00  0.00    +0.000 C 
ATOM     23  C   UNL     1       6.366   4.344  15.214  0.00  0.00    +0.000 C 
ENDBRANCH  19  22
ENDBRANCH  18  19
ENDBRANCH  12  18
ENDBRANCH   1  15
BRANCH   7  24
ATOM     24  O   UNL     1      -1.830  13.854  23.313  0.00  0.00    +0.000 OA
ATOM     25  C   UNL     1      -3.076  13.787  23.981  0.00  0.00    +0.000 C 
ENDBRANCH   7  24
BRANCH   8  26
ATOM     26  O   UNL     1      -2.144  14.290  20.539  0.00  0.00    +0.000 OA
ATOM     27  C   UNL     1      -1.289  15.331  20.113  0.00  0.00    +0.000 C 
ENDBRANCH   8  26
TORSDOF 7
ENDMDL
MODEL 2
REMARK VINA RESULT:      -7.0      2.391      4.278
REMARK  Name = 
REMARK  11 active torsions:
REMARK  status: ('A' for Active; 'I' for Inactive)
REMARK    1  A    between atoms: C_1  and  C_2
REMARK    2  A    between atoms: C_2  and  N_3
REMARK    3  A    between atoms: N_3  and  C_4
REMARK    4  A    between atoms: N_3  and  C_6
REMARK    5  A    between atoms: C_4  and  C_5
REMARK    6  A    between atoms: C_6  and  C_7
REMARK    7  A    between atoms: C_10  and  C_11
REMARK    8  A    between atoms: C_17  and  O_18
REMARK    9  A    between atoms: O_18  and  C_19
REMARK   10  A    between atoms: C_20  and  O_21
REMARK   11  A    between atoms: O_21  and  C_22
REMARK                            x       y       z     vdW  Elec       q    Type
REMARK                         _______ _______ _______ _____ _____    ______ ____
ROOT
ATOM      1  C   UNL     1       3.221   6.874  18.075  0.00  0.00    +0.000 A 
ATOM      2  C   UNL     1       2.958   6.484  19.321  0.00  0.00    +0.000 A 
ATOM      3  C   UNL     1       1.903   7.142  20.083  0.00  0.00    +0.000 A 
ATOM      4  O   UNL     1       1.405   6.605  21.062  0.00  0.00    +0.000 OA
ATOM      5  C   UNL     1       1.551   8.475  19.628  0.00  0.00    +0.000 A 
ATOM      6  C   UNL     1       0.896   9.291  20.539  0.00  0.00    +0.000 A 
ATOM      7  C   UNL     1       0.736  10.637  20.269  0.00  0.00    +0.000 A 
ATOM      8  C   UNL     1       1.188  11.164  19.043  0.00  0.00    +0.000 A 
ATOM      9  C   UNL     1       1.789  10.296  18.086  0.00  0.00    +0.000 A 
ATOM     10  C   UNL     1       2.007   8.933  18.394  0.00  0.00    +0.000 A 
ATOM     11  O   UNL     1       2.711   8.081  17.523  0.00  0.00    +0.000 OA
ENDROOT
BRANCH   1  15
ATOM     12  C   UNL     1       5.676   4.480  15.398  0.00  0.00    +0.000 A 
ATOM     13  C   UNL     1       5.823   5.857  15.446  0.00  0.00    +0.000 A 
ATOM     14  C   UNL     1       5.092   6.599  16.395  0.00  0.00    +0.000 A 
ATOM     15  C   UNL     1       4.154   6.005  17.285  0.00  0.00    +0.000 A 
ATOM     16  C   UNL     1       4.125   4.615  17.315  0.00  0.00    +0.000 A 
ATOM     17  C   UNL     1       4.874   3.862  16.378  0.00  0.00    +0.000 A 
BRANCH  12  18
ATOM     18  C   UNL     1       6.271   3.664  14.263  0.00  0.00    +0.000 C 
BRANCH  18  19
ATOM     19  N   UNL     1       6.008   4.114  12.881  0.00  0.00    +0.000 NA
BRANCH  19  21
ATOM     20  C   UNL     1       8.102   5.502  12.631  0.00  0.00    +0.000 C 
ATOM     21  C   UNL     1       7.248   4.342  12.124  0.00  0.00    +0.000 C 
ENDBRANCH  19  21
BRANCH  19  22
ATOM     22  C   UNL     1       5.070   3.186  12.209  0.00  0.00    +0.000 C 
ATOM     23  C   UNL     1       5.695   2.008  11.457  0.00  0.00    +0.000 C 
ENDBRANCH  19  22
ENDBRANCH  18  19
ENDBRANCH  12  18
ENDBRANCH   1  15
BRANCH   7  24
ATOM     24  O   UNL     1       0.244  11.311  21.358  0.00  0.00    +0.000 OA
ATOM     25  C   UNL     1      -0.423  10.574  22.365  0.00  0.00    +0.000 C 
ENDBRANCH   7  24
BRANCH   8  26
ATOM     26  O   UNL     1       1.065  12.518  18.938  0.00  0.00    +0.000 OA
ATOM     27  C   UNL     1       2.145  13.392  19.191  0.00  0.00    +0.000 C 
ENDBRANCH   8  26
TORSDOF 7
ENDMDL
MODEL 3
REMARK VINA RESULT:      -7.0      1.031      1.635
REMARK  Name = 
REMARK  11 active torsions:
REMARK  status: ('A' for Active; 'I' for Inactive)
REMARK    1  A    between atoms: C_1  and  C_2
REMARK    2  A    between atoms: C_2  and  N_3
REMARK    3  A    between atoms: N_3  and  C_4
REMARK    4  A    between atoms: N_3  and  C_6
REMARK    5  A    between atoms: C_4  and  C_5
REMARK    6  A    between atoms: C_6  and  C_7
REMARK    7  A    between atoms: C_10  and  C_11
REMARK    8  A    between atoms: C_17  and  O_18
REMARK    9  A    between atoms: O_18  and  C_19
REMARK   10  A    between atoms: C_20  and  O_21
REMARK   11  A    between atoms: O_21  and  C_22
REMARK                            x       y       z     vdW  Elec       q    Type
REMARK                         _______ _______ _______ _____ _____    ______ ____
ROOT
ATOM      1  C   UNL     1       0.663   9.392  20.395  0.00  0.00    +0.000 A 
ATOM      2  C   UNL     1       1.008   9.374  21.681  0.00  0.00    +0.000 A 
ATOM      3  C   UNL     1       0.127   9.969  22.680  0.00  0.00    +0.000 A 
ATOM      4  O   UNL     1       0.227   9.673  23.862  0.00  0.00    +0.000 OA
ATOM      5  C   UNL     1      -0.806  10.958  22.171  0.00  0.00    +0.000 A 
ATOM      6  C   UNL     1      -1.343  11.841  23.097  0.00  0.00    +0.000 A 
ATOM      7  C   UNL     1      -2.049  12.948  22.665  0.00  0.00    +0.000 A 
ATOM      8  C   UNL     1      -2.271  13.143  21.288  0.00  0.00    +0.000 A 
ATOM      9  C   UNL     1      -1.780  12.183  20.356  0.00  0.00    +0.000 A 
ATOM     10  C   UNL     1      -1.003  11.088  20.799  0.00  0.00    +0.000 A 
ATOM     11  O   UNL     1      -0.398  10.196  19.894  0.00  0.00    +0.000 OA
ENDROOT
BRANCH   1  15
ATOM     12  C   UNL     1       3.465   7.106  17.978  0.00  0.00    +0.000 A 
ATOM     13  C   UNL     1       3.018   6.613  19.193  0.00  0.00    +0.000 A 
ATOM     14  C   UNL     1       2.032   7.321  19.907  0.00  0.00    +0.000 A 
ATOM     15  C   UNL     1       1.501   8.566  19.466  0.00  0.00    +0.000 A 
ATOM     16  C   UNL     1       1.859   8.970  18.184  0.00  0.00    +0.000 A 
ATOM     17  C   UNL     1       2.834   8.250  17.452  0.00  0.00    +0.000 A 
BRANCH  12  18
ATOM     18  C   UNL     1       4.670   6.500  17.278  0.00  0.00    +0.000 C 
BRANCH  18  19
ATOM     19  N   UNL     1       5.404   5.427  17.979  0.00  0.00    +0.000 NA
BRANCH  19  21
ATOM     20  C   UNL     1       3.937   3.531  17.187  0.00  0.00    +0.000 C 
ATOM     21  C   UNL     1       5.334   4.144  17.264  0.00  0.00    +0.000 C 
ENDBRANCH  19  21
BRANCH  19  22
ATOM     22  C   UNL     1       6.789   5.861  18.273  0.00  0.00    +0.000 C 
ATOM     23  C   UNL     1       7.309   7.067  17.486  0.00  0.00    +0.000 C 
ENDBRANCH  19  22
ENDBRANCH  18  19
ENDBRANCH  12  18
ENDBRANCH   1  15
BRANCH   7  24
ATOM     24  O   UNL     1      -2.332  13.798  23.704  0.00  0.00    +0.000 OA
ATOM     25  C   UNL     1      -3.554  13.634  24.398  0.00  0.00    +0.000 C 
ENDBRANCH   7  24
BRANCH   8  26
ATOM     26  O   UNL     1      -2.891  14.319  20.983  0.00  0.00    +0.000 OA
ATOM     27  C   UNL     1      -4.290  14.406  20.806  0.00  0.00    +0.000 C 
ENDBRANCH   8  26
TORSDOF 7
ENDMDL
MODEL 4
REMARK VINA RESULT:      -6.9      1.031      1.473
REMARK  Name = 
REMARK  11 active torsions:
REMARK  status: ('A' for Active; 'I' for Inactive)
REMARK    1  A    between atoms: C_1  and  C_2
REMARK    2  A    between atoms: C_2  and  N_3
REMARK    3  A    between atoms: N_3  and  C_4
REMARK    4  A    between atoms: N_3  and  C_6
REMARK    5  A    between atoms: C_4  and  C_5
REMARK    6  A    between atoms: C_6  and  C_7
REMARK    7  A    between atoms: C_10  and  C_11
REMARK    8  A    between atoms: C_17  and  O_18
REMARK    9  A    between atoms: O_18  and  C_19
REMARK   10  A    between atoms: C_20  and  O_21
REMARK   11  A    between atoms: O_21  and  C_22
REMARK                            x       y       z     vdW  Elec       q    Type
REMARK                         _______ _______ _______ _____ _____    ______ ____
ROOT
ATOM      1  C   UNL     1       0.879   9.165  20.427  0.00  0.00    +0.000 A 
ATOM      2  C   UNL     1       1.105   9.175  21.740  0.00  0.00    +0.000 A 
ATOM      3  C   UNL     1       0.240   9.950  22.621  0.00  0.00    +0.000 A 
ATOM      4  O   UNL     1       0.191   9.715  23.820  0.00  0.00    +0.000 OA
ATOM      5  C   UNL     1      -0.487  11.032  21.980  0.00  0.00    +0.000 A 
ATOM      6  C   UNL     1      -0.962  12.039  22.808  0.00  0.00    +0.000 A 
ATOM      7  C   UNL     1      -1.455  13.208  22.261  0.00  0.00    +0.000 A 
ATOM      8  C   UNL     1      -1.524  13.350  20.860  0.00  0.00    +0.000 A 
ATOM      9  C   UNL     1      -1.104  12.275  20.025  0.00  0.00    +0.000 A 
ATOM     10  C   UNL     1      -0.542  11.107  20.590  0.00  0.00    +0.000 A 
ATOM     11  O   UNL     1      -0.002  10.083  19.790  0.00  0.00    +0.000 OA
ENDROOT
BRANCH   1  15
ATOM     12  C   UNL     1       3.511   6.367  18.386  0.00  0.00    +0.000 A 
ATOM     13  C   UNL     1       2.927   6.029  19.596  0.00  0.00    +0.000 A 
ATOM     14  C   UNL     1       1.997   6.909  20.185  0.00  0.00    +0.000 A 
ATOM     15  C   UNL     1       1.661   8.171  19.621  0.00  0.00    +0.000 A 
ATOM     16  C   UNL     1       2.150   8.427  18.345  0.00  0.00    +0.000 A 
ATOM     17  C   UNL     1       3.069   7.536  17.737  0.00  0.00    +0.000 A 
BRANCH  12  18
ATOM     18  C   UNL     1       4.670   5.563  17.820  0.00  0.00    +0.000 C 
BRANCH  18  19
ATOM     19  N   UNL     1       4.354   4.476  16.870  0.00  0.00    +0.000 NA
BRANCH  19  21
ATOM     20  C   UNL     1       6.498   5.366  15.877  0.00  0.00    +0.000 C 
ATOM     21  C   UNL     1       5.404   4.300  15.856  0.00  0.00    +0.000 C 
ENDBRANCH  19  21
BRANCH  19  22
ATOM     22  C   UNL     1       4.030   3.232  17.604  0.00  0.00    +0.000 C 
ATOM     23  C   UNL     1       2.583   2.739  17.509  0.00  0.00    +0.000 C 
ENDBRANCH  19  22
ENDBRANCH  18  19
ENDBRANCH  12  18
ENDBRANCH   1  15
BRANCH   7  24
ATOM     24  O   UNL     1      -1.695  14.151  23.226  0.00  0.00    +0.000 OA
ATOM     25  C   UNL     1      -2.797  13.964  24.095  0.00  0.00    +0.000 C 
ENDBRANCH   7  24
BRANCH   8  26
ATOM     26  O   UNL     1      -1.931  14.583  20.444  0.00  0.00    +0.000 OA
ATOM     27  C   UNL     1      -1.016  15.575  20.027  0.00  0.00    +0.000 C 
ENDBRANCH   8  26
TORSDOF 7
ENDMDL
MODEL 5
REMARK VINA RESULT:      -6.9      1.278      1.739
REMARK  Name = 
REMARK  11 active torsions:
REMARK  status: ('A' for Active; 'I' for Inactive)
REMARK    1  A    between atoms: C_1  and  C_2
REMARK    2  A    between atoms: C_2  and  N_3
REMARK    3  A    between atoms: N_3  and  C_4
REMARK    4  A    between atoms: N_3  and  C_6
REMARK    5  A    between atoms: C_4  and  C_5
REMARK    6  A    between atoms: C_6  and  C_7
REMARK    7  A    between atoms: C_10  and  C_11
REMARK    8  A    between atoms: C_17  and  O_18
REMARK    9  A    between atoms: O_18  and  C_19
REMARK   10  A    between atoms: C_20  and  O_21
REMARK   11  A    between atoms: O_21  and  C_22
REMARK                            x       y       z     vdW  Elec       q    Type
REMARK                         _______ _______ _______ _____ _____    ______ ____
ROOT
ATOM      1  C   UNL     1       1.050   8.728  20.515  0.00  0.00    +0.000 A 
ATOM      2  C   UNL     1       1.230   8.831  21.831  0.00  0.00    +0.000 A 
ATOM      3  C   UNL     1       0.372   9.710  22.616  0.00  0.00    +0.000 A 
ATOM      4  O   UNL     1       0.270   9.572  23.827  0.00  0.00    +0.000 OA
ATOM      5  C   UNL     1      -0.279  10.770  21.866  0.00  0.00    +0.000 A 
ATOM      6  C   UNL     1      -0.735  11.859  22.596  0.00  0.00    +0.000 A 
ATOM      7  C   UNL     1      -1.152  13.003  21.942  0.00  0.00    +0.000 A 
ATOM      8  C   UNL     1      -1.165  13.038  20.533  0.00  0.00    +0.000 A 
ATOM      9  C   UNL     1      -0.767  11.882  19.800  0.00  0.00    +0.000 A 
ATOM     10  C   UNL     1      -0.281  10.739  20.474  0.00  0.00    +0.000 A 
ATOM     11  O   UNL     1       0.238   9.632  19.776  0.00  0.00    +0.000 OA
ENDROOT
BRANCH   1  15
ATOM     12  C   UNL     1       3.601   5.637  18.822  0.00  0.00    +0.000 A 
ATOM     13  C   UNL     1       2.879   5.398  19.980  0.00  0.00    +0.000 A 
ATOM     14  C   UNL     1       1.980   6.376  20.450  0.00  0.00    +0.000 A 
ATOM     15  C   UNL     1       1.812   7.640  19.818  0.00  0.00    +0.000 A 
ATOM     16  C   UNL     1       2.439   7.804  18.588  0.00  0.00    +0.000 A 
ATOM     17  C   UNL     1       3.327   6.815  18.099  0.00  0.00    +0.000 A 
BRANCH  12  18
ATOM     18  C   UNL     1       4.730   4.716  18.395  0.00  0.00    +0.000 C 
BRANCH  18  19
ATOM     19  N   UNL     1       4.476   3.791  17.271  0.00  0.00    +0.000 NA
BRANCH  19  21
ATOM     20  C   UNL     1       2.668   2.144  17.899  0.00  0.00    +0.000 C 
ATOM     21  C   UNL     1       3.056   3.424  17.161  0.00  0.00    +0.000 C 
ENDBRANCH  19  21
BRANCH  19  22
ATOM     22  C   UNL     1       5.040   4.341  16.017  0.00  0.00    +0.000 C 
ATOM     23  C   UNL     1       6.567   4.361  15.905  0.00  0.00    +0.000 C 
ENDBRANCH  19  22
ENDBRANCH  18  19
ENDBRANCH  12  18
ENDBRANCH   1  15
BRANCH   7  24
ATOM     24  O   UNL     1      -1.381  14.028  22.823  0.00  0.00    +0.000 OA
ATOM     25  C   UNL     1      -2.593  14.033  23.554  0.00  0.00    +0.000 C 
ENDBRANCH   7  24
BRANCH   8  26
ATOM     26  O   UNL     1      -1.498  14.251  20.008  0.00  0.00    +0.000 OA
ATOM     27  C   UNL     1      -0.525  15.146  19.510  0.00  0.00    +0.000 C 
ENDBRANCH   8  26
TORSDOF 7
ENDMDL
MODEL 6
REMARK VINA RESULT:      -6.9      2.170      3.829
REMARK  Name = 
REMARK  11 active torsions:
REMARK  status: ('A' for Active; 'I' for Inactive)
REMARK    1  A    between atoms: C_1  and  C_2
REMARK    2  A    between atoms: C_2  and  N_3
REMARK    3  A    between atoms: N_3  and  C_4
REMARK    4  A    between atoms: N_3  and  C_6
REMARK    5  A    between atoms: C_4  and  C_5
REMARK    6  A    between atoms: C_6  and  C_7
REMARK    7  A    between atoms: C_10  and  C_11
REMARK    8  A    between atoms: C_17  and  O_18
REMARK    9  A    between atoms: O_18  and  C_19
REMARK   10  A    between atoms: C_20  and  O_21
REMARK   11  A    between atoms: O_21  and  C_22
REMARK                            x       y       z     vdW  Elec       q    Type
REMARK                         _______ _______ _______ _____ _____    ______ ____
ROOT
ATOM      1  C   UNL     1      -0.440  10.520  19.666  0.00  0.00    +0.000 A 
ATOM      2  C   UNL     1      -1.404  10.562  18.748  0.00  0.00    +0.000 A 
ATOM      3  C   UNL     1      -2.427  11.599  18.815  0.00  0.00    +0.000 A 
ATOM      4  O   UNL     1      -3.098  11.884  17.833  0.00  0.00    +0.000 OA
ATOM      5  C   UNL     1      -2.614  12.201  20.123  0.00  0.00    +0.000 A 
ATOM      6  C   UNL     1      -3.821  12.850  20.343  0.00  0.00    +0.000 A 
ATOM      7  C   UNL     1      -4.171  13.242  21.621  0.00  0.00    +0.000 A 
ATOM      8  C   UNL     1      -3.275  13.031  22.687  0.00  0.00    +0.000 A 
ATOM      9  C   UNL     1      -2.007  12.434  22.430  0.00  0.00    +0.000 A 
ATOM     10  C   UNL     1      -1.681  11.977  21.133  0.00  0.00    +0.000 A 
ATOM     11  O   UNL     1      -0.492  11.270  20.873  0.00  0.00    +0.000 OA
ENDROOT
BRANCH   1  15
ATOM     12  C   UNL     1       2.553   7.543  18.612  0.00  0.00    +0.000 A 
ATOM     13  C   UNL     1       2.216   8.549  17.720  0.00  0.00    +0.000 A 
ATOM     14  C   UNL     1       1.323   9.561  18.124  0.00  0.00    +0.000 A 
ATOM     15  C   UNL     1       0.695   9.575  19.401  0.00  0.00    +0.000 A 
ATOM     16  C   UNL     1       1.151   8.640  20.324  0.00  0.00    +0.000 A 
ATOM     17  C   UNL     1       2.066   7.633  19.930  0.00  0.00    +0.000 A 
BRANCH  12  18
ATOM     18  C   UNL     1       3.335   6.322  18.160  0.00  0.00    +0.000 C 
BRANCH  18  19
ATOM     19  N   UNL     1       3.083   5.046  18.861  0.00  0.00    +0.000 NA
BRANCH  19  21
ATOM     20  C   UNL     1       2.544   3.076  17.376  0.00  0.00    +0.000 C 
ATOM     21  C   UNL     1       2.032   4.250  18.209  0.00  0.00    +0.000 C 
ENDBRANCH  19  21
BRANCH  19  22
ATOM     22  C   UNL     1       4.351   4.305  19.050  0.00  0.00    +0.000 C 
ATOM     23  C   UNL     1       5.627   5.146  19.139  0.00  0.00    +0.000 C 
ENDBRANCH  19  22
ENDBRANCH  18  19
ENDBRANCH  12  18
ENDBRANCH   1  15
BRANCH   7  24
ATOM     24  O   UNL     1      -5.467  13.687  21.671  0.00  0.00    +0.000 OA
ATOM     25  C   UNL     1      -6.505  12.786  21.331  0.00  0.00    +0.000 C 
ENDBRANCH   7  24
BRANCH   8  26
ATOM     26  O   UNL     1      -3.775  13.367  23.911  0.00  0.00    +0.000 OA
ATOM     27  C   UNL     1      -4.445  12.432  24.731  0.00  0.00    +0.000 C 
ENDBRANCH   8  26
TORSDOF 7
ENDMDL
MODEL 7
REMARK VINA RESULT:      -6.8      3.795      9.589
REMARK  Name = 
REMARK  11 active torsions:
REMARK  status: ('A' for Active; 'I' for Inactive)
REMARK    1  A    between atoms: C_1  and  C_2
REMARK    2  A    between atoms: C_2  and  N_3
REMARK    3  A    between atoms: N_3  and  C_4
REMARK    4  A    between atoms: N_3  and  C_6
REMARK    5  A    between atoms: C_4  and  C_5
REMARK    6  A    between atoms: C_6  and  C_7
REMARK    7  A    between atoms: C_10  and  C_11
REMARK    8  A    between atoms: C_17  and  O_18
REMARK    9  A    between atoms: O_18  and  C_19
REMARK   10  A    between atoms: C_20  and  O_21
REMARK   11  A    between atoms: O_21  and  C_22
REMARK                            x       y       z     vdW  Elec       q    Type
REMARK                         _______ _______ _______ _____ _____    ______ ____
ROOT
ATOM      1  C   UNL     1       1.840   7.485  20.209  0.00  0.00    +0.000 A 
ATOM      2  C   UNL     1       1.415   6.391  20.839  0.00  0.00    +0.000 A 
ATOM      3  C   UNL     1       2.152   5.140  20.702  0.00  0.00    +0.000 A 
ATOM      4  O   UNL     1       2.011   4.235  21.512  0.00  0.00    +0.000 OA
ATOM      5  C   UNL     1       2.994   5.044  19.522  0.00  0.00    +0.000 A 
ATOM      6  C   UNL     1       3.360   3.767  19.122  0.00  0.00    +0.000 A 
ATOM      7  C   UNL     1       3.958   3.575  17.891  0.00  0.00    +0.000 A 
ATOM      8  C   UNL     1       4.246   4.684  17.071  0.00  0.00    +0.000 A 
ATOM      9  C   UNL     1       3.933   5.996  17.533  0.00  0.00    +0.000 A 
ATOM     10  C   UNL     1       3.264   6.181  18.765  0.00  0.00    +0.000 A 
ATOM     11  O   UNL     1       2.830   7.451  19.188  0.00  0.00    +0.000 OA
ENDROOT
BRANCH   1  15
ATOM     12  C   UNL     1      -0.505  10.967  21.352  0.00  0.00    +0.000 A 
ATOM     13  C   UNL     1      -0.061  10.071  22.312  0.00  0.00    +0.000 A 
ATOM     14  C   UNL     1       0.785   9.010  21.930  0.00  0.00    +0.000 A 
ATOM     15  C   UNL     1       1.168   8.774  20.580  0.00  0.00    +0.000 A 
ATOM     16  C   UNL     1       0.827   9.759  19.660  0.00  0.00    +0.000 A 
ATOM     17  C   UNL     1      -0.004  10.840  20.042  0.00  0.00    +0.000 A 
BRANCH  12  18
ATOM     18  C   UNL     1      -1.580  11.991  21.670  0.00  0.00    +0.000 C 
BRANCH  18  19
ATOM     19  N   UNL     1      -1.769  12.373  23.085  0.00  0.00    +0.000 NA
BRANCH  19  21
ATOM     20  C   UNL     1      -0.380  14.307  22.246  0.00  0.00    +0.000 C 
ATOM     21  C   UNL     1      -1.156  13.672  23.398  0.00  0.00    +0.000 C 
ENDBRANCH  19  21
BRANCH  19  22
ATOM     22  C   UNL     1      -3.202  12.295  23.451  0.00  0.00    +0.000 C 
ATOM     23  C   UNL     1      -4.204  12.774  22.396  0.00  0.00    +0.000 C 
ENDBRANCH  19  22
ENDBRANCH  18  19
ENDBRANCH  12  18
ENDBRANCH   1  15
BRANCH   7  24
ATOM     24  O   UNL     1       4.069   2.241  17.590  0.00  0.00    +0.000 OA
ATOM     25  C   UNL     1       3.542   1.296  18.503  0.00  0.00    +0.000 C 
ENDBRANCH   7  24
BRANCH   8  26
ATOM     26  O   UNL     1       4.741   4.358  15.844  0.00  0.00    +0.000 OA
ATOM     27  C   UNL     1       6.128   4.317  15.581  0.00  0.00    +0.000 C 
ENDBRANCH   8  26
TORSDOF 7
ENDMDL
MODEL 8
REMARK VINA RESULT:      -6.8      3.213      4.446
REMARK  Name = 
REMARK  11 active torsions:
REMARK  status: ('A' for Active; 'I' for Inactive)
REMARK    1  A    between atoms: C_1  and  C_2
REMARK    2  A    between atoms: C_2  and  N_3
REMARK    3  A    between atoms: N_3  and  C_4
REMARK    4  A    between atoms: N_3  and  C_6
REMARK    5  A    between atoms: C_4  and  C_5
REMARK    6  A    between atoms: C_6  and  C_7
REMARK    7  A    between atoms: C_10  and  C_11
REMARK    8  A    between atoms: C_17  and  O_18
REMARK    9  A    between atoms: O_18  and  C_19
REMARK   10  A    between atoms: C_20  and  O_21
REMARK   11  A    between atoms: O_21  and  C_22
REMARK                            x       y       z     vdW  Elec       q    Type
REMARK                         _______ _______ _______ _____ _____    ______ ____
ROOT
ATOM      1  C   UNL     1       1.158  10.154  19.053  0.00  0.00    +0.000 A 
ATOM      2  C   UNL     1      -0.109  10.325  19.430  0.00  0.00    +0.000 A 
ATOM      3  C   UNL     1      -0.811  11.554  19.083  0.00  0.00    +0.000 A 
ATOM      4  O   UNL     1      -2.033  11.606  19.096  0.00  0.00    +0.000 OA
ATOM      5  C   UNL     1       0.041  12.693  18.791  0.00  0.00    +0.000 A 
ATOM      6  C   UNL     1      -0.543  13.948  18.883  0.00  0.00    +0.000 A 
ATOM      7  C   UNL     1       0.246  15.082  18.851  0.00  0.00    +0.000 A 
ATOM      8  C   UNL     1       1.638  14.960  18.666  0.00  0.00    +0.000 A 
ATOM      9  C   UNL     1       2.211  13.666  18.495  0.00  0.00    +0.000 A 
ATOM     10  C   UNL     1       1.407  12.508  18.593  0.00  0.00    +0.000 A 
ATOM     11  O   UNL     1       1.963  11.216  18.555  0.00  0.00    +0.000 OA
ENDROOT
BRANCH   1  15
ATOM     12  C   UNL     1       2.474   6.017  19.333  0.00  0.00    +0.000 A 
ATOM     13  C   UNL     1       2.708   6.754  18.184  0.00  0.00    +0.000 A 
ATOM     14  C   UNL     1       2.367   8.121  18.156  0.00  0.00    +0.000 A 
ATOM     15  C   UNL     1       1.733   8.782  19.245  0.00  0.00    +0.000 A 
ATOM     16  C   UNL     1       1.635   8.063  20.431  0.00  0.00    +0.000 A 
ATOM     17  C   UNL     1       1.996   6.695  20.472  0.00  0.00    +0.000 A 
BRANCH  12  18
ATOM     18  C   UNL     1       2.622   4.505  19.342  0.00  0.00    +0.000 C 
BRANCH  18  19
ATOM     19  N   UNL     1       1.602   3.710  18.629  0.00  0.00    +0.000 NA
BRANCH  19  21
ATOM     20  C   UNL     1       3.662   2.482  17.840  0.00  0.00    +0.000 C 
ATOM     21  C   UNL     1       2.193   2.830  17.610  0.00  0.00    +0.000 C 
ENDBRANCH  19  21
BRANCH  19  22
ATOM     22  C   UNL     1       0.741   2.993  19.598  0.00  0.00    +0.000 C 
ATOM     23  C   UNL     1       1.271   2.882  21.031  0.00  0.00    +0.000 C 
ENDBRANCH  19  22
ENDBRANCH  18  19
ENDBRANCH  12  18
ENDBRANCH   1  15
BRANCH   7  24
ATOM     24  O   UNL     1      -0.479  16.207  19.147  0.00  0.00    +0.000 OA
ATOM     25  C   UNL     1      -0.755  17.127  18.107  0.00  0.00    +0.000 C 
ENDBRANCH   7  24
BRANCH   8  26
ATOM     26  O   UNL     1       2.318  16.138  18.754  0.00  0.00    +0.000 OA
ATOM     27  C   UNL     1       3.055  16.662  17.668  0.00  0.00    +0.000 C 
ENDBRANCH   8  26
TORSDOF 7
ENDMDL
MODEL 9
REMARK VINA RESULT:      -6.8      2.145      3.835
REMARK  Name = 
REMARK  11 active torsions:
REMARK  status: ('A' for Active; 'I' for Inactive)
REMARK    1  A    between atoms: C_1  and  C_2
REMARK    2  A    between atoms: C_2  and  N_3
REMARK    3  A    between atoms: N_3  and  C_4
REMARK    4  A    between atoms: N_3  and  C_6
REMARK    5  A    between atoms: C_4  and  C_5
REMARK    6  A    between atoms: C_6  and  C_7
REMARK    7  A    between atoms: C_10  and  C_11
REMARK    8  A    between atoms: C_17  and  O_18
REMARK    9  A    between atoms: O_18  and  C_19
REMARK   10  A    between atoms: C_20  and  O_21
REMARK   11  A    between atoms: O_21  and  C_22
REMARK                            x       y       z     vdW  Elec       q    Type
REMARK                         _______ _______ _______ _____ _____    ______ ____
ROOT
ATOM      1  C   UNL     1      -0.221  10.301  19.727  0.00  0.00    +0.000 A 
ATOM      2  C   UNL     1      -1.130  10.405  18.759  0.00  0.00    +0.000 A 
ATOM      3  C   UNL     1      -2.082  11.510  18.771  0.00  0.00    +0.000 A 
ATOM      4  O   UNL     1      -2.680  11.836  17.755  0.00  0.00    +0.000 OA
ATOM      5  C   UNL     1      -2.296  12.129  20.067  0.00  0.00    +0.000 A 
ATOM      6  C   UNL     1      -3.466  12.860  20.222  0.00  0.00    +0.000 A 
ATOM      7  C   UNL     1      -3.855  13.280  21.479  0.00  0.00    +0.000 A 
ATOM      8  C   UNL     1      -3.033  13.014  22.592  0.00  0.00    +0.000 A 
ATOM      9  C   UNL     1      -1.797  12.330  22.403  0.00  0.00    +0.000 A 
ATOM     10  C   UNL     1      -1.436  11.846  21.125  0.00  0.00    +0.000 A 
ATOM     11  O   UNL     1      -0.286  11.058  20.929  0.00  0.00    +0.000 OA
ENDROOT
BRANCH   1  15
ATOM     12  C   UNL     1       2.595   7.098  18.872  0.00  0.00    +0.000 A 
ATOM     13  C   UNL     1       2.298   8.049  17.910  0.00  0.00    +0.000 A 
ATOM     14  C   UNL     1       1.465   9.135  18.244  0.00  0.00    +0.000 A 
ATOM     15  C   UNL     1       0.858   9.280  19.524  0.00  0.00    +0.000 A 
ATOM     16  C   UNL     1       1.279   8.395  20.510  0.00  0.00    +0.000 A 
ATOM     17  C   UNL     1       2.133   7.313  20.185  0.00  0.00    +0.000 A 
BRANCH  12  18
ATOM     18  C   UNL     1       3.306   5.805  18.508  0.00  0.00    +0.000 C 
BRANCH  18  19
ATOM     19  N   UNL     1       2.487   4.581  18.385  0.00  0.00    +0.000 NA
BRANCH  19  21
ATOM     20  C   UNL     1       4.341   4.001  16.772  0.00  0.00    +0.000 C 
ATOM     21  C   UNL     1       2.922   3.730  17.267  0.00  0.00    +0.000 C 
ENDBRANCH  19  21
BRANCH  19  22
ATOM     22  C   UNL     1       2.433   3.869  19.681  0.00  0.00    +0.000 C 
ATOM     23  C   UNL     1       1.047   3.701  20.312  0.00  0.00    +0.000 C 
ENDBRANCH  19  22
ENDBRANCH  18  19
ENDBRANCH  12  18
ENDBRANCH   1  15
BRANCH   7  24
ATOM     24  O   UNL     1      -5.118  13.813  21.460  0.00  0.00    +0.000 OA
ATOM     25  C   UNL     1      -5.262  15.204  21.236  0.00  0.00    +0.000 C 
ENDBRANCH   7  24
BRANCH   8  26
ATOM     26  O   UNL     1      -3.573  13.389  23.787  0.00  0.00    +0.000 OA
ATOM     27  C   UNL     1      -4.288  12.485  24.605  0.00  0.00    +0.000 C 
ENDBRANCH   8  26
TORSDOF 7
ENDMDL
