MODEL 1
REMARK VINA RESULT:      -4.9      0.000      0.000
REMARK  Name = 
REMARK  3 active torsions:
REMARK  status: ('A' for Active; 'I' for Inactive)
REMARK    1  A    between atoms: N_1  and  C_2
REMARK    2  A    between atoms: C_2  and  C_3
REMARK    3  A    between atoms: C_5  and  C_6
REMARK                            x       y       z     vdW  Elec       q    Type
REMARK                         _______ _______ _______ _____ _____    ______ ____
ROOT
ATOM      1  C   UNL     1       7.493   5.167  18.107  0.00  0.00    +0.000 C 
ATOM      2  C   UNL     1       6.115   4.601  18.238  0.00  0.00    +0.000 C 
ATOM      3  C   UNL     1       6.424   5.543  17.091  0.00  0.00    +0.000 C 
ENDROOT
BRANCH   3   4
ATOM      4  C   UNL     1       6.568   4.924  15.711  0.00  0.00    +0.000 A 
ATOM      5  C   UNL     1       5.946   3.782  15.270  0.00  0.00    +0.000 A 
ATOM      6  N   UNL     1       6.368   3.637  13.974  0.00  0.00    +0.000 N 
ATOM      7  C   UNL     1       7.209   4.674  13.693  0.00  0.00    +0.000 A 
ATOM      8  N   UNL     1       7.352   5.469  14.725  0.00  0.00    +0.000 NA
ATOM      9  H   UNL     1       6.107   2.900  13.338  0.00  0.00    +0.000 HD
ENDBRANCH   3   4
BRANCH   1  10
ATOM     10  C   UNL     1       8.004   6.107  19.143  0.00  0.00    +0.000 C 
BRANCH  10  11
ATOM     11  N   UNL     1       8.027   5.378  20.407  0.00  0.00    +0.000 NA
ATOM     12  H   UNL     1       7.834   4.395  20.239  0.00  0.00    +0.000 HD
ATOM     13  H   UNL     1       7.274   5.721  21.003  0.00  0.00    +0.000 HD
ENDBRANCH  10  11
ENDBRANCH   1  10
TORSDOF 3
ENDMDL
MODEL 2
REMARK VINA RESULT:      -4.9      1.791      4.922
REMARK  Name = 
REMARK  3 active torsions:
REMARK  status: ('A' for Active; 'I' for Inactive)
REMARK    1  A    between atoms: N_1  and  C_2
REMARK    2  A    between atoms: C_2  and  C_3
REMARK    3  A    between atoms: C_5  and  C_6
REMARK                            x       y       z     vdW  Elec       q    Type
REMARK                         _______ _______ _______ _____ _____    ______ ____
ROOT
ATOM      1  C   UNL     1       6.386   3.743  13.564  0.00  0.00    +0.000 C 
ATOM      2  C   UNL     1       7.219   4.985  13.527  0.00  0.00    +0.000 C 
ATOM      3  C   UNL     1       6.084   4.883  14.528  0.00  0.00    +0.000 C 
ENDROOT
BRANCH   3   4
ATOM      4  C   UNL     1       6.465   4.646  15.980  0.00  0.00    +0.000 A 
ATOM      5  C   UNL     1       5.607   4.291  16.991  0.00  0.00    +0.000 A 
ATOM      6  N   UNL     1       6.406   4.178  18.099  0.00  0.00    +0.000 N 
ATOM      7  C   UNL     1       7.685   4.463  17.718  0.00  0.00    +0.000 A 
ATOM      8  N   UNL     1       7.753   4.752  16.442  0.00  0.00    +0.000 NA
ATOM      9  H   UNL     1       6.109   3.929  19.030  0.00  0.00    +0.000 HD
ENDBRANCH   3   4
BRANCH   1  10
ATOM     10  C   UNL     1       5.518   3.405  12.401  0.00  0.00    +0.000 C 
BRANCH  10  11
ATOM     11  N   UNL     1       6.025   2.158  11.838  0.00  0.00    +0.000 NA
ATOM     12  H   UNL     1       6.959   1.976  12.196  0.00  0.00    +0.000 HD
ATOM     13  H   UNL     1       6.119   2.262  10.828  0.00  0.00    +0.000 HD
ENDBRANCH  10  11
ENDBRANCH   1  10
TORSDOF 3
ENDMDL
MODEL 3
REMARK VINA RESULT:      -4.7      3.798      4.595
REMARK  Name = 
REMARK  3 active torsions:
REMARK  status: ('A' for Active; 'I' for Inactive)
REMARK    1  A    between atoms: N_1  and  C_2
REMARK    2  A    between atoms: C_2  and  C_3
REMARK    3  A    between atoms: C_5  and  C_6
REMARK                            x       y       z     vdW  Elec       q    Type
REMARK                         _______ _______ _______ _____ _____    ______ ____
ROOT
ATOM      1  C   UNL     1       5.541   4.473  17.438  0.00  0.00    +0.000 C 
ATOM      2  C   UNL     1       4.476   5.415  16.973  0.00  0.00    +0.000 C 
ATOM      3  C   UNL     1       4.332   3.933  16.685  0.00  0.00    +0.000 C 
ENDROOT
BRANCH   3   4
ATOM      4  C   UNL     1       3.318   3.165  17.516  0.00  0.00    +0.000 A 
ATOM      5  C   UNL     1       3.468   1.884  17.990  0.00  0.00    +0.000 A 
ATOM      6  N   UNL     1       2.314   1.637  18.688  0.00  0.00    +0.000 N 
ATOM      7  C   UNL     1       1.534   2.753  18.607  0.00  0.00    +0.000 A 
ATOM      8  N   UNL     1       2.113   3.694  17.903  0.00  0.00    +0.000 NA
ATOM      9  H   UNL     1       2.079   0.786  19.174  0.00  0.00    +0.000 HD
ENDBRANCH   3   4
BRANCH   1  10
ATOM     10  C   UNL     1       6.904   4.554  16.844  0.00  0.00    +0.000 C 
BRANCH  10  11
ATOM     11  N   UNL     1       7.846   4.146  17.881  0.00  0.00    +0.000 NA
ATOM     12  H   UNL     1       7.693   3.170  18.119  0.00  0.00    +0.000 HD
ATOM     13  H   UNL     1       7.660   4.681  18.729  0.00  0.00    +0.000 HD
ENDBRANCH  10  11
ENDBRANCH   1  10
TORSDOF 3
ENDMDL
MODEL 4
REMARK VINA RESULT:      -4.7      2.134      4.994
REMARK  Name = 
REMARK  3 active torsions:
REMARK  status: ('A' for Active; 'I' for Inactive)
REMARK    1  A    between atoms: N_1  and  C_2
REMARK    2  A    between atoms: C_2  and  C_3
REMARK    3  A    between atoms: C_5  and  C_6
REMARK                            x       y       z     vdW  Elec       q    Type
REMARK                         _______ _______ _______ _____ _____    ______ ____
ROOT
ATOM      1  C   UNL     1       6.146   3.766  14.061  0.00  0.00    +0.000 C 
ATOM      2  C   UNL     1       6.982   4.954  14.417  0.00  0.00    +0.000 C 
ATOM      3  C   UNL     1       5.592   4.821  15.008  0.00  0.00    +0.000 C 
ENDROOT
BRANCH   3   4
ATOM      4  C   UNL     1       5.501   4.421  16.471  0.00  0.00    +0.000 A 
ATOM      5  C   UNL     1       6.493   4.566  17.410  0.00  0.00    +0.000 A 
ATOM      6  N   UNL     1       5.943   4.085  18.570  0.00  0.00    +0.000 N 
ATOM      7  C   UNL     1       4.672   3.679  18.289  0.00  0.00    +0.000 A 
ATOM      8  N   UNL     1       4.375   3.867  17.026  0.00  0.00    +0.000 NA
ATOM      9  H   UNL     1       6.393   4.038  19.471  0.00  0.00    +0.000 HD
ENDBRANCH   3   4
BRANCH   1  10
ATOM     10  C   UNL     1       5.671   3.596  12.660  0.00  0.00    +0.000 C 
BRANCH  10  11
ATOM     11  N   UNL     1       6.472   2.531  12.063  0.00  0.00    +0.000 NA
ATOM     12  H   UNL     1       7.360   2.456  12.553  0.00  0.00    +0.000 HD
ATOM     13  H   UNL     1       6.696   2.783  11.100  0.00  0.00    +0.000 HD
ENDBRANCH  10  11
ENDBRANCH   1  10
TORSDOF 3
ENDMDL
MODEL 5
REMARK VINA RESULT:      -4.7      3.202      4.335
REMARK  Name = 
REMARK  3 active torsions:
REMARK  status: ('A' for Active; 'I' for Inactive)
REMARK    1  A    between atoms: N_1  and  C_2
REMARK    2  A    between atoms: C_2  and  C_3
REMARK    3  A    between atoms: C_5  and  C_6
REMARK                            x       y       z     vdW  Elec       q    Type
REMARK                         _______ _______ _______ _____ _____    ______ ____
ROOT
ATOM      1  C   UNL     1       3.619   2.855  18.279  0.00  0.00    +0.000 C 
ATOM      2  C   UNL     1       3.178   3.659  17.098  0.00  0.00    +0.000 C 
ATOM      3  C   UNL     1       4.131   4.278  18.102  0.00  0.00    +0.000 C 
ENDROOT
BRANCH   3   4
ATOM      4  C   UNL     1       5.584   4.416  17.678  0.00  0.00    +0.000 A 
ATOM      5  C   UNL     1       6.049   4.434  16.386  0.00  0.00    +0.000 A 
ATOM      6  N   UNL     1       7.405   4.592  16.509  0.00  0.00    +0.000 N 
ATOM      7  C   UNL     1       7.695   4.660  17.840  0.00  0.00    +0.000 A 
ATOM      8  N   UNL     1       6.614   4.554  18.574  0.00  0.00    +0.000 NA
ATOM      9  H   UNL     1       8.072   4.648  15.756  0.00  0.00    +0.000 HD
ENDBRANCH   3   4
BRANCH   1  10
ATOM     10  C   UNL     1       2.625   2.468  19.318  0.00  0.00    +0.000 C 
BRANCH  10  11
ATOM     11  N   UNL     1       1.681   1.552  18.686  0.00  0.00    +0.000 NA
ATOM     12  H   UNL     1       1.099   2.061  18.027  0.00  0.00    +0.000 HD
ATOM     13  H   UNL     1       1.053   1.179  19.397  0.00  0.00    +0.000 HD
ENDBRANCH  10  11
ENDBRANCH   1  10
TORSDOF 3
ENDMDL
MODEL 6
REMARK VINA RESULT:      -4.7      2.423      3.126
REMARK  Name = 
REMARK  3 active torsions:
REMARK  status: ('A' for Active; 'I' for Inactive)
REMARK    1  A    between atoms: N_1  and  C_2
REMARK    2  A    between atoms: C_2  and  C_3
REMARK    3  A    between atoms: C_5  and  C_6
REMARK                            x       y       z     vdW  Elec       q    Type
REMARK                         _______ _______ _______ _____ _____    ______ ____
ROOT
ATOM      1  C   UNL     1       4.235   3.018  18.046  0.00  0.00    +0.000 C 
ATOM      2  C   UNL     1       3.234   3.675  17.150  0.00  0.00    +0.000 C 
ATOM      3  C   UNL     1       4.500   4.422  17.521  0.00  0.00    +0.000 C 
ENDROOT
BRANCH   3   4
ATOM      4  C   UNL     1       5.569   4.541  16.448  0.00  0.00    +0.000 A 
ATOM      5  C   UNL     1       6.897   4.822  16.660  0.00  0.00    +0.000 A 
ATOM      6  N   UNL     1       7.457   4.807  15.408  0.00  0.00    +0.000 N 
ATOM      7  C   UNL     1       6.466   4.526  14.514  0.00  0.00    +0.000 A 
ATOM      8  N   UNL     1       5.312   4.362  15.112  0.00  0.00    +0.000 NA
ATOM      9  H   UNL     1       8.426   4.974  15.184  0.00  0.00    +0.000 HD
ENDBRANCH   3   4
BRANCH   1  10
ATOM     10  C   UNL     1       3.876   2.730  19.463  0.00  0.00    +0.000 C 
BRANCH  10  11
ATOM     11  N   UNL     1       4.961   1.931  20.024  0.00  0.00    +0.000 NA
ATOM     12  H   UNL     1       4.834   0.956  19.770  0.00  0.00    +0.000 HD
ATOM     13  H   UNL     1       4.912   1.972  21.042  0.00  0.00    +0.000 HD
ENDBRANCH  10  11
ENDBRANCH   1  10
TORSDOF 3
ENDMDL
MODEL 7
REMARK VINA RESULT:      -4.6      3.960      4.706
REMARK  Name = 
REMARK  3 active torsions:
REMARK  status: ('A' for Active; 'I' for Inactive)
REMARK    1  A    between atoms: N_1  and  C_2
REMARK    2  A    between atoms: C_2  and  C_3
REMARK    3  A    between atoms: C_5  and  C_6
REMARK                            x       y       z     vdW  Elec       q    Type
REMARK                         _______ _______ _______ _____ _____    ______ ____
ROOT
ATOM      1  C   UNL     1       4.781   5.176  18.508  0.00  0.00    +0.000 C 
ATOM      2  C   UNL     1       3.792   5.901  17.652  0.00  0.00    +0.000 C 
ATOM      3  C   UNL     1       4.045   4.427  17.405  0.00  0.00    +0.000 C 
ENDROOT
BRANCH   3   4
ATOM      4  C   UNL     1       2.968   3.457  17.862  0.00  0.00    +0.000 A 
ATOM      5  C   UNL     1       3.099   2.093  17.957  0.00  0.00    +0.000 A 
ATOM      6  N   UNL     1       1.884   1.661  18.423  0.00  0.00    +0.000 N 
ATOM      7  C   UNL     1       1.089   2.758  18.585  0.00  0.00    +0.000 A 
ATOM      8  N   UNL     1       1.716   3.859  18.252  0.00  0.00    +0.000 NA
ATOM      9  H   UNL     1       1.621   0.707  18.614  0.00  0.00    +0.000 HD
ENDBRANCH   3   4
BRANCH   1  10
ATOM     10  C   UNL     1       6.224   5.534  18.430  0.00  0.00    +0.000 C 
BRANCH  10  11
ATOM     11  N   UNL     1       6.804   5.260  19.741  0.00  0.00    +0.000 NA
ATOM     12  H   UNL     1       7.665   5.788  19.851  0.00  0.00    +0.000 HD
ATOM     13  H   UNL     1       7.064   4.275  19.790  0.00  0.00    +0.000 HD
ENDBRANCH  10  11
ENDBRANCH   1  10
TORSDOF 3
ENDMDL
MODEL 8
REMARK VINA RESULT:      -4.6      3.005      3.875
REMARK  Name = 
REMARK  3 active torsions:
REMARK  status: ('A' for Active; 'I' for Inactive)
REMARK    1  A    between atoms: N_1  and  C_2
REMARK    2  A    between atoms: C_2  and  C_3
REMARK    3  A    between atoms: C_5  and  C_6
REMARK                            x       y       z     vdW  Elec       q    Type
REMARK                         _______ _______ _______ _____ _____    ______ ____
ROOT
ATOM      1  C   UNL     1       3.863   2.792  17.760  0.00  0.00    +0.000 C 
ATOM      2  C   UNL     1       3.202   4.052  17.296  0.00  0.00    +0.000 C 
ATOM      3  C   UNL     1       4.597   4.120  17.888  0.00  0.00    +0.000 C 
ENDROOT
BRANCH   3   4
ATOM      4  C   UNL     1       5.746   4.343  16.919  0.00  0.00    +0.000 A 
ATOM      5  C   UNL     1       7.065   4.521  17.260  0.00  0.00    +0.000 A 
ATOM      6  N   UNL     1       7.714   4.664  16.061  0.00  0.00    +0.000 N 
ATOM      7  C   UNL     1       6.781   4.570  15.070  0.00  0.00    +0.000 A 
ATOM      8  N   UNL     1       5.580   4.378  15.558  0.00  0.00    +0.000 NA
ATOM      9  H   UNL     1       8.703   4.813  15.929  0.00  0.00    +0.000 HD
ENDBRANCH   3   4
BRANCH   1  10
ATOM     10  C   UNL     1       3.302   2.053  18.925  0.00  0.00    +0.000 C 
BRANCH  10  11
ATOM     11  N   UNL     1       1.957   1.625  18.551  0.00  0.00    +0.000 NA
ATOM     12  H   UNL     1       1.834   0.644  18.785  0.00  0.00    +0.000 HD
ATOM     13  H   UNL     1       1.855   1.694  17.539  0.00  0.00    +0.000 HD
ENDBRANCH  10  11
ENDBRANCH   1  10
TORSDOF 3
ENDMDL
MODEL 9
REMARK VINA RESULT:      -4.5      4.141      5.123
REMARK  Name = 
REMARK  3 active torsions:
REMARK  status: ('A' for Active; 'I' for Inactive)
REMARK    1  A    between atoms: N_1  and  C_2
REMARK    2  A    between atoms: C_2  and  C_3
REMARK    3  A    between atoms: C_5  and  C_6
REMARK                            x       y       z     vdW  Elec       q    Type
REMARK                         _______ _______ _______ _____ _____    ______ ____
ROOT
ATOM      1  C   UNL     1       2.000   3.216  19.642  0.00  0.00    +0.000 C 
ATOM      2  C   UNL     1       1.468   3.648  18.313  0.00  0.00    +0.000 C 
ATOM      3  C   UNL     1       2.573   4.455  18.967  0.00  0.00    +0.000 C 
ENDROOT
BRANCH   3   4
ATOM      4  C   UNL     1       3.969   4.310  18.385  0.00  0.00    +0.000 A 
ATOM      5  C   UNL     1       5.136   4.209  19.103  0.00  0.00    +0.000 A 
ATOM      6  N   UNL     1       6.116   4.081  18.152  0.00  0.00    +0.000 N 
ATOM      7  C   UNL     1       5.513   4.112  16.929  0.00  0.00    +0.000 A 
ATOM      8  N   UNL     1       4.214   4.251  17.036  0.00  0.00    +0.000 NA
ATOM      9  H   UNL     1       7.105   3.983  18.322  0.00  0.00    +0.000 HD
ENDBRANCH   3   4
BRANCH   1  10
ATOM     10  C   UNL     1       1.117   3.273  20.841  0.00  0.00    +0.000 C 
BRANCH  10  11
ATOM     11  N   UNL     1       1.852   2.660  21.942  0.00  0.00    +0.000 NA
ATOM     12  H   UNL     1       1.198   2.287  22.625  0.00  0.00    +0.000 HD
ATOM     13  H   UNL     1       2.391   3.380  22.424  0.00  0.00    +0.000 HD
ENDBRANCH  10  11
ENDBRANCH   1  10
TORSDOF 3
ENDMDL
