MODEL 1
REMARK VINA RESULT:      -8.4      0.000      0.000
REMARK  Name = 
REMARK  7 active torsions:
REMARK  status: ('A' for Active; 'I' for Inactive)
REMARK    1  A    between atoms: C_1  and  N_2
REMARK    2  A    between atoms: C_3  and  C_4
REMARK    3  A    between atoms: C_4  and  C_6
REMARK    4  A    between atoms: C_6  and  S_7
REMARK    5  A    between atoms: S_7  and  C_8
REMARK    6  A    between atoms: C_11  and  C_12
REMARK    7  A    between atoms: N_14  and  C_15
REMARK                            x       y       z     vdW  Elec       q    Type
REMARK                         _______ _______ _______ _____ _____    ______ ____
ROOT
ATOM      1  C   UNL     1       6.782   5.357  17.030  0.00  0.00    +0.000 A 
ATOM      2  C   UNL     1       7.467   5.458  18.246  0.00  0.00    +0.000 A 
ATOM      3  C   UNL     1       7.986   6.693  18.663  0.00  0.00    +0.000 A 
ATOM      4  C   UNL     1       7.808   7.806  17.848  0.00  0.00    +0.000 A 
ATOM      5  C   UNL     1       7.105   7.616  16.656  0.00  0.00    +0.000 A 
ATOM      6  N   UNL     1       6.600   6.420  16.224  0.00  0.00    +0.000 NA
ENDROOT
BRANCH   4   7
ATOM      7  C   UNL     1       8.244   9.181  18.203  0.00  0.00    +0.000 C 
ATOM      8  O   UNL     1       7.874  10.086  17.467  0.00  0.00    +0.000 OA
ATOM      9  N   UNL     1       9.089   9.325  19.304  0.00  0.00    +0.000 N 
ATOM     10  H   UNL     1       9.492   8.489  19.706  0.00  0.00    +0.000 HD
BRANCH   9  11
ATOM     11  C   UNL     1       9.634  10.559  19.747  0.00  0.00    +0.000 A 
ATOM     12  C   UNL     1       9.285  11.156  20.965  0.00  0.00    +0.000 A 
ATOM     13  C   UNL     1       9.797  12.404  21.330  0.00  0.00    +0.000 A 
ATOM     14  C   UNL     1      10.664  13.063  20.474  0.00  0.00    +0.000 A 
ATOM     15  F   UNL     1      11.131  14.273  20.809  0.00  0.00    +0.000 F 
ATOM     16  C   UNL     1      11.052  12.480  19.274  0.00  0.00    +0.000 A 
ATOM     17  C   UNL     1      10.554  11.222  18.917  0.00  0.00    +0.000 A 
ENDBRANCH   9  11
ENDBRANCH   4   7
BRANCH   1  18
ATOM     18  S   UNL     1       6.134   3.748  16.581  0.00  0.00    +0.000 S 
BRANCH  18  19
ATOM     19  C   UNL     1       4.327   3.894  16.906  0.00  0.00    +0.000 C 
BRANCH  19  20
ATOM     20  C   UNL     1       4.044   4.182  18.407  0.00  0.00    +0.000 C 
ATOM     21  O   UNL     1       4.378   3.399  19.304  0.00  0.00    +0.000 OA
BRANCH  20  24
ATOM     22  C   UNL     1       2.347   5.061  21.040  0.00  0.00    +0.000 C 
ATOM     23  N   UNL     1       2.636   5.807  19.837  0.00  0.00    +0.000 N 
ATOM     24  C   UNL     1       3.355   5.442  18.702  0.00  0.00    +0.000 A 
ATOM     25  N   UNL     1       3.351   6.439  17.833  0.00  0.00    +0.000 NA
ATOM     26  C   UNL     1       2.629   7.458  18.403  0.00  0.00    +0.000 A 
ATOM     27  C   UNL     1       2.322   8.728  17.898  0.00  0.00    +0.000 A 
ATOM     28  C   UNL     1       1.559   9.604  18.686  0.00  0.00    +0.000 A 
ATOM     29  C   UNL     1       1.109   9.225  19.949  0.00  0.00    +0.000 A 
ATOM     30  C   UNL     1       1.407   7.958  20.466  0.00  0.00    +0.000 A 
ATOM     31  C   UNL     1       2.170   7.099  19.661  0.00  0.00    +0.000 A 
ENDBRANCH  20  24
ENDBRANCH  19  20
ENDBRANCH  18  19
ENDBRANCH   1  18
TORSDOF 6
ENDMDL
MODEL 2
REMARK VINA RESULT:      -8.1      3.972      6.760
REMARK  Name = 
REMARK  7 active torsions:
REMARK  status: ('A' for Active; 'I' for Inactive)
REMARK    1  A    between atoms: C_1  and  N_2
REMARK    2  A    between atoms: C_3  and  C_4
REMARK    3  A    between atoms: C_4  and  C_6
REMARK    4  A    between atoms: C_6  and  S_7
REMARK    5  A    between atoms: S_7  and  C_8
REMARK    6  A    between atoms: C_11  and  C_12
REMARK    7  A    between atoms: N_14  and  C_15
REMARK                            x       y       z     vdW  Elec       q    Type
REMARK                         _______ _______ _______ _____ _____    ______ ____
ROOT
ATOM      1  C   UNL     1       2.047   5.869  20.178  0.00  0.00    +0.000 A 
ATOM      2  C   UNL     1       2.432   6.116  18.856  0.00  0.00    +0.000 A 
ATOM      3  C   UNL     1       2.302   7.402  18.311  0.00  0.00    +0.000 A 
ATOM      4  C   UNL     1       1.784   8.419  19.106  0.00  0.00    +0.000 A 
ATOM      5  C   UNL     1       1.433   8.086  20.415  0.00  0.00    +0.000 A 
ATOM      6  N   UNL     1       1.540   6.838  20.965  0.00  0.00    +0.000 NA
ENDROOT
BRANCH   4   7
ATOM      7  C   UNL     1       1.660   9.836  18.675  0.00  0.00    +0.000 C 
ATOM      8  O   UNL     1       2.092  10.116  17.565  0.00  0.00    +0.000 OA
ATOM      9  N   UNL     1       1.122  10.742  19.589  0.00  0.00    +0.000 N 
ATOM     10  H   UNL     1       0.993  10.434  20.544  0.00  0.00    +0.000 HD
BRANCH   9  11
ATOM     11  C   UNL     1       0.978  12.135  19.354  0.00  0.00    +0.000 A 
ATOM     12  C   UNL     1      -0.179  12.703  18.807  0.00  0.00    +0.000 A 
ATOM     13  C   UNL     1      -0.251  14.072  18.532  0.00  0.00    +0.000 A 
ATOM     14  C   UNL     1       0.840  14.881  18.806  0.00  0.00    +0.000 A 
ATOM     15  F   UNL     1       0.784  16.187  18.514  0.00  0.00    +0.000 F 
ATOM     16  C   UNL     1       1.989  14.350  19.379  0.00  0.00    +0.000 A 
ATOM     17  C   UNL     1       2.054  12.982  19.671  0.00  0.00    +0.000 A 
ENDBRANCH   9  11
ENDBRANCH   4   7
BRANCH   1  18
ATOM     18  S   UNL     1       2.264   4.204  20.803  0.00  0.00    +0.000 S 
BRANCH  18  19
ATOM     19  C   UNL     1       2.261   3.160  19.286  0.00  0.00    +0.000 C 
BRANCH  19  20
ATOM     20  C   UNL     1       3.690   2.649  18.949  0.00  0.00    +0.000 C 
ATOM     21  O   UNL     1       3.976   1.445  18.942  0.00  0.00    +0.000 OA
BRANCH  20  24
ATOM     22  C   UNL     1       4.247   4.231  16.161  0.00  0.00    +0.000 C 
ATOM     23  N   UNL     1       4.909   4.351  17.439  0.00  0.00    +0.000 N 
ATOM     24  C   UNL     1       4.686   3.678  18.637  0.00  0.00    +0.000 A 
ATOM     25  N   UNL     1       5.544   4.098  19.551  0.00  0.00    +0.000 NA
ATOM     26  C   UNL     1       6.330   5.049  18.948  0.00  0.00    +0.000 A 
ATOM     27  C   UNL     1       7.391   5.798  19.476  0.00  0.00    +0.000 A 
ATOM     28  C   UNL     1       8.044   6.723  18.646  0.00  0.00    +0.000 A 
ATOM     29  C   UNL     1       7.652   6.900  17.320  0.00  0.00    +0.000 A 
ATOM     30  C   UNL     1       6.595   6.156  16.780  0.00  0.00    +0.000 A 
ATOM     31  C   UNL     1       5.957   5.237  17.626  0.00  0.00    +0.000 A 
ENDBRANCH  20  24
ENDBRANCH  19  20
ENDBRANCH  18  19
ENDBRANCH   1  18
TORSDOF 6
ENDMDL
MODEL 3
REMARK VINA RESULT:      -8.0      5.488      8.926
REMARK  Name = 
REMARK  7 active torsions:
REMARK  status: ('A' for Active; 'I' for Inactive)
REMARK    1  A    between atoms: C_1  and  N_2
REMARK    2  A    between atoms: C_3  and  C_4
REMARK    3  A    between atoms: C_4  and  C_6
REMARK    4  A    between atoms: C_6  and  S_7
REMARK    5  A    between atoms: S_7  and  C_8
REMARK    6  A    between atoms: C_11  and  C_12
REMARK    7  A    between atoms: N_14  and  C_15
REMARK                            x       y       z     vdW  Elec       q    Type
REMARK                         _______ _______ _______ _____ _____    ______ ____
ROOT
ATOM      1  C   UNL     1       1.575   8.041  20.054  0.00  0.00    +0.000 A 
ATOM      2  C   UNL     1       1.002   7.933  21.326  0.00  0.00    +0.000 A 
ATOM      3  C   UNL     1       0.196   8.966  21.827  0.00  0.00    +0.000 A 
ATOM      4  C   UNL     1      -0.020  10.092  21.038  0.00  0.00    +0.000 A 
ATOM      5  C   UNL     1       0.584  10.112  19.780  0.00  0.00    +0.000 A 
ATOM      6  N   UNL     1       1.383   9.123  19.275  0.00  0.00    +0.000 NA
ENDROOT
BRANCH   4   7
ATOM      7  C   UNL     1      -0.907  11.222  21.419  0.00  0.00    +0.000 C 
ATOM      8  O   UNL     1      -1.323  11.927  20.509  0.00  0.00    +0.000 OA
ATOM      9  N   UNL     1      -1.141  11.428  22.778  0.00  0.00    +0.000 N 
ATOM     10  H   UNL     1      -0.579  10.910  23.441  0.00  0.00    +0.000 HD
BRANCH   9  11
ATOM     11  C   UNL     1      -1.922  12.487  23.310  0.00  0.00    +0.000 A 
ATOM     12  C   UNL     1      -3.283  12.355  23.615  0.00  0.00    +0.000 A 
ATOM     13  C   UNL     1      -4.029  13.444  24.075  0.00  0.00    +0.000 A 
ATOM     14  C   UNL     1      -3.412  14.675  24.235  0.00  0.00    +0.000 A 
ATOM     15  F   UNL     1      -4.132  15.727  24.646  0.00  0.00    +0.000 F 
ATOM     16  C   UNL     1      -2.056  14.826  23.971  0.00  0.00    +0.000 A 
ATOM     17  C   UNL     1      -1.306  13.731  23.527  0.00  0.00    +0.000 A 
ENDBRANCH   9  11
ENDBRANCH   4   7
BRANCH   1  18
ATOM     18  S   UNL     1       2.575   6.668  19.482  0.00  0.00    +0.000 S 
BRANCH  18  19
ATOM     19  C   UNL     1       2.181   5.313  20.665  0.00  0.00    +0.000 C 
BRANCH  19  20
ATOM     20  C   UNL     1       2.963   4.015  20.317  0.00  0.00    +0.000 C 
ATOM     21  O   UNL     1       2.802   2.960  20.942  0.00  0.00    +0.000 OA
BRANCH  20  24
ATOM     22  C   UNL     1       2.519   3.387  17.155  0.00  0.00    +0.000 C 
ATOM     23  N   UNL     1       3.701   3.844  17.849  0.00  0.00    +0.000 N 
ATOM     24  C   UNL     1       3.907   4.111  19.200  0.00  0.00    +0.000 A 
ATOM     25  N   UNL     1       5.158   4.494  19.393  0.00  0.00    +0.000 NA
ATOM     26  C   UNL     1       5.770   4.477  18.165  0.00  0.00    +0.000 A 
ATOM     27  C   UNL     1       7.092   4.792  17.820  0.00  0.00    +0.000 A 
ATOM     28  C   UNL     1       7.481   4.698  16.474  0.00  0.00    +0.000 A 
ATOM     29  C   UNL     1       6.576   4.300  15.492  0.00  0.00    +0.000 A 
ATOM     30  C   UNL     1       5.253   3.981  15.822  0.00  0.00    +0.000 A 
ATOM     31  C   UNL     1       4.886   4.080  17.173  0.00  0.00    +0.000 A 
ENDBRANCH  20  24
ENDBRANCH  19  20
ENDBRANCH  18  19
ENDBRANCH   1  18
TORSDOF 6
ENDMDL
MODEL 4
REMARK VINA RESULT:      -7.9      5.233      8.766
REMARK  Name = 
REMARK  7 active torsions:
REMARK  status: ('A' for Active; 'I' for Inactive)
REMARK    1  A    between atoms: C_1  and  N_2
REMARK    2  A    between atoms: C_3  and  C_4
REMARK    3  A    between atoms: C_4  and  C_6
REMARK    4  A    between atoms: C_6  and  S_7
REMARK    5  A    between atoms: S_7  and  C_8
REMARK    6  A    between atoms: C_11  and  C_12
REMARK    7  A    between atoms: N_14  and  C_15
REMARK                            x       y       z     vdW  Elec       q    Type
REMARK                         _______ _______ _______ _____ _____    ______ ____
ROOT
ATOM      1  C   UNL     1       1.809   8.112  19.519  0.00  0.00    +0.000 A 
ATOM      2  C   UNL     1       1.344   7.922  20.825  0.00  0.00    +0.000 A 
ATOM      3  C   UNL     1       0.498   8.871  21.417  0.00  0.00    +0.000 A 
ATOM      4  C   UNL     1       0.135   9.997  20.685  0.00  0.00    +0.000 A 
ATOM      5  C   UNL     1       0.639  10.102  19.387  0.00  0.00    +0.000 A 
ATOM      6  N   UNL     1       1.474   9.196  18.793  0.00  0.00    +0.000 NA
ENDROOT
BRANCH   4   7
ATOM      7  C   UNL     1      -0.809  11.039  21.168  0.00  0.00    +0.000 C 
ATOM      8  O   UNL     1      -1.466  11.625  20.317  0.00  0.00    +0.000 OA
ATOM      9  N   UNL     1      -0.825  11.311  22.535  0.00  0.00    +0.000 N 
ATOM     10  H   UNL     1      -0.093  10.911  23.108  0.00  0.00    +0.000 HD
BRANCH   9  11
ATOM     11  C   UNL     1      -1.629  12.306  23.151  0.00  0.00    +0.000 A 
ATOM     12  C   UNL     1      -2.950  12.079  23.556  0.00  0.00    +0.000 A 
ATOM     13  C   UNL     1      -3.726  13.107  24.098  0.00  0.00    +0.000 A 
ATOM     14  C   UNL     1      -3.181  14.373  24.237  0.00  0.00    +0.000 A 
ATOM     15  F   UNL     1      -3.933  15.367  24.727  0.00  0.00    +0.000 F 
ATOM     16  C   UNL     1      -1.862  14.619  23.874  0.00  0.00    +0.000 A 
ATOM     17  C   UNL     1      -1.079  13.584  23.348  0.00  0.00    +0.000 A 
ENDBRANCH   9  11
ENDBRANCH   4   7
BRANCH   1  18
ATOM     18  S   UNL     1       2.871   6.843  18.829  0.00  0.00    +0.000 S 
BRANCH  18  19
ATOM     19  C   UNL     1       2.330   5.304  19.683  0.00  0.00    +0.000 C 
BRANCH  19  20
ATOM     20  C   UNL     1       3.354   4.153  19.477  0.00  0.00    +0.000 C 
ATOM     21  O   UNL     1       3.418   3.182  20.239  0.00  0.00    +0.000 OA
BRANCH  20  24
ATOM     22  C   UNL     1       6.391   5.309  19.308  0.00  0.00    +0.000 C 
ATOM     23  N   UNL     1       5.546   4.776  18.264  0.00  0.00    +0.000 N 
ATOM     24  C   UNL     1       4.245   4.284  18.320  0.00  0.00    +0.000 A 
ATOM     25  N   UNL     1       3.856   3.914  17.112  0.00  0.00    +0.000 NA
ATOM     26  C   UNL     1       4.906   4.164  16.264  0.00  0.00    +0.000 A 
ATOM     27  C   UNL     1       5.009   3.957  14.882  0.00  0.00    +0.000 A 
ATOM     28  C   UNL     1       6.207   4.297  14.233  0.00  0.00    +0.000 A 
ATOM     29  C   UNL     1       7.280   4.831  14.944  0.00  0.00    +0.000 A 
ATOM     30  C   UNL     1       7.191   5.045  16.325  0.00  0.00    +0.000 A 
ATOM     31  C   UNL     1       5.984   4.700  16.952  0.00  0.00    +0.000 A 
ENDBRANCH  20  24
ENDBRANCH  19  20
ENDBRANCH  18  19
ENDBRANCH   1  18
TORSDOF 6
ENDMDL
MODEL 5
REMARK VINA RESULT:      -7.8      1.660      1.818
REMARK  Name = 
REMARK  7 active torsions:
REMARK  status: ('A' for Active; 'I' for Inactive)
REMARK    1  A    between atoms: C_1  and  N_2
REMARK    2  A    between atoms: C_3  and  C_4
REMARK    3  A    between atoms: C_4  and  C_6
REMARK    4  A    between atoms: C_6  and  S_7
REMARK    5  A    between atoms: S_7  and  C_8
REMARK    6  A    between atoms: C_11  and  C_12
REMARK    7  A    between atoms: N_14  and  C_15
REMARK                            x       y       z     vdW  Elec       q    Type
REMARK                         _______ _______ _______ _____ _____    ______ ____
ROOT
ATOM      1  C   UNL     1       7.255   6.339  17.623  0.00  0.00    +0.000 A 
ATOM      2  C   UNL     1       8.015   6.386  18.796  0.00  0.00    +0.000 A 
ATOM      3  C   UNL     1       8.624   7.584  19.196  0.00  0.00    +0.000 A 
ATOM      4  C   UNL     1       8.459   8.717  18.405  0.00  0.00    +0.000 A 
ATOM      5  C   UNL     1       7.679   8.582  17.255  0.00  0.00    +0.000 A 
ATOM      6  N   UNL     1       7.085   7.422  16.840  0.00  0.00    +0.000 NA
ENDROOT
BRANCH   4   7
ATOM      7  C   UNL     1       8.991  10.062  18.749  0.00  0.00    +0.000 C 
ATOM      8  O   UNL     1       9.395  10.219  19.894  0.00  0.00    +0.000 OA
ATOM      9  N   UNL     1       8.928  11.050  17.768  0.00  0.00    +0.000 N 
ATOM     10  H   UNL     1       8.386  10.859  16.935  0.00  0.00    +0.000 HD
BRANCH   9  11
ATOM     11  C   UNL     1       9.347  12.394  17.949  0.00  0.00    +0.000 A 
ATOM     12  C   UNL     1       8.605  13.335  18.675  0.00  0.00    +0.000 A 
ATOM     13  C   UNL     1       9.024  14.665  18.771  0.00  0.00    +0.000 A 
ATOM     14  C   UNL     1      10.192  15.061  18.140  0.00  0.00    +0.000 A 
ATOM     15  F   UNL     1      10.578  16.342  18.205  0.00  0.00    +0.000 F 
ATOM     16  C   UNL     1      10.964  14.142  17.440  0.00  0.00    +0.000 A 
ATOM     17  C   UNL     1      10.554  12.805  17.358  0.00  0.00    +0.000 A 
ENDBRANCH   9  11
ENDBRANCH   4   7
BRANCH   1  18
ATOM     18  S   UNL     1       6.495   4.774  17.195  0.00  0.00    +0.000 S 
BRANCH  18  19
ATOM     19  C   UNL     1       4.837   5.251  16.549  0.00  0.00    +0.000 C 
BRANCH  19  20
ATOM     20  C   UNL     1       3.711   4.881  17.555  0.00  0.00    +0.000 C 
ATOM     21  O   UNL     1       3.386   3.710  17.782  0.00  0.00    +0.000 OA
BRANCH  20  24
ATOM     22  C   UNL     1       2.509   5.093  20.571  0.00  0.00    +0.000 C 
ATOM     23  N   UNL     1       2.548   6.085  19.521  0.00  0.00    +0.000 N 
ATOM     24  C   UNL     1       3.053   6.007  18.226  0.00  0.00    +0.000 A 
ATOM     25  N   UNL     1       2.858   7.156  17.602  0.00  0.00    +0.000 NA
ATOM     26  C   UNL     1       2.225   7.987  18.492  0.00  0.00    +0.000 A 
ATOM     27  C   UNL     1       1.793   9.310  18.328  0.00  0.00    +0.000 A 
ATOM     28  C   UNL     1       1.164   9.955  19.405  0.00  0.00    +0.000 A 
ATOM     29  C   UNL     1       0.969   9.299  20.619  0.00  0.00    +0.000 A 
ATOM     30  C   UNL     1       1.394   7.976  20.796  0.00  0.00    +0.000 A 
ATOM     31  C   UNL     1       2.019   7.351  19.707  0.00  0.00    +0.000 A 
ENDBRANCH  20  24
ENDBRANCH  19  20
ENDBRANCH  18  19
ENDBRANCH   1  18
TORSDOF 6
ENDMDL
MODEL 6
REMARK VINA RESULT:      -7.7      5.407      8.903
REMARK  Name = 
REMARK  7 active torsions:
REMARK  status: ('A' for Active; 'I' for Inactive)
REMARK    1  A    between atoms: C_1  and  N_2
REMARK    2  A    between atoms: C_3  and  C_4
REMARK    3  A    between atoms: C_4  and  C_6
REMARK    4  A    between atoms: C_6  and  S_7
REMARK    5  A    between atoms: S_7  and  C_8
REMARK    6  A    between atoms: C_11  and  C_12
REMARK    7  A    between atoms: N_14  and  C_15
REMARK                            x       y       z     vdW  Elec       q    Type
REMARK                         _______ _______ _______ _____ _____    ______ ____
ROOT
ATOM      1  C   UNL     1       1.550   8.324  19.967  0.00  0.00    +0.000 A 
ATOM      2  C   UNL     1       1.136   9.232  18.987  0.00  0.00    +0.000 A 
ATOM      3  C   UNL     1       0.375  10.355  19.341  0.00  0.00    +0.000 A 
ATOM      4  C   UNL     1       0.041  10.545  20.678  0.00  0.00    +0.000 A 
ATOM      5  C   UNL     1       0.502   9.594  21.590  0.00  0.00    +0.000 A 
ATOM      6  N   UNL     1       1.235   8.486  21.267  0.00  0.00    +0.000 NA
ENDROOT
BRANCH   4   7
ATOM      7  C   UNL     1      -0.698  11.727  21.196  0.00  0.00    +0.000 C 
ATOM      8  O   UNL     1      -0.856  12.662  20.422  0.00  0.00    +0.000 OA
ATOM      9  N   UNL     1      -1.096  11.703  22.532  0.00  0.00    +0.000 N 
ATOM     10  H   UNL     1      -0.730  10.968  23.124  0.00  0.00    +0.000 HD
BRANCH   9  11
ATOM     11  C   UNL     1      -1.766  12.765  23.193  0.00  0.00    +0.000 A 
ATOM     12  C   UNL     1      -1.140  13.971  23.534  0.00  0.00    +0.000 A 
ATOM     13  C   UNL     1      -1.821  14.963  24.244  0.00  0.00    +0.000 A 
ATOM     14  C   UNL     1      -3.139  14.754  24.615  0.00  0.00    +0.000 A 
ATOM     15  F   UNL     1      -3.784  15.691  25.322  0.00  0.00    +0.000 F 
ATOM     16  C   UNL     1      -3.796  13.581  24.262  0.00  0.00    +0.000 A 
ATOM     17  C   UNL     1      -3.119  12.594  23.536  0.00  0.00    +0.000 A 
ENDBRANCH   9  11
ENDBRANCH   4   7
BRANCH   1  18
ATOM     18  S   UNL     1       2.536   6.926  19.433  0.00  0.00    +0.000 S 
BRANCH  18  19
ATOM     19  C   UNL     1       1.896   5.525  20.441  0.00  0.00    +0.000 C 
BRANCH  19  20
ATOM     20  C   UNL     1       2.782   4.258  20.275  0.00  0.00    +0.000 C 
ATOM     21  O   UNL     1       2.665   3.270  21.009  0.00  0.00    +0.000 OA
BRANCH  20  24
ATOM     22  C   UNL     1       2.473   3.440  17.141  0.00  0.00    +0.000 C 
ATOM     23  N   UNL     1       3.621   3.952  17.853  0.00  0.00    +0.000 N 
ATOM     24  C   UNL     1       3.770   4.300  19.192  0.00  0.00    +0.000 A 
ATOM     25  N   UNL     1       5.008   4.709  19.412  0.00  0.00    +0.000 NA
ATOM     26  C   UNL     1       5.669   4.629  18.212  0.00  0.00    +0.000 A 
ATOM     27  C   UNL     1       7.000   4.939  17.902  0.00  0.00    +0.000 A 
ATOM     28  C   UNL     1       7.445   4.771  16.581  0.00  0.00    +0.000 A 
ATOM     29  C   UNL     1       6.584   4.305  15.589  0.00  0.00    +0.000 A 
ATOM     30  C   UNL     1       5.252   3.989  15.885  0.00  0.00    +0.000 A 
ATOM     31  C   UNL     1       4.830   4.163  17.212  0.00  0.00    +0.000 A 
ENDBRANCH  20  24
ENDBRANCH  19  20
ENDBRANCH  18  19
ENDBRANCH   1  18
TORSDOF 6
ENDMDL
MODEL 7
REMARK VINA RESULT:      -7.6      1.583      1.944
REMARK  Name = 
REMARK  7 active torsions:
REMARK  status: ('A' for Active; 'I' for Inactive)
REMARK    1  A    between atoms: C_1  and  N_2
REMARK    2  A    between atoms: C_3  and  C_4
REMARK    3  A    between atoms: C_4  and  C_6
REMARK    4  A    between atoms: C_6  and  S_7
REMARK    5  A    between atoms: S_7  and  C_8
REMARK    6  A    between atoms: C_11  and  C_12
REMARK    7  A    between atoms: N_14  and  C_15
REMARK                            x       y       z     vdW  Elec       q    Type
REMARK                         _______ _______ _______ _____ _____    ______ ____
ROOT
ATOM      1  C   UNL     1       7.121   6.093  17.878  0.00  0.00    +0.000 A 
ATOM      2  C   UNL     1       6.869   7.196  17.055  0.00  0.00    +0.000 A 
ATOM      3  C   UNL     1       7.472   8.432  17.326  0.00  0.00    +0.000 A 
ATOM      4  C   UNL     1       8.319   8.539  18.424  0.00  0.00    +0.000 A 
ATOM      5  C   UNL     1       8.520   7.387  19.187  0.00  0.00    +0.000 A 
ATOM      6  N   UNL     1       7.935   6.175  18.949  0.00  0.00    +0.000 NA
ENDROOT
BRANCH   4   7
ATOM      7  C   UNL     1       9.074   9.769  18.781  0.00  0.00    +0.000 C 
ATOM      8  O   UNL     1       9.188  10.019  19.974  0.00  0.00    +0.000 OA
ATOM      9  N   UNL     1       9.533  10.569  17.736  0.00  0.00    +0.000 N 
ATOM     10  H   UNL     1       9.200  10.369  16.802  0.00  0.00    +0.000 HD
BRANCH   9  11
ATOM     11  C   UNL     1      10.227  11.796  17.905  0.00  0.00    +0.000 A 
ATOM     12  C   UNL     1      11.596  11.868  18.193  0.00  0.00    +0.000 A 
ATOM     13  C   UNL     1      12.223  13.097  18.416  0.00  0.00    +0.000 A 
ATOM     14  C   UNL     1      11.480  14.265  18.350  0.00  0.00    +0.000 A 
ATOM     15  F   UNL     1      12.073  15.440  18.594  0.00  0.00    +0.000 F 
ATOM     16  C   UNL     1      10.128  14.226  18.034  0.00  0.00    +0.000 A 
ATOM     17  C   UNL     1       9.503  12.996  17.793  0.00  0.00    +0.000 A 
ENDBRANCH   9  11
ENDBRANCH   4   7
BRANCH   1  18
ATOM     18  S   UNL     1       6.326   4.545  17.450  0.00  0.00    +0.000 S 
BRANCH  18  19
ATOM     19  C   UNL     1       4.673   5.058  16.821  0.00  0.00    +0.000 C 
BRANCH  19  20
ATOM     20  C   UNL     1       3.571   4.853  17.897  0.00  0.00    +0.000 C 
ATOM     21  O   UNL     1       3.242   3.731  18.301  0.00  0.00    +0.000 OA
BRANCH  20  24
ATOM     22  C   UNL     1       2.162   5.414  20.776  0.00  0.00    +0.000 C 
ATOM     23  N   UNL     1       2.344   6.299  19.649  0.00  0.00    +0.000 N 
ATOM     24  C   UNL     1       2.938   6.072  18.411  0.00  0.00    +0.000 A 
ATOM     25  N   UNL     1       2.866   7.167  17.674  0.00  0.00    +0.000 NA
ATOM     26  C   UNL     1       2.224   8.113  18.433  0.00  0.00    +0.000 A 
ATOM     27  C   UNL     1       1.891   9.438  18.119  0.00  0.00    +0.000 A 
ATOM     28  C   UNL     1       1.227  10.216  19.081  0.00  0.00    +0.000 A 
ATOM     29  C   UNL     1       0.899   9.688  20.328  0.00  0.00    +0.000 A 
ATOM     30  C   UNL     1       1.224   8.365  20.655  0.00  0.00    +0.000 A 
ATOM     31  C   UNL     1       1.886   7.606  19.679  0.00  0.00    +0.000 A 
ENDBRANCH  20  24
ENDBRANCH  19  20
ENDBRANCH  18  19
ENDBRANCH   1  18
TORSDOF 6
ENDMDL
MODEL 8
REMARK VINA RESULT:      -7.6      6.889     10.048
REMARK  Name = 
REMARK  7 active torsions:
REMARK  status: ('A' for Active; 'I' for Inactive)
REMARK    1  A    between atoms: C_1  and  N_2
REMARK    2  A    between atoms: C_3  and  C_4
REMARK    3  A    between atoms: C_4  and  C_6
REMARK    4  A    between atoms: C_6  and  S_7
REMARK    5  A    between atoms: S_7  and  C_8
REMARK    6  A    between atoms: C_11  and  C_12
REMARK    7  A    between atoms: N_14  and  C_15
REMARK                            x       y       z     vdW  Elec       q    Type
REMARK                         _______ _______ _______ _____ _____    ______ ____
ROOT
ATOM      1  C   UNL     1      -0.271  11.275  22.076  0.00  0.00    +0.000 A 
ATOM      2  C   UNL     1      -0.360  11.155  20.685  0.00  0.00    +0.000 A 
ATOM      3  C   UNL     1       0.246  10.072  20.031  0.00  0.00    +0.000 A 
ATOM      4  C   UNL     1       0.932   9.128  20.788  0.00  0.00    +0.000 A 
ATOM      5  C   UNL     1       0.963   9.322  22.170  0.00  0.00    +0.000 A 
ATOM      6  N   UNL     1       0.391  10.375  22.829  0.00  0.00    +0.000 NA
ENDROOT
BRANCH   4   7
ATOM      7  C   UNL     1       1.556   7.901  20.228  0.00  0.00    +0.000 C 
ATOM      8  O   UNL     1       1.635   6.933  20.974  0.00  0.00    +0.000 OA
ATOM      9  N   UNL     1       2.057   7.967  18.928  0.00  0.00    +0.000 N 
ATOM     10  H   UNL     1       2.119   8.876  18.489  0.00  0.00    +0.000 HD
BRANCH   9  11
ATOM     11  C   UNL     1       2.722   6.903  18.265  0.00  0.00    +0.000 A 
ATOM     12  C   UNL     1       2.241   5.588  18.255  0.00  0.00    +0.000 A 
ATOM     13  C   UNL     1       2.965   4.559  17.645  0.00  0.00    +0.000 A 
ATOM     14  C   UNL     1       4.177   4.844  17.038  0.00  0.00    +0.000 A 
ATOM     15  F   UNL     1       4.886   3.854  16.480  0.00  0.00    +0.000 F 
ATOM     16  C   UNL     1       4.662   6.146  17.004  0.00  0.00    +0.000 A 
ATOM     17  C   UNL     1       3.929   7.179  17.600  0.00  0.00    +0.000 A 
ENDBRANCH   9  11
ENDBRANCH   4   7
BRANCH   1  18
ATOM     18  S   UNL     1      -1.089  12.677  22.836  0.00  0.00    +0.000 S 
BRANCH  18  19
ATOM     19  C   UNL     1      -2.735  12.014  23.328  0.00  0.00    +0.000 C 
BRANCH  19  20
ATOM     20  C   UNL     1      -3.878  12.992  22.935  0.00  0.00    +0.000 C 
ATOM     21  O   UNL     1      -4.190  13.959  23.639  0.00  0.00    +0.000 OA
BRANCH  20  24
ATOM     22  C   UNL     1      -7.048  12.544  22.355  0.00  0.00    +0.000 C 
ATOM     23  N   UNL     1      -5.930  12.517  21.441  0.00  0.00    +0.000 N 
ATOM     24  C   UNL     1      -4.570  12.701  21.676  0.00  0.00    +0.000 A 
ATOM     25  N   UNL     1      -3.901  12.573  20.542  0.00  0.00    +0.000 NA
ATOM     26  C   UNL     1      -4.827  12.305  19.565  0.00  0.00    +0.000 A 
ATOM     27  C   UNL     1      -4.641  12.080  18.194  0.00  0.00    +0.000 A 
ATOM     28  C   UNL     1      -5.764  11.826  17.391  0.00  0.00    +0.000 A 
ATOM     29  C   UNL     1      -7.045  11.796  17.939  0.00  0.00    +0.000 A 
ATOM     30  C   UNL     1      -7.246  12.018  19.307  0.00  0.00    +0.000 A 
ATOM     31  C   UNL     1      -6.109  12.268  20.091  0.00  0.00    +0.000 A 
ENDBRANCH  20  24
ENDBRANCH  19  20
ENDBRANCH  18  19
ENDBRANCH   1  18
TORSDOF 6
ENDMDL
MODEL 9
REMARK VINA RESULT:      -7.5      6.018      9.350
REMARK  Name = 
REMARK  7 active torsions:
REMARK  status: ('A' for Active; 'I' for Inactive)
REMARK    1  A    between atoms: C_1  and  N_2
REMARK    2  A    between atoms: C_3  and  C_4
REMARK    3  A    between atoms: C_4  and  C_6
REMARK    4  A    between atoms: C_6  and  S_7
REMARK    5  A    between atoms: S_7  and  C_8
REMARK    6  A    between atoms: C_11  and  C_12
REMARK    7  A    between atoms: N_14  and  C_15
REMARK                            x       y       z     vdW  Elec       q    Type
REMARK                         _______ _______ _______ _____ _____    ______ ____
ROOT
ATOM      1  C   UNL     1      -0.111  11.459  21.922  0.00  0.00    +0.000 A 
ATOM      2  C   UNL     1      -0.356  10.263  22.605  0.00  0.00    +0.000 A 
ATOM      3  C   UNL     1       0.174   9.056  22.128  0.00  0.00    +0.000 A 
ATOM      4  C   UNL     1       0.943   9.072  20.969  0.00  0.00    +0.000 A 
ATOM      5  C   UNL     1       1.144  10.310  20.356  0.00  0.00    +0.000 A 
ATOM      6  N   UNL     1       0.628  11.498  20.796  0.00  0.00    +0.000 NA
ENDROOT
BRANCH   4   7
ATOM      7  C   UNL     1       1.620   7.878  20.398  0.00  0.00    +0.000 C 
ATOM      8  O   UNL     1       1.807   6.935  21.155  0.00  0.00    +0.000 OA
ATOM      9  N   UNL     1       2.042   7.950  19.071  0.00  0.00    +0.000 N 
ATOM     10  H   UNL     1       2.017   8.852  18.613  0.00  0.00    +0.000 HD
BRANCH   9  11
ATOM     11  C   UNL     1       2.743   6.921  18.391  0.00  0.00    +0.000 A 
ATOM     12  C   UNL     1       3.949   7.136  17.711  0.00  0.00    +0.000 A 
ATOM     13  C   UNL     1       4.571   6.107  16.999  0.00  0.00    +0.000 A 
ATOM     14  C   UNL     1       3.986   4.850  16.965  0.00  0.00    +0.000 A 
ATOM     15  F   UNL     1       4.565   3.871  16.258  0.00  0.00    +0.000 F 
ATOM     16  C   UNL     1       2.808   4.600  17.658  0.00  0.00    +0.000 A 
ATOM     17  C   UNL     1       2.195   5.627  18.386  0.00  0.00    +0.000 A 
ENDBRANCH   9  11
ENDBRANCH   4   7
BRANCH   1  18
ATOM     18  S   UNL     1      -0.809  12.960  22.609  0.00  0.00    +0.000 S 
BRANCH  18  19
ATOM     19  C   UNL     1      -1.841  13.632  21.241  0.00  0.00    +0.000 C 
BRANCH  19  20
ATOM     20  C   UNL     1      -3.100  12.753  20.998  0.00  0.00    +0.000 C 
ATOM     21  O   UNL     1      -3.952  12.563  21.874  0.00  0.00    +0.000 OA
BRANCH  20  24
ATOM     22  C   UNL     1      -5.596  12.814  18.912  0.00  0.00    +0.000 C 
ATOM     23  N   UNL     1      -4.296  12.198  18.779  0.00  0.00    +0.000 N 
ATOM     24  C   UNL     1      -3.222  12.159  19.663  0.00  0.00    +0.000 A 
ATOM     25  N   UNL     1      -2.231  11.464  19.131  0.00  0.00    +0.000 NA
ATOM     26  C   UNL     1      -2.658  11.050  17.894  0.00  0.00    +0.000 A 
ATOM     27  C   UNL     1      -1.993  10.282  16.929  0.00  0.00    +0.000 A 
ATOM     28  C   UNL     1      -2.652   9.988  15.725  0.00  0.00    +0.000 A 
ATOM     29  C   UNL     1      -3.946  10.449  15.485  0.00  0.00    +0.000 A 
ATOM     30  C   UNL     1      -4.624  11.215  16.441  0.00  0.00    +0.000 A 
ATOM     31  C   UNL     1      -3.946  11.495  17.638  0.00  0.00    +0.000 A 
ENDBRANCH  20  24
ENDBRANCH  19  20
ENDBRANCH  18  19
ENDBRANCH   1  18
TORSDOF 6
ENDMDL
