MODEL 1
REMARK VINA RESULT:      -7.8      0.000      0.000
REMARK  Name = 
REMARK  4 active torsions:
REMARK  status: ('A' for Active; 'I' for Inactive)
REMARK    1  A    between atoms: C_2  and  C_4
REMARK    2  A    between atoms: C_7  and  C_8
REMARK    3  A    between atoms: C_11  and  O_12
REMARK    4  A    between atoms: O_12  and  C_13
REMARK                            x       y       z     vdW  Elec       q    Type
REMARK                         _______ _______ _______ _____ _____    ______ ____
ROOT
ATOM      1  C   UNL     1       2.390   6.820  19.596  0.00  0.00    +0.000 A 
ATOM      2  C   UNL     1       1.682   7.641  20.488  0.00  0.00    +0.000 A 
ATOM      3  C   UNL     1       1.163   8.871  20.066  0.00  0.00    +0.000 A 
ATOM      4  C   UNL     1       1.345   9.298  18.751  0.00  0.00    +0.000 A 
ATOM      5  C   UNL     1       1.993   8.463  17.842  0.00  0.00    +0.000 A 
ATOM      6  C   UNL     1       2.526   7.247  18.267  0.00  0.00    +0.000 A 
ENDROOT
BRANCH   1  10
ATOM      7  C   UNL     1       2.263   3.232  19.572  0.00  0.00    +0.000 C 
ATOM      8  C   UNL     1       1.323   3.766  20.636  0.00  0.00    +0.000 C 
ATOM      9  C   UNL     1       2.113   4.917  21.228  0.00  0.00    +0.000 C 
ATOM     10  C   UNL     1       2.922   5.474  20.050  0.00  0.00    +0.000 C 
ATOM     11  N   UNL     1       2.839   4.464  18.976  0.00  0.00    +0.000 NA
ATOM     12  H   UNL     1       3.765   4.272  18.598  0.00  0.00    +0.000 HD
BRANCH   7  14
ATOM     13  N   UNL     1       2.311   1.829  17.563  0.00  0.00    +0.000 N 
ATOM     14  C   UNL     1       1.521   2.407  18.516  0.00  0.00    +0.000 C 
ATOM     15  O   UNL     1       0.295   2.315  18.472  0.00  0.00    +0.000 OA
ATOM     16  H   UNL     1       1.879   1.203  16.897  0.00  0.00    +0.000 HD
ATOM     17  H   UNL     1       3.298   1.742  17.766  0.00  0.00    +0.000 HD
ENDBRANCH   7  14
ENDBRANCH   1  10
BRANCH   4  18
ATOM     18  O   UNL     1       0.804  10.520  18.420  0.00  0.00    +0.000 OA
BRANCH  18  19
ATOM     19  C   UNL     1      -0.563  10.651  18.305  0.00  0.00    +0.000 A 
ATOM     20  C   UNL     1      -1.152  11.667  19.066  0.00  0.00    +0.000 A 
ATOM     21  C   UNL     1      -2.532  11.867  19.010  0.00  0.00    +0.000 A 
ATOM     22  C   UNL     1      -3.313  11.053  18.198  0.00  0.00    +0.000 A 
ATOM     23  F   UNL     1      -4.639  11.233  18.160  0.00  0.00    +0.000 F 
ATOM     24  C   UNL     1      -2.737  10.058  17.418  0.00  0.00    +0.000 A 
ATOM     25  C   UNL     1      -1.355   9.876  17.447  0.00  0.00    +0.000 A 
ENDBRANCH  18  19
ENDBRANCH   4  18
TORSDOF 4
ENDMDL
MODEL 2
REMARK VINA RESULT:      -7.8      0.802      1.301
REMARK  Name = 
REMARK  4 active torsions:
REMARK  status: ('A' for Active; 'I' for Inactive)
REMARK    1  A    between atoms: C_2  and  C_4
REMARK    2  A    between atoms: C_7  and  C_8
REMARK    3  A    between atoms: C_11  and  O_12
REMARK    4  A    between atoms: O_12  and  C_13
REMARK                            x       y       z     vdW  Elec       q    Type
REMARK                         _______ _______ _______ _____ _____    ______ ____
ROOT
ATOM      1  C   UNL     1       2.284   7.187  19.507  0.00  0.00    +0.000 A 
ATOM      2  C   UNL     1       2.350   7.718  18.209  0.00  0.00    +0.000 A 
ATOM      3  C   UNL     1       1.693   8.913  17.892  0.00  0.00    +0.000 A 
ATOM      4  C   UNL     1       0.959   9.592  18.866  0.00  0.00    +0.000 A 
ATOM      5  C   UNL     1       0.939   9.106  20.172  0.00  0.00    +0.000 A 
ATOM      6  C   UNL     1       1.578   7.907  20.482  0.00  0.00    +0.000 A 
ENDROOT
BRANCH   1  10
ATOM      7  C   UNL     1       2.722   3.637  19.194  0.00  0.00    +0.000 C 
ATOM      8  C   UNL     1       1.723   3.930  20.297  0.00  0.00    +0.000 C 
ATOM      9  C   UNL     1       2.329   5.140  20.980  0.00  0.00    +0.000 C 
ATOM     10  C   UNL     1       3.026   5.910  19.851  0.00  0.00    +0.000 C 
ATOM     11  N   UNL     1       3.090   4.988  18.699  0.00  0.00    +0.000 NA
ATOM     12  H   UNL     1       4.029   4.975  18.307  0.00  0.00    +0.000 HD
BRANCH   7  14
ATOM     13  N   UNL     1       1.493   1.641  18.478  0.00  0.00    +0.000 N 
ATOM     14  C   UNL     1       2.106   2.793  18.074  0.00  0.00    +0.000 C 
ATOM     15  O   UNL     1       2.204   3.081  16.881  0.00  0.00    +0.000 OA
ATOM     16  H   UNL     1       0.994   1.096  17.788  0.00  0.00    +0.000 HD
ATOM     17  H   UNL     1       1.242   1.566  19.455  0.00  0.00    +0.000 HD
ENDBRANCH   7  14
ENDBRANCH   1  10
BRANCH   4  18
ATOM     18  O   UNL     1       0.343  10.758  18.470  0.00  0.00    +0.000 OA
BRANCH  18  19
ATOM     19  C   UNL     1      -1.014  10.764  18.234  0.00  0.00    +0.000 A 
ATOM     20  C   UNL     1      -1.763  11.702  18.955  0.00  0.00    +0.000 A 
ATOM     21  C   UNL     1      -3.145  11.775  18.777  0.00  0.00    +0.000 A 
ATOM     22  C   UNL     1      -3.770  10.912  17.884  0.00  0.00    +0.000 A 
ATOM     23  F   UNL     1      -5.098  10.969  17.729  0.00  0.00    +0.000 F 
ATOM     24  C   UNL     1      -3.036   9.994  17.144  0.00  0.00    +0.000 A 
ATOM     25  C   UNL     1      -1.650   9.941  17.296  0.00  0.00    +0.000 A 
ENDBRANCH  18  19
ENDBRANCH   4  18
TORSDOF 4
ENDMDL
MODEL 3
REMARK VINA RESULT:      -7.8      1.021      1.091
REMARK  Name = 
REMARK  4 active torsions:
REMARK  status: ('A' for Active; 'I' for Inactive)
REMARK    1  A    between atoms: C_2  and  C_4
REMARK    2  A    between atoms: C_7  and  C_8
REMARK    3  A    between atoms: C_11  and  O_12
REMARK    4  A    between atoms: O_12  and  C_13
REMARK                            x       y       z     vdW  Elec       q    Type
REMARK                         _______ _______ _______ _____ _____    ______ ____
ROOT
ATOM      1  C   UNL     1       2.259   6.222  19.949  0.00  0.00    +0.000 A 
ATOM      2  C   UNL     1       1.657   7.219  20.732  0.00  0.00    +0.000 A 
ATOM      3  C   UNL     1       1.394   8.486  20.196  0.00  0.00    +0.000 A 
ATOM      4  C   UNL     1       1.731   8.774  18.873  0.00  0.00    +0.000 A 
ATOM      5  C   UNL     1       2.273   7.772  18.070  0.00  0.00    +0.000 A 
ATOM      6  C   UNL     1       2.552   6.518  18.609  0.00  0.00    +0.000 A 
ENDROOT
BRANCH   1  10
ATOM      7  C   UNL     1       2.645   2.676  19.534  0.00  0.00    +0.000 C 
ATOM      8  C   UNL     1       1.174   3.011  19.702  0.00  0.00    +0.000 C 
ATOM      9  C   UNL     1       1.200   4.086  20.771  0.00  0.00    +0.000 C 
ATOM     10  C   UNL     1       2.511   4.842  20.525  0.00  0.00    +0.000 C 
ATOM     11  N   UNL     1       3.307   4.004  19.606  0.00  0.00    +0.000 NA
ATOM     12  H   UNL     1       4.259   3.903  19.952  0.00  0.00    +0.000 HD
BRANCH   7  14
ATOM     13  N   UNL     1       3.856   0.996  18.223  0.00  0.00    +0.000 N 
ATOM     14  C   UNL     1       2.925   1.996  18.190  0.00  0.00    +0.000 C 
ATOM     15  O   UNL     1       2.409   2.355  17.133  0.00  0.00    +0.000 OA
ATOM     16  H   UNL     1       4.011   0.458  17.381  0.00  0.00    +0.000 HD
ATOM     17  H   UNL     1       4.075   0.594  19.125  0.00  0.00    +0.000 HD
ENDBRANCH   7  14
ENDBRANCH   1  10
BRANCH   4  18
ATOM     18  O   UNL     1       1.440  10.044  18.427  0.00  0.00    +0.000 OA
BRANCH  18  19
ATOM     19  C   UNL     1       0.128  10.458  18.363  0.00  0.00    +0.000 A 
ATOM     20  C   UNL     1      -0.165  11.678  18.984  0.00  0.00    +0.000 A 
ATOM     21  C   UNL     1      -1.471  12.172  18.969  0.00  0.00    +0.000 A 
ATOM     22  C   UNL     1      -2.473  11.445  18.335  0.00  0.00    +0.000 A 
ATOM     23  F   UNL     1      -3.729  11.909  18.337  0.00  0.00    +0.000 F 
ATOM     24  C   UNL     1      -2.190  10.246  17.693  0.00  0.00    +0.000 A 
ATOM     25  C   UNL     1      -0.881   9.767  17.679  0.00  0.00    +0.000 A 
ENDBRANCH  18  19
ENDBRANCH   4  18
TORSDOF 4
ENDMDL
MODEL 4
REMARK VINA RESULT:      -7.8      5.789      8.020
REMARK  Name = 
REMARK  4 active torsions:
REMARK  status: ('A' for Active; 'I' for Inactive)
REMARK    1  A    between atoms: C_2  and  C_4
REMARK    2  A    between atoms: C_7  and  C_8
REMARK    3  A    between atoms: C_11  and  O_12
REMARK    4  A    between atoms: O_12  and  C_13
REMARK                            x       y       z     vdW  Elec       q    Type
REMARK                         _______ _______ _______ _____ _____    ______ ____
ROOT
ATOM      1  C   UNL     1       4.238   5.884  18.456  0.00  0.00    +0.000 A 
ATOM      2  C   UNL     1       4.189   6.632  17.269  0.00  0.00    +0.000 A 
ATOM      3  C   UNL     1       5.220   6.541  16.326  0.00  0.00    +0.000 A 
ATOM      4  C   UNL     1       6.314   5.706  16.557  0.00  0.00    +0.000 A 
ATOM      5  C   UNL     1       6.341   4.914  17.703  0.00  0.00    +0.000 A 
ATOM      6  C   UNL     1       5.324   5.018  18.650  0.00  0.00    +0.000 A 
ENDROOT
BRANCH   1  10
ATOM      7  C   UNL     1       2.068   4.330  20.858  0.00  0.00    +0.000 C 
ATOM      8  C   UNL     1       1.479   4.177  19.468  0.00  0.00    +0.000 C 
ATOM      9  C   UNL     1       1.771   5.524  18.836  0.00  0.00    +0.000 C 
ATOM     10  C   UNL     1       3.102   5.961  19.458  0.00  0.00    +0.000 C 
ATOM     11  N   UNL     1       3.332   5.071  20.613  0.00  0.00    +0.000 NA
ATOM     12  H   UNL     1       3.585   5.615  21.436  0.00  0.00    +0.000 HD
BRANCH   7  14
ATOM     13  N   UNL     1       1.313   2.449  22.236  0.00  0.00    +0.000 N 
ATOM     14  C   UNL     1       2.346   2.974  21.513  0.00  0.00    +0.000 C 
ATOM     15  O   UNL     1       3.440   2.412  21.460  0.00  0.00    +0.000 OA
ATOM     16  H   UNL     1       1.416   1.517  22.612  0.00  0.00    +0.000 HD
ATOM     17  H   UNL     1       0.388   2.822  22.064  0.00  0.00    +0.000 HD
ENDBRANCH   7  14
ENDBRANCH   1  10
BRANCH   4  18
ATOM     18  O   UNL     1       7.284   5.678  15.580  0.00  0.00    +0.000 OA
BRANCH  18  19
ATOM     19  C   UNL     1       7.059   4.974  14.418  0.00  0.00    +0.000 A 
ATOM     20  C   UNL     1       6.049   4.005  14.468  0.00  0.00    +0.000 A 
ATOM     21  C   UNL     1       5.756   3.244  13.335  0.00  0.00    +0.000 A 
ATOM     22  C   UNL     1       6.472   3.455  12.163  0.00  0.00    +0.000 A 
ATOM     23  F   UNL     1       6.204   2.711  11.082  0.00  0.00    +0.000 F 
ATOM     24  C   UNL     1       7.459   4.430  12.091  0.00  0.00    +0.000 A 
ATOM     25  C   UNL     1       7.731   5.213  13.213  0.00  0.00    +0.000 A 
ENDBRANCH  18  19
ENDBRANCH   4  18
TORSDOF 4
ENDMDL
MODEL 5
REMARK VINA RESULT:      -7.8      1.067      1.552
REMARK  Name = 
REMARK  4 active torsions:
REMARK  status: ('A' for Active; 'I' for Inactive)
REMARK    1  A    between atoms: C_2  and  C_4
REMARK    2  A    between atoms: C_7  and  C_8
REMARK    3  A    between atoms: C_11  and  O_12
REMARK    4  A    between atoms: O_12  and  C_13
REMARK                            x       y       z     vdW  Elec       q    Type
REMARK                         _______ _______ _______ _____ _____    ______ ____
ROOT
ATOM      1  C   UNL     1       2.256   6.129  19.980  0.00  0.00    +0.000 A 
ATOM      2  C   UNL     1       1.670   7.140  20.759  0.00  0.00    +0.000 A 
ATOM      3  C   UNL     1       1.440   8.412  20.221  0.00  0.00    +0.000 A 
ATOM      4  C   UNL     1       1.794   8.692  18.900  0.00  0.00    +0.000 A 
ATOM      5  C   UNL     1       2.319   7.678  18.101  0.00  0.00    +0.000 A 
ATOM      6  C   UNL     1       2.565   6.418  18.643  0.00  0.00    +0.000 A 
ENDROOT
BRANCH   1  10
ATOM      7  C   UNL     1       2.607   2.580  19.564  0.00  0.00    +0.000 C 
ATOM      8  C   UNL     1       1.137   2.934  19.690  0.00  0.00    +0.000 C 
ATOM      9  C   UNL     1       1.145   4.005  20.763  0.00  0.00    +0.000 C 
ATOM     10  C   UNL     1       2.472   4.744  20.559  0.00  0.00    +0.000 C 
ATOM     11  N   UNL     1       3.284   3.898  19.661  0.00  0.00    +0.000 NA
ATOM     12  H   UNL     1       4.224   3.783  20.034  0.00  0.00    +0.000 HD
BRANCH   7  14
ATOM     13  N   UNL     1       3.897   0.948  18.268  0.00  0.00    +0.000 N 
ATOM     14  C   UNL     1       2.918   1.900  18.227  0.00  0.00    +0.000 C 
ATOM     15  O   UNL     1       2.383   2.223  17.167  0.00  0.00    +0.000 OA
ATOM     16  H   UNL     1       4.077   0.409  17.432  0.00  0.00    +0.000 HD
ATOM     17  H   UNL     1       4.136   0.566  19.174  0.00  0.00    +0.000 HD
ENDBRANCH   7  14
ENDBRANCH   1  10
BRANCH   4  18
ATOM     18  O   UNL     1       1.535   9.968  18.451  0.00  0.00    +0.000 OA
BRANCH  18  19
ATOM     19  C   UNL     1       0.258  10.476  18.545  0.00  0.00    +0.000 A 
ATOM     20  C   UNL     1      -0.720   9.836  17.773  0.00  0.00    +0.000 A 
ATOM     21  C   UNL     1      -2.040  10.288  17.807  0.00  0.00    +0.000 A 
ATOM     22  C   UNL     1      -2.374  11.373  18.609  0.00  0.00    +0.000 A 
ATOM     23  F   UNL     1      -3.637  11.818  18.627  0.00  0.00    +0.000 F 
ATOM     24  C   UNL     1      -1.419  12.000  19.400  0.00  0.00    +0.000 A 
ATOM     25  C   UNL     1      -0.106  11.531  19.392  0.00  0.00    +0.000 A 
ENDBRANCH  18  19
ENDBRANCH   4  18
TORSDOF 4
ENDMDL
MODEL 6
REMARK VINA RESULT:      -7.7      0.944      1.415
REMARK  Name = 
REMARK  4 active torsions:
REMARK  status: ('A' for Active; 'I' for Inactive)
REMARK    1  A    between atoms: C_2  and  C_4
REMARK    2  A    between atoms: C_7  and  C_8
REMARK    3  A    between atoms: C_11  and  O_12
REMARK    4  A    between atoms: O_12  and  C_13
REMARK                            x       y       z     vdW  Elec       q    Type
REMARK                         _______ _______ _______ _____ _____    ______ ____
ROOT
ATOM      1  C   UNL     1       2.197   6.383  19.966  0.00  0.00    +0.000 A 
ATOM      2  C   UNL     1       2.521   6.762  18.654  0.00  0.00    +0.000 A 
ATOM      3  C   UNL     1       2.175   8.030  18.171  0.00  0.00    +0.000 A 
ATOM      4  C   UNL     1       1.500   8.935  18.990  0.00  0.00    +0.000 A 
ATOM      5  C   UNL     1       1.229   8.591  20.314  0.00  0.00    +0.000 A 
ATOM      6  C   UNL     1       1.557   7.322  20.788  0.00  0.00    +0.000 A 
ENDROOT
BRANCH   1  10
ATOM      7  C   UNL     1       2.793   2.879  19.461  0.00  0.00    +0.000 C 
ATOM      8  C   UNL     1       1.327   3.104  19.780  0.00  0.00    +0.000 C 
ATOM      9  C   UNL     1       1.383   4.169  20.857  0.00  0.00    +0.000 C 
ATOM     10  C   UNL     1       2.604   5.021  20.494  0.00  0.00    +0.000 C 
ATOM     11  N   UNL     1       3.362   4.251  19.488  0.00  0.00    +0.000 NA
ATOM     12  H   UNL     1       4.349   4.217  19.736  0.00  0.00    +0.000 HD
BRANCH   7  14
ATOM     13  N   UNL     1       4.029   1.354  17.993  0.00  0.00    +0.000 N 
ATOM     14  C   UNL     1       2.987   2.232  18.086  0.00  0.00    +0.000 C 
ATOM     15  O   UNL     1       2.303   2.520  17.104  0.00  0.00    +0.000 OA
ATOM     16  H   UNL     1       4.143   0.834  17.134  0.00  0.00    +0.000 HD
ATOM     17  H   UNL     1       4.405   0.985  18.857  0.00  0.00    +0.000 HD
ENDBRANCH   7  14
ENDBRANCH   1  10
BRANCH   4  18
ATOM     18  O   UNL     1       1.196  10.159  18.437  0.00  0.00    +0.000 OA
BRANCH  18  19
ATOM     19  C   UNL     1      -0.118  10.567  18.367  0.00  0.00    +0.000 A 
ATOM     20  C   UNL     1      -0.434  11.748  19.048  0.00  0.00    +0.000 A 
ATOM     21  C   UNL     1      -1.743  12.233  19.031  0.00  0.00    +0.000 A 
ATOM     22  C   UNL     1      -2.725  11.536  18.337  0.00  0.00    +0.000 A 
ATOM     23  F   UNL     1      -3.985  11.990  18.337  0.00  0.00    +0.000 F 
ATOM     24  C   UNL     1      -2.419  10.376  17.635  0.00  0.00    +0.000 A 
ATOM     25  C   UNL     1      -1.106   9.907  17.624  0.00  0.00    +0.000 A 
ENDBRANCH  18  19
ENDBRANCH   4  18
TORSDOF 4
ENDMDL
MODEL 7
REMARK VINA RESULT:      -7.7      1.127      1.143
REMARK  Name = 
REMARK  4 active torsions:
REMARK  status: ('A' for Active; 'I' for Inactive)
REMARK    1  A    between atoms: C_2  and  C_4
REMARK    2  A    between atoms: C_7  and  C_8
REMARK    3  A    between atoms: C_11  and  O_12
REMARK    4  A    between atoms: O_12  and  C_13
REMARK                            x       y       z     vdW  Elec       q    Type
REMARK                         _______ _______ _______ _____ _____    ______ ____
ROOT
ATOM      1  C   UNL     1       2.231   7.334  19.661  0.00  0.00    +0.000 A 
ATOM      2  C   UNL     1       1.440   8.069  20.558  0.00  0.00    +0.000 A 
ATOM      3  C   UNL     1       0.794   9.240  20.144  0.00  0.00    +0.000 A 
ATOM      4  C   UNL     1       0.931   9.694  18.831  0.00  0.00    +0.000 A 
ATOM      5  C   UNL     1       1.664   8.937  17.918  0.00  0.00    +0.000 A 
ATOM      6  C   UNL     1       2.322   7.782  18.335  0.00  0.00    +0.000 A 
ENDROOT
BRANCH   1  10
ATOM      7  C   UNL     1       3.225   3.940  19.040  0.00  0.00    +0.000 C 
ATOM      8  C   UNL     1       1.809   3.963  19.585  0.00  0.00    +0.000 C 
ATOM      9  C   UNL     1       1.882   5.040  20.649  0.00  0.00    +0.000 C 
ATOM     10  C   UNL     1       2.902   6.048  20.107  0.00  0.00    +0.000 C 
ATOM     11  N   UNL     1       3.594   5.378  18.989  0.00  0.00    +0.000 NA
ATOM     12  H   UNL     1       4.602   5.485  19.080  0.00  0.00    +0.000 HD
BRANCH   7  14
ATOM     13  N   UNL     1       4.548   3.036  17.185  0.00  0.00    +0.000 N 
ATOM     14  C   UNL     1       3.291   3.308  17.646  0.00  0.00    +0.000 C 
ATOM     15  O   UNL     1       2.297   3.112  16.948  0.00  0.00    +0.000 OA
ATOM     16  H   UNL     1       4.640   2.538  16.310  0.00  0.00    +0.000 HD
ATOM     17  H   UNL     1       5.295   2.999  17.865  0.00  0.00    +0.000 HD
ENDBRANCH   7  14
ENDBRANCH   1  10
BRANCH   4  18
ATOM     18  O   UNL     1       0.264  10.854  18.507  0.00  0.00    +0.000 OA
BRANCH  18  19
ATOM     19  C   UNL     1      -1.086  10.810  18.236  0.00  0.00    +0.000 A 
ATOM     20  C   UNL     1      -1.884  11.733  18.922  0.00  0.00    +0.000 A 
ATOM     21  C   UNL     1      -3.263  11.756  18.708  0.00  0.00    +0.000 A 
ATOM     22  C   UNL     1      -3.835  10.859  17.814  0.00  0.00    +0.000 A 
ATOM     23  F   UNL     1      -5.160  10.868  17.624  0.00  0.00    +0.000 F 
ATOM     24  C   UNL     1      -3.051   9.954  17.108  0.00  0.00    +0.000 A 
ATOM     25  C   UNL     1      -1.669   9.951  17.296  0.00  0.00    +0.000 A 
ENDBRANCH  18  19
ENDBRANCH   4  18
TORSDOF 4
ENDMDL
MODEL 8
REMARK VINA RESULT:      -7.6      5.753      7.975
REMARK  Name = 
REMARK  4 active torsions:
REMARK  status: ('A' for Active; 'I' for Inactive)
REMARK    1  A    between atoms: C_2  and  C_4
REMARK    2  A    between atoms: C_7  and  C_8
REMARK    3  A    between atoms: C_11  and  O_12
REMARK    4  A    between atoms: O_12  and  C_13
REMARK                            x       y       z     vdW  Elec       q    Type
REMARK                         _______ _______ _______ _____ _____    ______ ____
ROOT
ATOM      1  C   UNL     1       4.162   5.914  18.396  0.00  0.00    +0.000 A 
ATOM      2  C   UNL     1       5.229   5.014  18.545  0.00  0.00    +0.000 A 
ATOM      3  C   UNL     1       6.241   4.941  17.580  0.00  0.00    +0.000 A 
ATOM      4  C   UNL     1       6.200   5.763  16.453  0.00  0.00    +0.000 A 
ATOM      5  C   UNL     1       5.179   6.702  16.327  0.00  0.00    +0.000 A 
ATOM      6  C   UNL     1       4.161   6.761  17.278  0.00  0.00    +0.000 A 
ENDROOT
BRANCH   1  10
ATOM      7  C   UNL     1       2.065   4.389  20.878  0.00  0.00    +0.000 C 
ATOM      8  C   UNL     1       1.394   4.295  19.520  0.00  0.00    +0.000 C 
ATOM      9  C   UNL     1       1.707   5.644  18.903  0.00  0.00    +0.000 C 
ATOM     10  C   UNL     1       3.087   6.012  19.461  0.00  0.00    +0.000 C 
ATOM     11  N   UNL     1       3.342   5.085  20.581  0.00  0.00    +0.000 NA
ATOM     12  H   UNL     1       3.662   5.597  21.400  0.00  0.00    +0.000 HD
BRANCH   7  14
ATOM     13  N   UNL     1       3.462   2.384  21.064  0.00  0.00    +0.000 N 
ATOM     14  C   UNL     1       2.322   3.007  21.486  0.00  0.00    +0.000 C 
ATOM     15  O   UNL     1       1.535   2.451  22.251  0.00  0.00    +0.000 OA
ATOM     16  H   UNL     1       3.721   1.511  21.501  0.00  0.00    +0.000 HD
ATOM     17  H   UNL     1       4.172   2.958  20.628  0.00  0.00    +0.000 HD
ENDBRANCH   7  14
ENDBRANCH   1  10
BRANCH   4  18
ATOM     18  O   UNL     1       7.234   5.625  15.553  0.00  0.00    +0.000 OA
BRANCH  18  19
ATOM     19  C   UNL     1       7.028   4.932  14.381  0.00  0.00    +0.000 A 
ATOM     20  C   UNL     1       6.001   3.980  14.399  0.00  0.00    +0.000 A 
ATOM     21  C   UNL     1       5.725   3.232  13.253  0.00  0.00    +0.000 A 
ATOM     22  C   UNL     1       6.476   3.437  12.101  0.00  0.00    +0.000 A 
ATOM     23  F   UNL     1       6.225   2.705  11.009  0.00  0.00    +0.000 F 
ATOM     24  C   UNL     1       7.481   4.396  12.063  0.00  0.00    +0.000 A 
ATOM     25  C   UNL     1       7.736   5.168  13.196  0.00  0.00    +0.000 A 
ENDBRANCH  18  19
ENDBRANCH   4  18
TORSDOF 4
ENDMDL
MODEL 9
REMARK VINA RESULT:      -7.6      1.172      1.899
REMARK  Name = 
REMARK  4 active torsions:
REMARK  status: ('A' for Active; 'I' for Inactive)
REMARK    1  A    between atoms: C_2  and  C_4
REMARK    2  A    between atoms: C_7  and  C_8
REMARK    3  A    between atoms: C_11  and  O_12
REMARK    4  A    between atoms: O_12  and  C_13
REMARK                            x       y       z     vdW  Elec       q    Type
REMARK                         _______ _______ _______ _____ _____    ______ ____
ROOT
ATOM      1  C   UNL     1       2.114   6.453  20.075  0.00  0.00    +0.000 A 
ATOM      2  C   UNL     1       2.482   6.824  18.772  0.00  0.00    +0.000 A 
ATOM      3  C   UNL     1       2.168   8.095  18.277  0.00  0.00    +0.000 A 
ATOM      4  C   UNL     1       1.482   9.012  19.074  0.00  0.00    +0.000 A 
ATOM      5  C   UNL     1       1.168   8.675  20.389  0.00  0.00    +0.000 A 
ATOM      6  C   UNL     1       1.463   7.403  20.876  0.00  0.00    +0.000 A 
ENDROOT
BRANCH   1  10
ATOM      7  C   UNL     1       3.032   3.021  19.556  0.00  0.00    +0.000 C 
ATOM      8  C   UNL     1       1.520   3.148  19.556  0.00  0.00    +0.000 C 
ATOM      9  C   UNL     1       1.272   4.150  20.666  0.00  0.00    +0.000 C 
ATOM     10  C   UNL     1       2.485   5.086  20.617  0.00  0.00    +0.000 C 
ATOM     11  N   UNL     1       3.491   4.417  19.768  0.00  0.00    +0.000 NA
ATOM     12  H   UNL     1       4.401   4.422  20.224  0.00  0.00    +0.000 HD
BRANCH   7  14
ATOM     13  N   UNL     1       3.792   1.120  18.208  0.00  0.00    +0.000 N 
ATOM     14  C   UNL     1       3.559   2.466  18.229  0.00  0.00    +0.000 C 
ATOM     15  O   UNL     1       3.823   3.176  17.260  0.00  0.00    +0.000 OA
ATOM     16  H   UNL     1       4.055   0.693  17.331  0.00  0.00    +0.000 HD
ATOM     17  H   UNL     1       3.354   0.561  18.929  0.00  0.00    +0.000 HD
ENDBRANCH   7  14
ENDBRANCH   1  10
BRANCH   4  18
ATOM     18  O   UNL     1       1.213  10.239  18.509  0.00  0.00    +0.000 OA
BRANCH  18  19
ATOM     19  C   UNL     1      -0.081  10.712  18.495  0.00  0.00    +0.000 A 
ATOM     20  C   UNL     1      -0.992   9.996  17.708  0.00  0.00    +0.000 A 
ATOM     21  C   UNL     1      -2.323  10.408  17.636  0.00  0.00    +0.000 A 
ATOM     22  C   UNL     1      -2.735  11.529  18.346  0.00  0.00    +0.000 A 
ATOM     23  F   UNL     1      -4.008  11.935  18.260  0.00  0.00    +0.000 F 
ATOM     24  C   UNL     1      -1.848  12.233  19.150  0.00  0.00    +0.000 A 
ATOM     25  C   UNL     1      -0.524  11.805  19.250  0.00  0.00    +0.000 A 
ENDBRANCH  18  19
ENDBRANCH   4  18
TORSDOF 4
ENDMDL
