MODEL 1
REMARK VINA RESULT:      -7.8      0.000      0.000
REMARK  Name = 
REMARK  3 active torsions:
REMARK  status: ('A' for Active; 'I' for Inactive)
REMARK    1  A    between atoms: C_2  and  C_3
REMARK    2  A    between atoms: N_6  and  C_7
REMARK    3  A    between atoms: N_16  and  C_17
REMARK                            x       y       z     vdW  Elec       q    Type
REMARK                         _______ _______ _______ _____ _____    ______ ____
ROOT
ATOM      1  C   UNL     1       2.266   4.770  20.563  0.00  0.00    +0.000 A 
ATOM      2  N   UNL     1       3.011   4.518  19.451  0.00  0.00    +0.000 NA
ATOM      3  C   UNL     1       3.192   5.520  18.557  0.00  0.00    +0.000 A 
ATOM      4  N   UNL     1       3.787   5.326  17.330  0.00  0.00    +0.000 N 
ATOM      5  C   UNL     1       2.628   6.788  18.872  0.00  0.00    +0.000 A 
ATOM      6  N   UNL     1       2.644   7.996  18.199  0.00  0.00    +0.000 NA
ATOM      7  C   UNL     1       1.935   8.818  18.949  0.00  0.00    +0.000 A 
ATOM      8  N   UNL     1       1.431   8.197  20.060  0.00  0.00    +0.000 N 
ATOM      9  C   UNL     1       1.895   6.900  20.043  0.00  0.00    +0.000 A 
ATOM     10  N   UNL     1       1.664   5.928  20.936  0.00  0.00    +0.000 NA
ATOM     11  H   UNL     1       3.797   6.205  16.813  0.00  0.00    +0.000 HD
ENDROOT
BRANCH   4  12
ATOM     12  C   UNL     1       4.819   4.393  16.881  0.00  0.00    +0.000 C 
ATOM     13  C   UNL     1       4.931   4.368  15.352  0.00  0.00    +0.000 C 
ATOM     14  C   UNL     1       6.103   5.159  14.787  0.00  0.00    +0.000 C 
ATOM     15  C   UNL     1       7.406   4.749  15.455  0.00  0.00    +0.000 C 
ATOM     16  C   UNL     1       7.344   5.039  16.949  0.00  0.00    +0.000 C 
ATOM     17  C   UNL     1       6.154   4.370  17.640  0.00  0.00    +0.000 C 
ENDBRANCH   4  12
BRANCH   8  18
ATOM     18  C   UNL     1       0.520   8.752  21.037  0.00  0.00    +0.000 C 
ATOM     19  C   UNL     1       1.094   9.055  22.423  0.00  0.00    +0.000 C 
ATOM     20  C   UNL     1      -0.039   9.834  23.093  0.00  0.00    +0.000 C 
ATOM     21  C   UNL     1      -0.742  10.590  21.962  0.00  0.00    +0.000 C 
ATOM     22  C   UNL     1      -0.095  10.106  20.663  0.00  0.00    +0.000 C 
ENDBRANCH   8  18
BRANCH   1  24
ATOM     23  N   UNL     1       1.857   2.761  22.171  0.00  0.00    +0.000 NA
ATOM     24  C   UNL     1       2.052   3.653  21.455  0.00  0.00    +0.000 C 
ENDBRANCH   1  24
TORSDOF 3
ENDMDL
MODEL 2
REMARK VINA RESULT:      -7.5      0.883      7.208
REMARK  Name = 
REMARK  3 active torsions:
REMARK  status: ('A' for Active; 'I' for Inactive)
REMARK    1  A    between atoms: C_2  and  C_3
REMARK    2  A    between atoms: N_6  and  C_7
REMARK    3  A    between atoms: N_16  and  C_17
REMARK                            x       y       z     vdW  Elec       q    Type
REMARK                         _______ _______ _______ _____ _____    ______ ____
ROOT
ATOM      1  C   UNL     1       2.288   5.142  20.468  0.00  0.00    +0.000 A 
ATOM      2  N   UNL     1       1.543   6.256  20.712  0.00  0.00    +0.000 NA
ATOM      3  C   UNL     1       1.744   7.348  19.936  0.00  0.00    +0.000 A 
ATOM      4  N   UNL     1       1.164   8.569  20.202  0.00  0.00    +0.000 N 
ATOM      5  C   UNL     1       2.692   7.235  18.880  0.00  0.00    +0.000 A 
ATOM      6  N   UNL     1       3.111   8.135  17.918  0.00  0.00    +0.000 NA
ATOM      7  C   UNL     1       4.028   7.493  17.220  0.00  0.00    +0.000 A 
ATOM      8  N   UNL     1       4.250   6.230  17.701  0.00  0.00    +0.000 N 
ATOM      9  C   UNL     1       3.376   6.037  18.748  0.00  0.00    +0.000 A 
ATOM     10  N   UNL     1       3.232   4.946  19.513  0.00  0.00    +0.000 NA
ATOM     11  H   UNL     1       1.472   9.250  19.508  0.00  0.00    +0.000 HD
ENDROOT
BRANCH   4  12
ATOM     12  C   UNL     1      -0.105   8.932  20.829  0.00  0.00    +0.000 C 
ATOM     13  C   UNL     1      -0.169   8.461  22.288  0.00  0.00    +0.000 C 
ATOM     14  C   UNL     1       0.082   9.552  23.319  0.00  0.00    +0.000 C 
ATOM     15  C   UNL     1      -0.822  10.750  23.072  0.00  0.00    +0.000 C 
ATOM     16  C   UNL     1      -0.536  11.350  21.701  0.00  0.00    +0.000 C 
ATOM     17  C   UNL     1      -0.669  10.335  20.565  0.00  0.00    +0.000 C 
ENDBRANCH   4  12
BRANCH   8  18
ATOM     18  C   UNL     1       5.259   5.291  17.262  0.00  0.00    +0.000 C 
ATOM     19  C   UNL     1       5.709   5.393  15.802  0.00  0.00    +0.000 C 
ATOM     20  C   UNL     1       6.914   4.454  15.755  0.00  0.00    +0.000 C 
ATOM     21  C   UNL     1       7.546   4.526  17.149  0.00  0.00    +0.000 C 
ATOM     22  C   UNL     1       6.601   5.380  17.997  0.00  0.00    +0.000 C 
ENDBRANCH   8  18
BRANCH   1  24
ATOM     23  N   UNL     1       1.920   3.142  22.096  0.00  0.00    +0.000 NA
ATOM     24  C   UNL     1       2.078   4.025  21.361  0.00  0.00    +0.000 C 
ENDBRANCH   1  24
TORSDOF 3
ENDMDL
MODEL 3
REMARK VINA RESULT:      -7.1      1.212      1.690
REMARK  Name = 
REMARK  3 active torsions:
REMARK  status: ('A' for Active; 'I' for Inactive)
REMARK    1  A    between atoms: C_2  and  C_3
REMARK    2  A    between atoms: N_6  and  C_7
REMARK    3  A    between atoms: N_16  and  C_17
REMARK                            x       y       z     vdW  Elec       q    Type
REMARK                         _______ _______ _______ _____ _____    ______ ____
ROOT
ATOM      1  C   UNL     1       2.355   5.961  20.121  0.00  0.00    +0.000 A 
ATOM      2  N   UNL     1       3.128   5.923  19.000  0.00  0.00    +0.000 NA
ATOM      3  C   UNL     1       3.153   7.014  18.197  0.00  0.00    +0.000 A 
ATOM      4  N   UNL     1       3.770   7.019  16.965  0.00  0.00    +0.000 N 
ATOM      5  C   UNL     1       2.402   8.148  18.612  0.00  0.00    +0.000 A 
ATOM      6  N   UNL     1       2.231   9.398  18.044  0.00  0.00    +0.000 NA
ATOM      7  C   UNL     1       1.405  10.034  18.853  0.00  0.00    +0.000 A 
ATOM      8  N   UNL     1       1.004   9.250  19.902  0.00  0.00    +0.000 N 
ATOM      9  C   UNL     1       1.661   8.046  19.779  0.00  0.00    +0.000 A 
ATOM     10  N   UNL     1       1.583   6.976  20.583  0.00  0.00    +0.000 NA
ATOM     11  H   UNL     1       3.644   7.931  16.525  0.00  0.00    +0.000 HD
ENDROOT
BRANCH   4  12
ATOM     12  C   UNL     1       4.932   6.297  16.451  0.00  0.00    +0.000 C 
ATOM     13  C   UNL     1       6.246   6.907  16.957  0.00  0.00    +0.000 C 
ATOM     14  C   UNL     1       6.901   6.144  18.100  0.00  0.00    +0.000 C 
ATOM     15  C   UNL     1       7.059   4.673  17.750  0.00  0.00    +0.000 C 
ATOM     16  C   UNL     1       5.695   4.040  17.509  0.00  0.00    +0.000 C 
ATOM     17  C   UNL     1       4.882   4.763  16.433  0.00  0.00    +0.000 C 
ENDBRANCH   4  12
BRANCH   8  18
ATOM     18  C   UNL     1       0.020   9.573  20.911  0.00  0.00    +0.000 C 
ATOM     19  C   UNL     1       0.441   9.389  22.370  0.00  0.00    +0.000 C 
ATOM     20  C   UNL     1      -0.712  10.038  23.137  0.00  0.00    +0.000 C 
ATOM     21  C   UNL     1      -1.224  11.163  22.234  0.00  0.00    +0.000 C 
ATOM     22  C   UNL     1      -0.458  11.030  20.916  0.00  0.00    +0.000 C 
ENDBRANCH   8  18
BRANCH   1  24
ATOM     23  N   UNL     1       2.267   3.773  21.532  0.00  0.00    +0.000 NA
ATOM     24  C   UNL     1       2.316   4.752  20.911  0.00  0.00    +0.000 C 
ENDBRANCH   1  24
TORSDOF 3
ENDMDL
MODEL 4
REMARK VINA RESULT:      -7.0      2.540      7.576
REMARK  Name = 
REMARK  3 active torsions:
REMARK  status: ('A' for Active; 'I' for Inactive)
REMARK    1  A    between atoms: C_2  and  C_3
REMARK    2  A    between atoms: N_6  and  C_7
REMARK    3  A    between atoms: N_16  and  C_17
REMARK                            x       y       z     vdW  Elec       q    Type
REMARK                         _______ _______ _______ _____ _____    ______ ____
ROOT
ATOM      1  C   UNL     1       0.858   9.405  21.321  0.00  0.00    +0.000 A 
ATOM      2  N   UNL     1       0.542  10.489  20.561  0.00  0.00    +0.000 NA
ATOM      3  C   UNL     1       0.903  10.488  19.255  0.00  0.00    +0.000 A 
ATOM      4  N   UNL     1       0.776  11.594  18.445  0.00  0.00    +0.000 N 
ATOM      5  C   UNL     1       1.546   9.321  18.756  0.00  0.00    +0.000 A 
ATOM      6  N   UNL     1       2.017   8.995  17.496  0.00  0.00    +0.000 NA
ATOM      7  C   UNL     1       2.545   7.793  17.625  0.00  0.00    +0.000 A 
ATOM      8  N   UNL     1       2.472   7.334  18.913  0.00  0.00    +0.000 N 
ATOM      9  C   UNL     1       1.803   8.290  19.646  0.00  0.00    +0.000 A 
ATOM     10  N   UNL     1       1.494   8.265  20.950  0.00  0.00    +0.000 NA
ATOM     11  H   UNL     1       1.130  11.377  17.513  0.00  0.00    +0.000 HD
ENDROOT
BRANCH   4  12
ATOM     12  C   UNL     1      -0.178  12.701  18.444  0.00  0.00    +0.000 C 
ATOM     13  C   UNL     1      -1.623  12.202  18.318  0.00  0.00    +0.000 C 
ATOM     14  C   UNL     1      -2.405  12.182  19.624  0.00  0.00    +0.000 C 
ATOM     15  C   UNL     1      -2.333  13.533  20.319  0.00  0.00    +0.000 C 
ATOM     16  C   UNL     1      -0.888  13.871  20.663  0.00  0.00    +0.000 C 
ATOM     17  C   UNL     1       0.038  13.844  19.446  0.00  0.00    +0.000 C 
ENDBRANCH   4  12
BRANCH   8  18
ATOM     18  C   UNL     1       3.048   6.117  19.443  0.00  0.00    +0.000 C 
ATOM     19  C   UNL     1       2.145   4.882  19.475  0.00  0.00    +0.000 C 
ATOM     20  C   UNL     1       3.119   3.763  19.846  0.00  0.00    +0.000 C 
ATOM     21  C   UNL     1       4.466   4.174  19.242  0.00  0.00    +0.000 C 
ATOM     22  C   UNL     1       4.264   5.583  18.679  0.00  0.00    +0.000 C 
ENDBRANCH   8  18
BRANCH   1  24
ATOM     23  N   UNL     1       0.221   9.567  23.842  0.00  0.00    +0.000 NA
ATOM     24  C   UNL     1       0.506   9.481  22.721  0.00  0.00    +0.000 C 
ENDBRANCH   1  24
TORSDOF 3
ENDMDL
MODEL 5
REMARK VINA RESULT:      -6.9      2.218      4.466
REMARK  Name = 
REMARK  3 active torsions:
REMARK  status: ('A' for Active; 'I' for Inactive)
REMARK    1  A    between atoms: C_2  and  C_3
REMARK    2  A    between atoms: N_6  and  C_7
REMARK    3  A    between atoms: N_16  and  C_17
REMARK                            x       y       z     vdW  Elec       q    Type
REMARK                         _______ _______ _______ _____ _____    ______ ____
ROOT
ATOM      1  C   UNL     1       3.140   7.157  18.191  0.00  0.00    +0.000 A 
ATOM      2  N   UNL     1       3.012   6.069  19.001  0.00  0.00    +0.000 NA
ATOM      3  C   UNL     1       2.239   6.178  20.108  0.00  0.00    +0.000 A 
ATOM      4  N   UNL     1       2.174   5.196  21.072  0.00  0.00    +0.000 N 
ATOM      5  C   UNL     1       1.570   7.415  20.320  0.00  0.00    +0.000 A 
ATOM      6  N   UNL     1       0.712   7.841  21.318  0.00  0.00    +0.000 NA
ATOM      7  C   UNL     1       0.423   9.092  21.015  0.00  0.00    +0.000 A 
ATOM      8  N   UNL     1       1.076   9.513  19.887  0.00  0.00    +0.000 N 
ATOM      9  C   UNL     1       1.791   8.437  19.409  0.00  0.00    +0.000 A 
ATOM     10  N   UNL     1       2.573   8.382  18.322  0.00  0.00    +0.000 NA
ATOM     11  H   UNL     1       1.554   5.497  21.824  0.00  0.00    +0.000 HD
ENDROOT
BRANCH   4  12
ATOM     12  C   UNL     1       2.309   3.743  20.997  0.00  0.00    +0.000 C 
ATOM     13  C   UNL     1       1.010   3.077  20.527  0.00  0.00    +0.000 C 
ATOM     14  C   UNL     1       1.006   2.654  19.065  0.00  0.00    +0.000 C 
ATOM     15  C   UNL     1       2.224   1.802  18.744  0.00  0.00    +0.000 C 
ATOM     16  C   UNL     1       3.500   2.601  18.978  0.00  0.00    +0.000 C 
ATOM     17  C   UNL     1       3.599   3.165  20.397  0.00  0.00    +0.000 C 
ENDBRANCH   4  12
BRANCH   8  18
ATOM     18  C   UNL     1       1.090  10.848  19.330  0.00  0.00    +0.000 C 
ATOM     19  C   UNL     1      -0.202  11.333  18.668  0.00  0.00    +0.000 C 
ATOM     20  C   UNL     1       0.082  12.816  18.425  0.00  0.00    +0.000 C 
ATOM     21  C   UNL     1       1.009  13.249  19.564  0.00  0.00    +0.000 C 
ATOM     22  C   UNL     1       1.354  11.974  20.336  0.00  0.00    +0.000 C 
ENDBRANCH   8  18
BRANCH   1  24
ATOM     23  N   UNL     1       4.747   6.875  16.160  0.00  0.00    +0.000 NA
ATOM     24  C   UNL     1       4.024   7.008  17.057  0.00  0.00    +0.000 C 
ENDBRANCH   1  24
TORSDOF 3
ENDMDL
MODEL 6
REMARK VINA RESULT:      -6.2      1.278      1.809
REMARK  Name = 
REMARK  3 active torsions:
REMARK  status: ('A' for Active; 'I' for Inactive)
REMARK    1  A    between atoms: C_2  and  C_3
REMARK    2  A    between atoms: N_6  and  C_7
REMARK    3  A    between atoms: N_16  and  C_17
REMARK                            x       y       z     vdW  Elec       q    Type
REMARK                         _______ _______ _______ _____ _____    ______ ____
ROOT
ATOM      1  C   UNL     1       2.415   6.123  20.027  0.00  0.00    +0.000 A 
ATOM      2  N   UNL     1       3.275   5.994  18.979  0.00  0.00    +0.000 NA
ATOM      3  C   UNL     1       3.376   7.019  18.099  0.00  0.00    +0.000 A 
ATOM      4  N   UNL     1       4.089   6.926  16.924  0.00  0.00    +0.000 N 
ATOM      5  C   UNL     1       2.607   8.187  18.363  0.00  0.00    +0.000 A 
ATOM      6  N   UNL     1       2.496   9.389  17.689  0.00  0.00    +0.000 NA
ATOM      7  C   UNL     1       1.615  10.091  18.377  0.00  0.00    +0.000 A 
ATOM      8  N   UNL     1       1.123   9.392  19.447  0.00  0.00    +0.000 N 
ATOM      9  C   UNL     1       1.774   8.179  19.472  0.00  0.00    +0.000 A 
ATOM     10  N   UNL     1       1.620   7.175  20.347  0.00  0.00    +0.000 NA
ATOM     11  H   UNL     1       4.009   7.801  16.406  0.00  0.00    +0.000 HD
ENDROOT
BRANCH   4  12
ATOM     12  C   UNL     1       5.280   6.160  16.563  0.00  0.00    +0.000 C 
ATOM     13  C   UNL     1       5.443   4.917  17.446  0.00  0.00    +0.000 C 
ATOM     14  C   UNL     1       5.013   3.611  16.792  0.00  0.00    +0.000 C 
ATOM     15  C   UNL     1       5.687   3.435  15.440  0.00  0.00    +0.000 C 
ATOM     16  C   UNL     1       5.284   4.564  14.501  0.00  0.00    +0.000 C 
ATOM     17  C   UNL     1       5.583   5.952  15.072  0.00  0.00    +0.000 C 
ENDBRANCH   4  12
BRANCH   8  18
ATOM     18  C   UNL     1       0.064   9.798  20.346  0.00  0.00    +0.000 C 
ATOM     19  C   UNL     1       0.425   9.915  21.829  0.00  0.00    +0.000 C 
ATOM     20  C   UNL     1      -0.816  10.582  22.424  0.00  0.00    +0.000 C 
ATOM     21  C   UNL     1      -1.374  11.477  21.315  0.00  0.00    +0.000 C 
ATOM     22  C   UNL     1      -0.533  11.182  20.070  0.00  0.00    +0.000 C 
ENDBRANCH   8  18
BRANCH   1  24
ATOM     23  N   UNL     1       2.230   4.062  21.610  0.00  0.00    +0.000 NA
ATOM     24  C   UNL     1       2.299   4.979  20.903  0.00  0.00    +0.000 C 
ENDBRANCH   1  24
TORSDOF 3
ENDMDL
MODEL 7
REMARK VINA RESULT:      -6.0      2.739      4.754
REMARK  Name = 
REMARK  3 active torsions:
REMARK  status: ('A' for Active; 'I' for Inactive)
REMARK    1  A    between atoms: C_2  and  C_3
REMARK    2  A    between atoms: N_6  and  C_7
REMARK    3  A    between atoms: N_16  and  C_17
REMARK                            x       y       z     vdW  Elec       q    Type
REMARK                         _______ _______ _______ _____ _____    ______ ____
ROOT
ATOM      1  C   UNL     1       0.947   9.207  21.634  0.00  0.00    +0.000 A 
ATOM      2  N   UNL     1       1.316   7.934  21.319  0.00  0.00    +0.000 NA
ATOM      3  C   UNL     1       1.744   7.681  20.058  0.00  0.00    +0.000 A 
ATOM      4  N   UNL     1       1.984   6.407  19.594  0.00  0.00    +0.000 N 
ATOM      5  C   UNL     1       1.826   8.783  19.162  0.00  0.00    +0.000 A 
ATOM      6  N   UNL     1       2.230   8.868  17.842  0.00  0.00    +0.000 NA
ATOM      7  C   UNL     1       2.071  10.136  17.514  0.00  0.00    +0.000 A 
ATOM      8  N   UNL     1       1.551  10.874  18.544  0.00  0.00    +0.000 N 
ATOM      9  C   UNL     1       1.419  10.026  19.621  0.00  0.00    +0.000 A 
ATOM     10  N   UNL     1       0.959  10.312  20.847  0.00  0.00    +0.000 NA
ATOM     11  H   UNL     1       2.272   6.449  18.616  0.00  0.00    +0.000 HD
ENDROOT
BRANCH   4  12
ATOM     12  C   UNL     1       2.437   5.190  20.267  0.00  0.00    +0.000 C 
ATOM     13  C   UNL     1       1.256   4.315  20.707  0.00  0.00    +0.000 C 
ATOM     14  C   UNL     1       0.981   3.119  19.807  0.00  0.00    +0.000 C 
ATOM     15  C   UNL     1       2.244   2.299  19.594  0.00  0.00    +0.000 C 
ATOM     16  C   UNL     1       3.310   3.144  18.909  0.00  0.00    +0.000 C 
ATOM     17  C   UNL     1       3.630   4.433  19.668  0.00  0.00    +0.000 C 
ENDBRANCH   4  12
BRANCH   8  18
ATOM     18  C   UNL     1       1.138  12.260  18.508  0.00  0.00    +0.000 C 
ATOM     19  C   UNL     1      -0.326  12.553  18.843  0.00  0.00    +0.000 C 
ATOM     20  C   UNL     1      -0.348  14.078  18.949  0.00  0.00    +0.000 C 
ATOM     21  C   UNL     1       1.039  14.474  19.464  0.00  0.00    +0.000 C 
ATOM     22  C   UNL     1       1.864  13.185  19.491  0.00  0.00    +0.000 C 
ENDBRANCH   8  18
BRANCH   1  24
ATOM     23  N   UNL     1       0.039   9.601  24.044  0.00  0.00    +0.000 NA
ATOM     24  C   UNL     1       0.441   9.412  22.972  0.00  0.00    +0.000 C 
ENDBRANCH   1  24
TORSDOF 3
ENDMDL
MODEL 8
REMARK VINA RESULT:      -5.9      2.817      7.400
REMARK  Name = 
REMARK  3 active torsions:
REMARK  status: ('A' for Active; 'I' for Inactive)
REMARK    1  A    between atoms: C_2  and  C_3
REMARK    2  A    between atoms: N_6  and  C_7
REMARK    3  A    between atoms: N_16  and  C_17
REMARK                            x       y       z     vdW  Elec       q    Type
REMARK                         _______ _______ _______ _____ _____    ______ ____
ROOT
ATOM      1  C   UNL     1       0.903   9.530  21.201  0.00  0.00    +0.000 A 
ATOM      2  N   UNL     1       0.886  10.706  20.514  0.00  0.00    +0.000 NA
ATOM      3  C   UNL     1       1.318  10.708  19.229  0.00  0.00    +0.000 A 
ATOM      4  N   UNL     1       1.494  11.864  18.503  0.00  0.00    +0.000 N 
ATOM      5  C   UNL     1       1.712   9.460  18.670  0.00  0.00    +0.000 A 
ATOM      6  N   UNL     1       2.175   9.119  17.412  0.00  0.00    +0.000 NA
ATOM      7  C   UNL     1       2.410   7.822  17.471  0.00  0.00    +0.000 A 
ATOM      8  N   UNL     1       2.155   7.308  18.714  0.00  0.00    +0.000 N 
ATOM      9  C   UNL     1       1.675   8.341  19.487  0.00  0.00    +0.000 A 
ATOM     10  N   UNL     1       1.287   8.302  20.770  0.00  0.00    +0.000 NA
ATOM     11  H   UNL     1       1.847  11.634  17.574  0.00  0.00    +0.000 HD
ENDROOT
BRANCH   4  12
ATOM     12  C   UNL     1       0.815  13.158  18.546  0.00  0.00    +0.000 C 
ATOM     13  C   UNL     1      -0.698  13.010  18.338  0.00  0.00    +0.000 C 
ATOM     14  C   UNL     1      -1.526  13.093  19.612  0.00  0.00    +0.000 C 
ATOM     15  C   UNL     1      -1.185  14.348  20.399  0.00  0.00    +0.000 C 
ATOM     16  C   UNL     1       0.281  14.327  20.814  0.00  0.00    +0.000 C 
ATOM     17  C   UNL     1       1.235  14.161  19.629  0.00  0.00    +0.000 C 
ENDBRANCH   4  12
BRANCH   8  18
ATOM     18  C   UNL     1       2.410   5.960  19.173  0.00  0.00    +0.000 C 
ATOM     19  C   UNL     1       3.869   5.586  19.442  0.00  0.00    +0.000 C 
ATOM     20  C   UNL     1       3.747   4.224  20.125  0.00  0.00    +0.000 C 
ATOM     21  C   UNL     1       2.423   4.267  20.894  0.00  0.00    +0.000 C 
ATOM     22  C   UNL     1       1.752   5.587  20.507  0.00  0.00    +0.000 C 
ENDBRANCH   8  18
BRANCH   1  24
ATOM     23  N   UNL     1       0.181   9.636  23.702  0.00  0.00    +0.000 NA
ATOM     24  C   UNL     1       0.490   9.593  22.584  0.00  0.00    +0.000 C 
ENDBRANCH   1  24
TORSDOF 3
ENDMDL
MODEL 9
REMARK VINA RESULT:      -5.9      2.898      5.092
REMARK  Name = 
REMARK  3 active torsions:
REMARK  status: ('A' for Active; 'I' for Inactive)
REMARK    1  A    between atoms: C_2  and  C_3
REMARK    2  A    between atoms: N_6  and  C_7
REMARK    3  A    between atoms: N_16  and  C_17
REMARK                            x       y       z     vdW  Elec       q    Type
REMARK                         _______ _______ _______ _____ _____    ______ ____
ROOT
ATOM      1  C   UNL     1       1.095   9.527  21.633  0.00  0.00    +0.000 A 
ATOM      2  N   UNL     1       1.468   8.352  21.055  0.00  0.00    +0.000 NA
ATOM      3  C   UNL     1       1.815   8.359  19.745  0.00  0.00    +0.000 A 
ATOM      4  N   UNL     1       2.049   7.206  19.029  0.00  0.00    +0.000 N 
ATOM      5  C   UNL     1       1.814   9.614  19.075  0.00  0.00    +0.000 A 
ATOM      6  N   UNL     1       2.127   9.965  17.774  0.00  0.00    +0.000 NA
ATOM      7  C   UNL     1       1.919  11.266  17.709  0.00  0.00    +0.000 A 
ATOM      8  N   UNL     1       1.456  11.775  18.893  0.00  0.00    +0.000 N 
ATOM      9  C   UNL     1       1.414  10.732  19.791  0.00  0.00    +0.000 A 
ATOM     10  N   UNL     1       1.032  10.763  21.076  0.00  0.00    +0.000 NA
ATOM     11  H   UNL     1       2.269   7.444  18.062  0.00  0.00    +0.000 HD
ENDROOT
BRANCH   4  12
ATOM     12  C   UNL     1       2.570   5.899  19.424  0.00  0.00    +0.000 C 
ATOM     13  C   UNL     1       1.764   5.295  20.581  0.00  0.00    +0.000 C 
ATOM     14  C   UNL     1       0.769   4.219  20.168  0.00  0.00    +0.000 C 
ATOM     15  C   UNL     1       1.448   3.146  19.331  0.00  0.00    +0.000 C 
ATOM     16  C   UNL     1       2.011   3.753  18.053  0.00  0.00    +0.000 C 
ATOM     17  C   UNL     1       2.972   4.915  18.317  0.00  0.00    +0.000 C 
ENDBRANCH   4  12
BRANCH   8  18
ATOM     18  C   UNL     1       1.013  13.128  19.151  0.00  0.00    +0.000 C 
ATOM     19  C   UNL     1       1.946  14.256  18.705  0.00  0.00    +0.000 C 
ATOM     20  C   UNL     1       1.082  15.503  18.900  0.00  0.00    +0.000 C 
ATOM     21  C   UNL     1      -0.358  15.049  18.644  0.00  0.00    +0.000 C 
ATOM     22  C   UNL     1      -0.296  13.530  18.464  0.00  0.00    +0.000 C 
ENDBRANCH   8  18
BRANCH   1  24
ATOM     23  N   UNL     1       0.331   9.419  24.121  0.00  0.00    +0.000 NA
ATOM     24  C   UNL     1       0.677   9.455  23.014  0.00  0.00    +0.000 C 
ENDBRANCH   1  24
TORSDOF 3
ENDMDL
