MODEL 1
REMARK VINA RESULT:      -6.5      0.000      0.000
REMARK  Name = 
REMARK  6 active torsions:
REMARK  status: ('A' for Active; 'I' for Inactive)
REMARK    1  A    between atoms: C_1  and  N_2
REMARK    2  A    between atoms: N_5  and  C_6
REMARK    3  A    between atoms: C_6  and  C_7
REMARK    4  A    between atoms: C_7  and  N_8
REMARK    5  A    between atoms: N_11  and  C_12
REMARK    6  A    between atoms: C_15  and  N_16
REMARK                            x       y       z     vdW  Elec       q    Type
REMARK                         _______ _______ _______ _____ _____    ______ ____
ROOT
ATOM      1  N   UNL     1       2.294   6.664  20.630  0.00  0.00    +0.000 N 
ATOM      2  C   UNL     1       2.767   6.513  19.341  0.00  0.00    +0.000 C 
ATOM      3  O   UNL     1       2.135   6.949  18.385  0.00  0.00    +0.000 OA
ATOM      4  N   UNL     1       3.945   5.799  19.272  0.00  0.00    +0.000 N 
ATOM      5  H   UNL     1       2.976   6.833  21.353  0.00  0.00    +0.000 HD
ATOM      6  H   UNL     1       4.166   5.235  20.077  0.00  0.00    +0.000 HD
ENDROOT
BRANCH   4   7
ATOM      7  C   UNL     1       4.637   5.544  18.061  0.00  0.00    +0.000 A 
ATOM      8  C   UNL     1       4.251   4.526  17.180  0.00  0.00    +0.000 A 
ATOM      9  C   UNL     1       4.972   4.256  16.015  0.00  0.00    +0.000 A 
ATOM     10  C   UNL     1       6.087   5.029  15.708  0.00  0.00    +0.000 A 
ATOM     11  C   UNL     1       6.478   6.074  16.558  0.00  0.00    +0.000 A 
ATOM     12  C   UNL     1       5.747   6.335  17.730  0.00  0.00    +0.000 A 
BRANCH  10  13
ATOM     13  N   UNL     1       6.844   4.744  14.485  0.00  0.00    +0.000 N 
ATOM     14  O   UNL     1       7.832   5.456  14.232  0.00  0.00    +0.000 OA
ATOM     15  O   UNL     1       6.462   3.807  13.771  0.00  0.00    +0.000 OA
ENDBRANCH  10  13
ENDBRANCH   4   7
BRANCH   1  16
ATOM     16  C   UNL     1       1.054   7.423  20.743  0.00  0.00    +0.000 C 
BRANCH  16  17
ATOM     17  C   UNL     1       1.239   8.914  21.047  0.00  0.00    +0.000 C 
BRANCH  17  22
ATOM     18  C   UNL     1       2.461  12.991  18.686  0.00  0.00    +0.000 C 
ATOM     19  N   UNL     1       1.368  12.141  19.142  0.00  0.00    +0.000 NA
ATOM     20  C   UNL     1       1.332  12.043  20.610  0.00  0.00    +0.000 C 
ATOM     21  C   UNL     1       0.174  11.135  21.094  0.00  0.00    +0.000 C 
ATOM     22  N   UNL     1       0.158   9.768  20.516  0.00  0.00    +0.000 NA
ATOM     23  C   UNL     1       0.269   9.906  19.040  0.00  0.00    +0.000 C 
ATOM     24  C   UNL     1       1.442  10.794  18.552  0.00  0.00    +0.000 C 
ENDBRANCH  17  22
ENDBRANCH  16  17
ENDBRANCH   1  16
TORSDOF 5
ENDMDL
MODEL 2
REMARK VINA RESULT:      -6.4      0.176      1.221
REMARK  Name = 
REMARK  6 active torsions:
REMARK  status: ('A' for Active; 'I' for Inactive)
REMARK    1  A    between atoms: C_1  and  N_2
REMARK    2  A    between atoms: N_5  and  C_6
REMARK    3  A    between atoms: C_6  and  C_7
REMARK    4  A    between atoms: C_7  and  N_8
REMARK    5  A    between atoms: N_11  and  C_12
REMARK    6  A    between atoms: C_15  and  N_16
REMARK                            x       y       z     vdW  Elec       q    Type
REMARK                         _______ _______ _______ _____ _____    ______ ____
ROOT
ATOM      1  N   UNL     1       2.280   6.583  20.665  0.00  0.00    +0.000 N 
ATOM      2  C   UNL     1       2.800   6.449  19.393  0.00  0.00    +0.000 C 
ATOM      3  O   UNL     1       2.220   6.927  18.424  0.00  0.00    +0.000 OA
ATOM      4  N   UNL     1       3.959   5.702  19.353  0.00  0.00    +0.000 N 
ATOM      5  H   UNL     1       2.936   6.714  21.420  0.00  0.00    +0.000 HD
ATOM      6  H   UNL     1       4.131   5.112  20.152  0.00  0.00    +0.000 HD
ENDROOT
BRANCH   4   7
ATOM      7  C   UNL     1       4.692   5.456  18.165  0.00  0.00    +0.000 A 
ATOM      8  C   UNL     1       5.597   6.386  17.639  0.00  0.00    +0.000 A 
ATOM      9  C   UNL     1       6.276   6.150  16.442  0.00  0.00    +0.000 A 
ATOM     10  C   UNL     1       6.067   4.953  15.765  0.00  0.00    +0.000 A 
ATOM     11  C   UNL     1       5.188   3.991  16.284  0.00  0.00    +0.000 A 
ATOM     12  C   UNL     1       4.508   4.241  17.489  0.00  0.00    +0.000 A 
BRANCH  10  13
ATOM     13  N   UNL     1       6.779   4.706  14.507  0.00  0.00    +0.000 N 
ATOM     14  O   UNL     1       6.362   3.794  13.771  0.00  0.00    +0.000 OA
ATOM     15  O   UNL     1       7.756   5.420  14.243  0.00  0.00    +0.000 OA
ENDBRANCH  10  13
ENDBRANCH   4   7
BRANCH   1  16
ATOM     16  C   UNL     1       1.058   7.376  20.748  0.00  0.00    +0.000 C 
BRANCH  16  17
ATOM     17  C   UNL     1       1.281   8.878  20.954  0.00  0.00    +0.000 C 
BRANCH  17  22
ATOM     18  C   UNL     1       2.456  13.047  18.733  0.00  0.00    +0.000 C 
ATOM     19  N   UNL     1       1.374  12.158  19.139  0.00  0.00    +0.000 NA
ATOM     20  C   UNL     1       1.306  12.019  20.603  0.00  0.00    +0.000 C 
ATOM     21  C   UNL     1       0.160  11.071  21.034  0.00  0.00    +0.000 C 
ATOM     22  N   UNL     1       0.191   9.720  20.419  0.00  0.00    +0.000 NA
ATOM     23  C   UNL     1       0.334   9.900  18.951  0.00  0.00    +0.000 C 
ATOM     24  C   UNL     1       1.496  10.830  18.515  0.00  0.00    +0.000 C 
ENDBRANCH  17  22
ENDBRANCH  16  17
ENDBRANCH   1  16
TORSDOF 5
ENDMDL
MODEL 3
REMARK VINA RESULT:      -6.4      5.538      7.105
REMARK  Name = 
REMARK  6 active torsions:
REMARK  status: ('A' for Active; 'I' for Inactive)
REMARK    1  A    between atoms: C_1  and  N_2
REMARK    2  A    between atoms: N_5  and  C_6
REMARK    3  A    between atoms: C_6  and  C_7
REMARK    4  A    between atoms: C_7  and  N_8
REMARK    5  A    between atoms: N_11  and  C_12
REMARK    6  A    between atoms: C_15  and  N_16
REMARK                            x       y       z     vdW  Elec       q    Type
REMARK                         _______ _______ _______ _____ _____    ______ ____
ROOT
ATOM      1  N   UNL     1       7.719   8.824  17.443  0.00  0.00    +0.000 N 
ATOM      2  C   UNL     1       7.256   7.566  17.776  0.00  0.00    +0.000 C 
ATOM      3  O   UNL     1       7.841   6.881  18.608  0.00  0.00    +0.000 OA
ATOM      4  N   UNL     1       6.148   7.182  17.050  0.00  0.00    +0.000 N 
ATOM      5  H   UNL     1       7.027   9.533  17.251  0.00  0.00    +0.000 HD
ATOM      6  H   UNL     1       5.983   7.691  16.195  0.00  0.00    +0.000 HD
ENDROOT
BRANCH   4   7
ATOM      7  C   UNL     1       5.477   5.948  17.238  0.00  0.00    +0.000 A 
ATOM      8  C   UNL     1       5.444   4.956  16.250  0.00  0.00    +0.000 A 
ATOM      9  C   UNL     1       4.738   3.766  16.431  0.00  0.00    +0.000 A 
ATOM     10  C   UNL     1       4.068   3.546  17.631  0.00  0.00    +0.000 A 
ATOM     11  C   UNL     1       4.109   4.509  18.650  0.00  0.00    +0.000 A 
ATOM     12  C   UNL     1       4.821   5.706  18.454  0.00  0.00    +0.000 A 
BRANCH  10  13
ATOM     13  N   UNL     1       3.326   2.296  17.821  0.00  0.00    +0.000 N 
ATOM     14  O   UNL     1       2.185   2.215  17.332  0.00  0.00    +0.000 OA
ATOM     15  O   UNL     1       3.876   1.385  18.456  0.00  0.00    +0.000 OA
ENDBRANCH  10  13
ENDBRANCH   4   7
BRANCH   1  16
ATOM     16  C   UNL     1       8.885   9.268  18.198  0.00  0.00    +0.000 C 
BRANCH  16  17
ATOM     17  C   UNL     1       9.086  10.787  18.233  0.00  0.00    +0.000 C 
BRANCH  17  22
ATOM     18  C   UNL     1      10.978  15.198  17.420  0.00  0.00    +0.000 C 
ATOM     19  N   UNL     1      11.057  13.978  18.214  0.00  0.00    +0.000 NA
ATOM     20  C   UNL     1      11.364  12.805  17.378  0.00  0.00    +0.000 C 
ATOM     21  C   UNL     1      11.442  11.508  18.220  0.00  0.00    +0.000 C 
ATOM     22  N   UNL     1      10.243  11.215  19.045  0.00  0.00    +0.000 NA
ATOM     23  C   UNL     1       9.921  12.443  19.818  0.00  0.00    +0.000 C 
ATOM     24  C   UNL     1       9.818  13.740  18.974  0.00  0.00    +0.000 C 
ENDBRANCH  17  22
ENDBRANCH  16  17
ENDBRANCH   1  16
TORSDOF 5
ENDMDL
MODEL 4
REMARK VINA RESULT:      -6.4      5.354      6.906
REMARK  Name = 
REMARK  6 active torsions:
REMARK  status: ('A' for Active; 'I' for Inactive)
REMARK    1  A    between atoms: C_1  and  N_2
REMARK    2  A    between atoms: N_5  and  C_6
REMARK    3  A    between atoms: C_6  and  C_7
REMARK    4  A    between atoms: C_7  and  N_8
REMARK    5  A    between atoms: N_11  and  C_12
REMARK    6  A    between atoms: C_15  and  N_16
REMARK                            x       y       z     vdW  Elec       q    Type
REMARK                         _______ _______ _______ _____ _____    ______ ____
ROOT
ATOM      1  N   UNL     1       7.679   8.653  17.386  0.00  0.00    +0.000 N 
ATOM      2  C   UNL     1       7.125   7.441  17.746  0.00  0.00    +0.000 C 
ATOM      3  O   UNL     1       7.599   6.782  18.665  0.00  0.00    +0.000 OA
ATOM      4  N   UNL     1       6.067   7.064  16.945  0.00  0.00    +0.000 N 
ATOM      5  H   UNL     1       7.044   9.380  17.092  0.00  0.00    +0.000 HD
ATOM      6  H   UNL     1       6.004   7.527  16.052  0.00  0.00    +0.000 HD
ENDROOT
BRANCH   4   7
ATOM      7  C   UNL     1       5.319   5.875  17.141  0.00  0.00    +0.000 A 
ATOM      8  C   UNL     1       4.362   5.754  18.156  0.00  0.00    +0.000 A 
ATOM      9  C   UNL     1       3.669   4.560  18.367  0.00  0.00    +0.000 A 
ATOM     10  C   UNL     1       3.916   3.471  17.538  0.00  0.00    +0.000 A 
ATOM     11  C   UNL     1       4.848   3.576  16.494  0.00  0.00    +0.000 A 
ATOM     12  C   UNL     1       5.543   4.781  16.293  0.00  0.00    +0.000 A 
BRANCH  10  13
ATOM     13  N   UNL     1       3.188   2.218  17.760  0.00  0.00    +0.000 N 
ATOM     14  O   UNL     1       2.003   2.159  17.389  0.00  0.00    +0.000 OA
ATOM     15  O   UNL     1       3.794   1.284  18.304  0.00  0.00    +0.000 OA
ENDBRANCH  10  13
ENDBRANCH   4   7
BRANCH   1  16
ATOM     16  C   UNL     1       8.795   9.089  18.218  0.00  0.00    +0.000 C 
BRANCH  16  17
ATOM     17  C   UNL     1       9.026  10.604  18.240  0.00  0.00    +0.000 C 
BRANCH  17  22
ATOM     18  C   UNL     1      10.073  15.348  18.538  0.00  0.00    +0.000 C 
ATOM     19  N   UNL     1      10.428  14.003  18.975  0.00  0.00    +0.000 NA
ATOM     20  C   UNL     1      10.845  13.158  17.844  0.00  0.00    +0.000 C 
ATOM     21  C   UNL     1      11.217  11.728  18.308  0.00  0.00    +0.000 C 
ATOM     22  N   UNL     1      10.166  11.019  19.081  0.00  0.00    +0.000 NA
ATOM     23  C   UNL     1       9.719  11.931  20.166  0.00  0.00    +0.000 C 
ATOM     24  C   UNL     1       9.323  13.356  19.702  0.00  0.00    +0.000 C 
ENDBRANCH  17  22
ENDBRANCH  16  17
ENDBRANCH   1  16
TORSDOF 5
ENDMDL
MODEL 5
REMARK VINA RESULT:      -6.4      5.808      8.602
REMARK  Name = 
REMARK  6 active torsions:
REMARK  status: ('A' for Active; 'I' for Inactive)
REMARK    1  A    between atoms: C_1  and  N_2
REMARK    2  A    between atoms: N_5  and  C_6
REMARK    3  A    between atoms: C_6  and  C_7
REMARK    4  A    between atoms: C_7  and  N_8
REMARK    5  A    between atoms: N_11  and  C_12
REMARK    6  A    between atoms: C_15  and  N_16
REMARK                            x       y       z     vdW  Elec       q    Type
REMARK                         _______ _______ _______ _____ _____    ______ ____
ROOT
ATOM      1  N   UNL     1       8.049   6.990  18.433  0.00  0.00    +0.000 N 
ATOM      2  C   UNL     1       8.273   8.336  18.221  0.00  0.00    +0.000 C 
ATOM      3  O   UNL     1       7.874   8.885  17.200  0.00  0.00    +0.000 OA
ATOM      4  N   UNL     1       9.011   8.932  19.222  0.00  0.00    +0.000 N 
ATOM      5  H   UNL     1       7.857   6.699  19.380  0.00  0.00    +0.000 HD
ATOM      6  H   UNL     1       9.539   8.307  19.812  0.00  0.00    +0.000 HD
ENDROOT
BRANCH   4   7
ATOM      7  C   UNL     1       9.339  10.311  19.239  0.00  0.00    +0.000 A 
ATOM      8  C   UNL     1       9.642  11.022  18.071  0.00  0.00    +0.000 A 
ATOM      9  C   UNL     1      10.011  12.368  18.110  0.00  0.00    +0.000 A 
ATOM     10  C   UNL     1      10.057  13.028  19.334  0.00  0.00    +0.000 A 
ATOM     11  C   UNL     1       9.729  12.348  20.516  0.00  0.00    +0.000 A 
ATOM     12  C   UNL     1       9.362  10.991  20.465  0.00  0.00    +0.000 A 
BRANCH  10  13
ATOM     13  N   UNL     1      10.445  14.441  19.373  0.00  0.00    +0.000 N 
ATOM     14  O   UNL     1      10.088  15.170  18.431  0.00  0.00    +0.000 OA
ATOM     15  O   UNL     1      11.104  14.835  20.345  0.00  0.00    +0.000 OA
ENDBRANCH  10  13
ENDBRANCH   4   7
BRANCH   1  16
ATOM     16  C   UNL     1       7.263   6.328  17.399  0.00  0.00    +0.000 C 
BRANCH  16  17
ATOM     17  C   UNL     1       6.412   5.153  17.893  0.00  0.00    +0.000 C 
BRANCH  17  22
ATOM     18  C   UNL     1       3.141   1.588  18.431  0.00  0.00    +0.000 C 
ATOM     19  N   UNL     1       3.376   3.026  18.463  0.00  0.00    +0.000 NA
ATOM     20  C   UNL     1       3.799   3.537  17.148  0.00  0.00    +0.000 C 
ATOM     21  C   UNL     1       4.054   5.064  17.184  0.00  0.00    +0.000 C 
ATOM     22  N   UNL     1       5.018   5.521  18.216  0.00  0.00    +0.000 NA
ATOM     23  C   UNL     1       4.601   4.927  19.512  0.00  0.00    +0.000 C 
ATOM     24  C   UNL     1       4.369   3.394  19.486  0.00  0.00    +0.000 C 
ENDBRANCH  17  22
ENDBRANCH  16  17
ENDBRANCH   1  16
TORSDOF 5
ENDMDL
MODEL 6
REMARK VINA RESULT:      -6.3      2.637      3.412
REMARK  Name = 
REMARK  6 active torsions:
REMARK  status: ('A' for Active; 'I' for Inactive)
REMARK    1  A    between atoms: C_1  and  N_2
REMARK    2  A    between atoms: N_5  and  C_6
REMARK    3  A    between atoms: C_6  and  C_7
REMARK    4  A    between atoms: C_7  and  N_8
REMARK    5  A    between atoms: N_11  and  C_12
REMARK    6  A    between atoms: C_15  and  N_16
REMARK                            x       y       z     vdW  Elec       q    Type
REMARK                         _______ _______ _______ _____ _____    ______ ____
ROOT
ATOM      1  N   UNL     1       1.387   8.766  19.525  0.00  0.00    +0.000 N 
ATOM      2  C   UNL     1       2.164   8.290  18.487  0.00  0.00    +0.000 C 
ATOM      3  O   UNL     1       2.244   8.906  17.430  0.00  0.00    +0.000 OA
ATOM      4  N   UNL     1       2.757   7.076  18.761  0.00  0.00    +0.000 N 
ATOM      5  H   UNL     1       1.733   8.625  20.461  0.00  0.00    +0.000 HD
ATOM      6  H   UNL     1       2.348   6.545  19.514  0.00  0.00    +0.000 HD
ENDROOT
BRANCH   4   7
ATOM      7  C   UNL     1       3.625   6.407  17.861  0.00  0.00    +0.000 A 
ATOM      8  C   UNL     1       3.526   5.033  17.608  0.00  0.00    +0.000 A 
ATOM      9  C   UNL     1       4.419   4.380  16.757  0.00  0.00    +0.000 A 
ATOM     10  C   UNL     1       5.420   5.113  16.126  0.00  0.00    +0.000 A 
ATOM     11  C   UNL     1       5.524   6.495  16.339  0.00  0.00    +0.000 A 
ATOM     12  C   UNL     1       4.620   7.142  17.200  0.00  0.00    +0.000 A 
BRANCH  10  13
ATOM     13  N   UNL     1       6.358   4.426  15.233  0.00  0.00    +0.000 N 
ATOM     14  O   UNL     1       7.571   4.663  15.368  0.00  0.00    +0.000 OA
ATOM     15  O   UNL     1       5.892   3.644  14.392  0.00  0.00    +0.000 OA
ENDBRANCH  10  13
ENDBRANCH   4   7
BRANCH   1  16
ATOM     16  C   UNL     1       0.751  10.054  19.275  0.00  0.00    +0.000 C 
BRANCH  16  17
ATOM     17  C   UNL     1      -0.756   9.985  19.006  0.00  0.00    +0.000 C 
BRANCH  17  22
ATOM     18  C   UNL     1      -5.500  10.844  18.330  0.00  0.00    +0.000 C 
ATOM     19  N   UNL     1      -4.154  11.007  17.792  0.00  0.00    +0.000 NA
ATOM     20  C   UNL     1      -3.524   9.708  17.504  0.00  0.00    +0.000 C 
ATOM     21  C   UNL     1      -2.092   9.881  16.938  0.00  0.00    +0.000 C 
ATOM     22  N   UNL     1      -1.174  10.691  17.777  0.00  0.00    +0.000 NA
ATOM     23  C   UNL     1      -1.872  11.960  18.108  0.00  0.00    +0.000 C 
ATOM     24  C   UNL     1      -3.296  11.790  18.697  0.00  0.00    +0.000 C 
ENDBRANCH  17  22
ENDBRANCH  16  17
ENDBRANCH   1  16
TORSDOF 5
ENDMDL
MODEL 7
REMARK VINA RESULT:      -6.3      5.602      8.142
REMARK  Name = 
REMARK  6 active torsions:
REMARK  status: ('A' for Active; 'I' for Inactive)
REMARK    1  A    between atoms: C_1  and  N_2
REMARK    2  A    between atoms: N_5  and  C_6
REMARK    3  A    between atoms: C_6  and  C_7
REMARK    4  A    between atoms: C_7  and  N_8
REMARK    5  A    between atoms: N_11  and  C_12
REMARK    6  A    between atoms: C_15  and  N_16
REMARK                            x       y       z     vdW  Elec       q    Type
REMARK                         _______ _______ _______ _____ _____    ______ ____
ROOT
ATOM      1  N   UNL     1       7.855   6.709  18.464  0.00  0.00    +0.000 N 
ATOM      2  C   UNL     1       8.131   8.035  18.194  0.00  0.00    +0.000 C 
ATOM      3  O   UNL     1       7.772   8.549  17.140  0.00  0.00    +0.000 OA
ATOM      4  N   UNL     1       8.869   8.651  19.182  0.00  0.00    +0.000 N 
ATOM      5  H   UNL     1       7.634   6.470  19.419  0.00  0.00    +0.000 HD
ATOM      6  H   UNL     1       9.362   8.037  19.812  0.00  0.00    +0.000 HD
ENDROOT
BRANCH   4   7
ATOM      7  C   UNL     1       9.245  10.017  19.143  0.00  0.00    +0.000 A 
ATOM      8  C   UNL     1       9.391  10.718  17.939  0.00  0.00    +0.000 A 
ATOM      9  C   UNL     1       9.809  12.050  17.914  0.00  0.00    +0.000 A 
ATOM     10  C   UNL     1      10.066  12.706  19.114  0.00  0.00    +0.000 A 
ATOM     11  C   UNL     1       9.899  12.038  20.335  0.00  0.00    +0.000 A 
ATOM     12  C   UNL     1       9.480  10.695  20.348  0.00  0.00    +0.000 A 
BRANCH  10  13
ATOM     13  N   UNL     1      10.506  14.105  19.087  0.00  0.00    +0.000 N 
ATOM     14  O   UNL     1       9.837  14.913  18.418  0.00  0.00    +0.000 OA
ATOM     15  O   UNL     1      11.517  14.408  19.735  0.00  0.00    +0.000 OA
ENDBRANCH  10  13
ENDBRANCH   4   7
BRANCH   1  16
ATOM     16  C   UNL     1       7.066   6.026  17.445  0.00  0.00    +0.000 C 
BRANCH  16  17
ATOM     17  C   UNL     1       5.558   5.992  17.715  0.00  0.00    +0.000 C 
BRANCH  17  22
ATOM     18  C   UNL     1       1.744   2.982  18.011  0.00  0.00    +0.000 C 
ATOM     19  N   UNL     1       2.820   3.644  18.740  0.00  0.00    +0.000 NA
ATOM     20  C   UNL     1       2.685   5.109  18.694  0.00  0.00    +0.000 C 
ATOM     21  C   UNL     1       3.831   5.812  19.464  0.00  0.00    +0.000 C 
ATOM     22  N   UNL     1       5.203   5.437  19.037  0.00  0.00    +0.000 NA
ATOM     23  C   UNL     1       5.277   3.953  19.024  0.00  0.00    +0.000 C 
ATOM     24  C   UNL     1       4.145   3.247  18.235  0.00  0.00    +0.000 C 
ENDBRANCH  17  22
ENDBRANCH  16  17
ENDBRANCH   1  16
TORSDOF 5
ENDMDL
MODEL 8
REMARK VINA RESULT:      -6.2      5.654      8.307
REMARK  Name = 
REMARK  6 active torsions:
REMARK  status: ('A' for Active; 'I' for Inactive)
REMARK    1  A    between atoms: C_1  and  N_2
REMARK    2  A    between atoms: N_5  and  C_6
REMARK    3  A    between atoms: C_6  and  C_7
REMARK    4  A    between atoms: C_7  and  N_8
REMARK    5  A    between atoms: N_11  and  C_12
REMARK    6  A    between atoms: C_15  and  N_16
REMARK                            x       y       z     vdW  Elec       q    Type
REMARK                         _______ _______ _______ _____ _____    ______ ____
ROOT
ATOM      1  N   UNL     1       8.007   6.777  18.468  0.00  0.00    +0.000 N 
ATOM      2  C   UNL     1       8.113   8.140  18.278  0.00  0.00    +0.000 C 
ATOM      3  O   UNL     1       7.499   8.698  17.375  0.00  0.00    +0.000 OA
ATOM      4  N   UNL     1       8.995   8.746  19.148  0.00  0.00    +0.000 N 
ATOM      5  H   UNL     1       8.015   6.443  19.419  0.00  0.00    +0.000 HD
ATOM      6  H   UNL     1       9.658   8.136  19.600  0.00  0.00    +0.000 HD
ENDROOT
BRANCH   4   7
ATOM      7  C   UNL     1       9.245  10.141  19.166  0.00  0.00    +0.000 A 
ATOM      8  C   UNL     1       9.399  10.888  17.991  0.00  0.00    +0.000 A 
ATOM      9  C   UNL     1       9.693  12.252  18.025  0.00  0.00    +0.000 A 
ATOM     10  C   UNL     1       9.814  12.893  19.254  0.00  0.00    +0.000 A 
ATOM     11  C   UNL     1       9.635  12.176  20.446  0.00  0.00    +0.000 A 
ATOM     12  C   UNL     1       9.342  10.802  20.399  0.00  0.00    +0.000 A 
BRANCH  10  13
ATOM     13  N   UNL     1      10.124  14.326  19.289  0.00  0.00    +0.000 N 
ATOM     14  O   UNL     1      11.317  14.667  19.215  0.00  0.00    +0.000 OA
ATOM     15  O   UNL     1       9.179  15.122  19.388  0.00  0.00    +0.000 OA
ENDBRANCH  10  13
ENDBRANCH   4   7
BRANCH   1  16
ATOM     16  C   UNL     1       7.075   6.103  17.570  0.00  0.00    +0.000 C 
BRANCH  16  17
ATOM     17  C   UNL     1       6.121   5.119  18.257  0.00  0.00    +0.000 C 
BRANCH  17  22
ATOM     18  C   UNL     1       2.555   2.895  20.712  0.00  0.00    +0.000 C 
ATOM     19  N   UNL     1       2.913   3.635  19.508  0.00  0.00    +0.000 NA
ATOM     20  C   UNL     1       3.905   2.909  18.699  0.00  0.00    +0.000 C 
ATOM     21  C   UNL     1       4.289   3.698  17.423  0.00  0.00    +0.000 C 
ATOM     22  N   UNL     1       4.772   5.082  17.656  0.00  0.00    +0.000 NA
ATOM     23  C   UNL     1       3.783   5.759  18.535  0.00  0.00    +0.000 C 
ATOM     24  C   UNL     1       3.415   4.983  19.826  0.00  0.00    +0.000 C 
ENDBRANCH  17  22
ENDBRANCH  16  17
ENDBRANCH   1  16
TORSDOF 5
ENDMDL
MODEL 9
REMARK VINA RESULT:      -6.2      5.802      7.329
REMARK  Name = 
REMARK  6 active torsions:
REMARK  status: ('A' for Active; 'I' for Inactive)
REMARK    1  A    between atoms: C_1  and  N_2
REMARK    2  A    between atoms: N_5  and  C_6
REMARK    3  A    between atoms: C_6  and  C_7
REMARK    4  A    between atoms: C_7  and  N_8
REMARK    5  A    between atoms: N_11  and  C_12
REMARK    6  A    between atoms: C_15  and  N_16
REMARK                            x       y       z     vdW  Elec       q    Type
REMARK                         _______ _______ _______ _____ _____    ______ ____
ROOT
ATOM      1  N   UNL     1       8.089   9.249  17.539  0.00  0.00    +0.000 N 
ATOM      2  C   UNL     1       7.517   8.021  17.806  0.00  0.00    +0.000 C 
ATOM      3  O   UNL     1       7.973   7.292  18.680  0.00  0.00    +0.000 OA
ATOM      4  N   UNL     1       6.463   7.716  16.970  0.00  0.00    +0.000 N 
ATOM      5  H   UNL     1       7.466  10.003  17.292  0.00  0.00    +0.000 HD
ATOM      6  H   UNL     1       6.415   8.242  16.111  0.00  0.00    +0.000 HD
ENDROOT
BRANCH   4   7
ATOM      7  C   UNL     1       5.700   6.525  17.073  0.00  0.00    +0.000 A 
ATOM      8  C   UNL     1       6.177   5.290  16.619  0.00  0.00    +0.000 A 
ATOM      9  C   UNL     1       5.395   4.135  16.684  0.00  0.00    +0.000 A 
ATOM     10  C   UNL     1       4.118   4.207  17.232  0.00  0.00    +0.000 A 
ATOM     11  C   UNL     1       3.626   5.426  17.721  0.00  0.00    +0.000 A 
ATOM     12  C   UNL     1       4.422   6.582  17.648  0.00  0.00    +0.000 A 
BRANCH  10  13
ATOM     13  N   UNL     1       3.296   2.994  17.298  0.00  0.00    +0.000 N 
ATOM     14  O   UNL     1       3.833   1.947  17.702  0.00  0.00    +0.000 OA
ATOM     15  O   UNL     1       2.109   3.077  16.953  0.00  0.00    +0.000 OA
ENDBRANCH  10  13
ENDBRANCH   4   7
BRANCH   1  16
ATOM     16  C   UNL     1       9.201   9.610  18.410  0.00  0.00    +0.000 C 
BRANCH  16  17
ATOM     17  C   UNL     1       9.430  11.118  18.568  0.00  0.00    +0.000 C 
BRANCH  17  22
ATOM     18  C   UNL     1      11.535  15.201  20.175  0.00  0.00    +0.000 C 
ATOM     19  N   UNL     1      11.582  14.124  19.193  0.00  0.00    +0.000 NA
ATOM     20  C   UNL     1      10.386  14.121  18.334  0.00  0.00    +0.000 C 
ATOM     21  C   UNL     1      10.433  12.973  17.295  0.00  0.00    +0.000 C 
ATOM     22  N   UNL     1      10.628  11.615  17.861  0.00  0.00    +0.000 NA
ATOM     23  C   UNL     1      11.795  11.675  18.778  0.00  0.00    +0.000 C 
ATOM     24  C   UNL     1      11.740  12.808  19.835  0.00  0.00    +0.000 C 
ENDBRANCH  17  22
ENDBRANCH  16  17
ENDBRANCH   1  16
TORSDOF 5
ENDMDL
