MODEL 1
REMARK VINA RESULT:      -8.4      0.000      0.000
REMARK  Name = 
REMARK  6 active torsions:
REMARK  status: ('A' for Active; 'I' for Inactive)
REMARK    1  A    between atoms: C_1  and  N_2
REMARK    2  A    between atoms: C_3  and  C_4
REMARK    3  A    between atoms: C_4  and  C_5
REMARK    4  A    between atoms: C_4  and  N_12
REMARK    5  A    between atoms: C_5  and  C_6
REMARK    6  A    between atoms: C_13  and  C_15
REMARK                            x       y       z     vdW  Elec       q    Type
REMARK                         _______ _______ _______ _____ _____    ______ ____
ROOT
ATOM      1  C   UNL     1       4.598   4.294  17.478  0.00  0.00    +0.000 C 
ENDROOT
BRANCH   1   4
ATOM      2  C   UNL     1       6.802   6.355  16.519  0.00  0.00    +0.000 C 
ATOM      3  N   UNL     1       6.266   5.242  15.774  0.00  0.00    +0.000 N 
ATOM      4  C   UNL     1       5.227   4.394  16.105  0.00  0.00    +0.000 A 
ATOM      5  N   UNL     1       4.872   3.679  15.048  0.00  0.00    +0.000 NA
ATOM      6  C   UNL     1       5.764   3.999  14.053  0.00  0.00    +0.000 A 
ATOM      7  C   UNL     1       5.846   3.537  12.730  0.00  0.00    +0.000 A 
ATOM      8  C   UNL     1       6.910   3.973  11.926  0.00  0.00    +0.000 A 
ATOM      9  C   UNL     1       7.876   4.845  12.430  0.00  0.00    +0.000 A 
ATOM     10  C   UNL     1       7.787   5.346  13.732  0.00  0.00    +0.000 A 
ATOM     11  C   UNL     1       6.703   4.913  14.508  0.00  0.00    +0.000 A 
ENDBRANCH   1   4
BRANCH   1  12
ATOM     12  N   UNL     1       3.720   5.440  17.660  0.00  0.00    +0.000 N 
ATOM     13  C   UNL     1       3.705   6.169  18.826  0.00  0.00    +0.000 C 
ATOM     14  O   UNL     1       4.410   5.889  19.798  0.00  0.00    +0.000 OA
ATOM     15  H   UNL     1       3.242   5.839  16.855  0.00  0.00    +0.000 HD
BRANCH  13  16
ATOM     16  C   UNL     1       2.762   7.336  18.870  0.00  0.00    +0.000 A 
ATOM     17  C   UNL     1       2.661   8.165  17.756  0.00  0.00    +0.000 A 
ATOM     18  C   UNL     1       1.806   9.261  17.818  0.00  0.00    +0.000 A 
ATOM     19  C   UNL     1       1.089   9.496  18.986  0.00  0.00    +0.000 A 
ATOM     20  C   UNL     1       1.256   8.620  20.051  0.00  0.00    +0.000 A 
ATOM     21  N   UNL     1       2.071   7.539  20.025  0.00  0.00    +0.000 NA
ENDBRANCH  13  16
ENDBRANCH   1  12
BRANCH   1  22
ATOM     22  C   UNL     1       3.851   2.944  17.645  0.00  0.00    +0.000 C 
BRANCH  22  23
ATOM     23  C   UNL     1       2.946   2.813  18.863  0.00  0.00    +0.000 A 
ATOM     24  C   UNL     1       1.552   2.876  18.689  0.00  0.00    +0.000 A 
ATOM     25  C   UNL     1       0.693   2.894  19.792  0.00  0.00    +0.000 A 
ATOM     26  C   UNL     1       1.209   2.794  21.081  0.00  0.00    +0.000 A 
ATOM     27  C   UNL     1       2.579   2.626  21.262  0.00  0.00    +0.000 A 
ATOM     28  C   UNL     1       3.441   2.628  20.160  0.00  0.00    +0.000 A 
ENDBRANCH  22  23
ENDBRANCH   1  22
TORSDOF 5
ENDMDL
MODEL 2
REMARK VINA RESULT:      -7.9      0.581      1.328
REMARK  Name = 
REMARK  6 active torsions:
REMARK  status: ('A' for Active; 'I' for Inactive)
REMARK    1  A    between atoms: C_1  and  N_2
REMARK    2  A    between atoms: C_3  and  C_4
REMARK    3  A    between atoms: C_4  and  C_5
REMARK    4  A    between atoms: C_4  and  N_12
REMARK    5  A    between atoms: C_5  and  C_6
REMARK    6  A    between atoms: C_13  and  C_15
REMARK                            x       y       z     vdW  Elec       q    Type
REMARK                         _______ _______ _______ _____ _____    ______ ____
ROOT
ATOM      1  C   UNL     1       4.455   4.466  17.533  0.00  0.00    +0.000 C 
ENDROOT
BRANCH   1   4
ATOM      2  C   UNL     1       6.780   6.385  16.565  0.00  0.00    +0.000 C 
ATOM      3  N   UNL     1       6.186   5.296  15.829  0.00  0.00    +0.000 N 
ATOM      4  C   UNL     1       5.097   4.513  16.164  0.00  0.00    +0.000 A 
ATOM      5  N   UNL     1       4.709   3.806  15.112  0.00  0.00    +0.000 NA
ATOM      6  C   UNL     1       5.624   4.063  14.120  0.00  0.00    +0.000 A 
ATOM      7  C   UNL     1       5.688   3.581  12.803  0.00  0.00    +0.000 A 
ATOM      8  C   UNL     1       6.780   3.945  12.002  0.00  0.00    +0.000 A 
ATOM      9  C   UNL     1       7.792   4.766  12.503  0.00  0.00    +0.000 A 
ATOM     10  C   UNL     1       7.723   5.287  13.798  0.00  0.00    +0.000 A 
ATOM     11  C   UNL     1       6.611   4.927  14.571  0.00  0.00    +0.000 A 
ENDBRANCH   1   4
BRANCH   1  12
ATOM     12  N   UNL     1       3.613   5.644  17.680  0.00  0.00    +0.000 N 
ATOM     13  C   UNL     1       3.507   6.319  18.874  0.00  0.00    +0.000 C 
ATOM     14  O   UNL     1       4.092   5.961  19.898  0.00  0.00    +0.000 OA
ATOM     15  H   UNL     1       3.241   6.102  16.852  0.00  0.00    +0.000 HD
BRANCH  13  16
ATOM     16  C   UNL     1       2.616   7.527  18.878  0.00  0.00    +0.000 A 
ATOM     17  C   UNL     1       1.904   7.839  20.033  0.00  0.00    +0.000 A 
ATOM     18  C   UNL     1       1.058   8.943  20.016  0.00  0.00    +0.000 A 
ATOM     19  C   UNL     1       0.945   9.692  18.850  0.00  0.00    +0.000 A 
ATOM     20  C   UNL     1       1.688   9.305  17.742  0.00  0.00    +0.000 A 
ATOM     21  N   UNL     1       2.527   8.243  17.723  0.00  0.00    +0.000 NA
ENDBRANCH  13  16
ENDBRANCH   1  12
BRANCH   1  22
ATOM     22  C   UNL     1       3.663   3.145  17.725  0.00  0.00    +0.000 C 
BRANCH  22  23
ATOM     23  C   UNL     1       2.810   3.040  18.982  0.00  0.00    +0.000 A 
ATOM     24  C   UNL     1       3.434   2.771  20.212  0.00  0.00    +0.000 A 
ATOM     25  C   UNL     1       2.677   2.535  21.364  0.00  0.00    +0.000 A 
ATOM     26  C   UNL     1       1.289   2.619  21.316  0.00  0.00    +0.000 A 
ATOM     27  C   UNL     1       0.663   2.987  20.128  0.00  0.00    +0.000 A 
ATOM     28  C   UNL     1       1.418   3.204  18.971  0.00  0.00    +0.000 A 
ENDBRANCH  22  23
ENDBRANCH   1  22
TORSDOF 5
ENDMDL
MODEL 3
REMARK VINA RESULT:      -7.7      3.071      7.285
REMARK  Name = 
REMARK  6 active torsions:
REMARK  status: ('A' for Active; 'I' for Inactive)
REMARK    1  A    between atoms: C_1  and  N_2
REMARK    2  A    between atoms: C_3  and  C_4
REMARK    3  A    between atoms: C_4  and  C_5
REMARK    4  A    between atoms: C_4  and  N_12
REMARK    5  A    between atoms: C_5  and  C_6
REMARK    6  A    between atoms: C_13  and  C_15
REMARK                            x       y       z     vdW  Elec       q    Type
REMARK                         _______ _______ _______ _____ _____    ______ ____
ROOT
ATOM      1  C   UNL     1       2.018   6.347  19.456  0.00  0.00    +0.000 C 
ENDROOT
BRANCH   1   4
ATOM      2  C   UNL     1       1.707   9.293  18.337  0.00  0.00    +0.000 C 
ATOM      3  N   UNL     1       1.255   8.793  19.612  0.00  0.00    +0.000 N 
ATOM      4  C   UNL     1       1.471   7.555  20.186  0.00  0.00    +0.000 A 
ATOM      5  N   UNL     1       1.120   7.582  21.464  0.00  0.00    +0.000 NA
ATOM      6  C   UNL     1       0.576   8.824  21.684  0.00  0.00    +0.000 A 
ATOM      7  C   UNL     1       0.049   9.383  22.859  0.00  0.00    +0.000 A 
ATOM      8  C   UNL     1      -0.520  10.664  22.802  0.00  0.00    +0.000 A 
ATOM      9  C   UNL     1      -0.570  11.371  21.599  0.00  0.00    +0.000 A 
ATOM     10  C   UNL     1      -0.015  10.845  20.430  0.00  0.00    +0.000 A 
ATOM     11  C   UNL     1       0.568   9.573  20.517  0.00  0.00    +0.000 A 
ENDBRANCH   1   4
BRANCH   1  12
ATOM     12  N   UNL     1       3.465   6.484  19.375  0.00  0.00    +0.000 N 
ATOM     13  C   UNL     1       4.169   6.129  18.247  0.00  0.00    +0.000 C 
ATOM     14  O   UNL     1       3.630   5.652  17.246  0.00  0.00    +0.000 OA
ATOM     15  H   UNL     1       3.959   7.025  20.080  0.00  0.00    +0.000 HD
BRANCH  13  16
ATOM     16  C   UNL     1       5.654   6.337  18.297  0.00  0.00    +0.000 A 
ATOM     17  C   UNL     1       6.413   5.587  19.190  0.00  0.00    +0.000 A 
ATOM     18  C   UNL     1       7.785   5.810  19.249  0.00  0.00    +0.000 A 
ATOM     19  C   UNL     1       8.351   6.775  18.423  0.00  0.00    +0.000 A 
ATOM     20  C   UNL     1       7.517   7.482  17.567  0.00  0.00    +0.000 A 
ATOM     21  N   UNL     1       6.180   7.287  17.475  0.00  0.00    +0.000 NA
ENDBRANCH  13  16
ENDBRANCH   1  12
BRANCH   1  22
ATOM     22  C   UNL     1       1.586   5.034  20.161  0.00  0.00    +0.000 C 
BRANCH  22  23
ATOM     23  C   UNL     1       2.175   3.742  19.612  0.00  0.00    +0.000 A 
ATOM     24  C   UNL     1       3.274   3.158  20.266  0.00  0.00    +0.000 A 
ATOM     25  C   UNL     1       3.926   2.048  19.721  0.00  0.00    +0.000 A 
ATOM     26  C   UNL     1       3.457   1.472  18.544  0.00  0.00    +0.000 A 
ATOM     27  C   UNL     1       2.308   1.976  17.942  0.00  0.00    +0.000 A 
ATOM     28  C   UNL     1       1.666   3.098  18.476  0.00  0.00    +0.000 A 
ENDBRANCH  22  23
ENDBRANCH   1  22
TORSDOF 5
ENDMDL
MODEL 4
REMARK VINA RESULT:      -7.5      1.476      6.683
REMARK  Name = 
REMARK  6 active torsions:
REMARK  status: ('A' for Active; 'I' for Inactive)
REMARK    1  A    between atoms: C_1  and  N_2
REMARK    2  A    between atoms: C_3  and  C_4
REMARK    3  A    between atoms: C_4  and  C_5
REMARK    4  A    between atoms: C_4  and  N_12
REMARK    5  A    between atoms: C_5  and  C_6
REMARK    6  A    between atoms: C_13  and  C_15
REMARK                            x       y       z     vdW  Elec       q    Type
REMARK                         _______ _______ _______ _____ _____    ______ ____
ROOT
ATOM      1  C   UNL     1       4.213   6.528  17.256  0.00  0.00    +0.000 C 
ENDROOT
BRANCH   1   4
ATOM      2  C   UNL     1       5.263   4.809  19.700  0.00  0.00    +0.000 C 
ATOM      3  N   UNL     1       3.958   4.748  19.087  0.00  0.00    +0.000 N 
ATOM      4  C   UNL     1       3.499   5.390  17.953  0.00  0.00    +0.000 A 
ATOM      5  N   UNL     1       2.341   4.867  17.576  0.00  0.00    +0.000 NA
ATOM      6  C   UNL     1       2.004   3.948  18.540  0.00  0.00    +0.000 A 
ATOM      7  C   UNL     1       0.884   3.108  18.635  0.00  0.00    +0.000 A 
ATOM      8  C   UNL     1       0.738   2.301  19.772  0.00  0.00    +0.000 A 
ATOM      9  C   UNL     1       1.683   2.335  20.799  0.00  0.00    +0.000 A 
ATOM     10  C   UNL     1       2.824   3.135  20.702  0.00  0.00    +0.000 A 
ATOM     11  C   UNL     1       2.959   3.916  19.546  0.00  0.00    +0.000 A 
ENDBRANCH   1   4
BRANCH   1  12
ATOM     12  N   UNL     1       4.753   6.023  16.002  0.00  0.00    +0.000 N 
ATOM     13  C   UNL     1       6.020   5.494  15.914  0.00  0.00    +0.000 C 
ATOM     14  O   UNL     1       6.786   5.434  16.877  0.00  0.00    +0.000 OA
ATOM     15  H   UNL     1       4.131   5.876  15.210  0.00  0.00    +0.000 HD
BRANCH  13  16
ATOM     16  C   UNL     1       6.441   4.997  14.562  0.00  0.00    +0.000 A 
ATOM     17  C   UNL     1       5.685   4.007  13.940  0.00  0.00    +0.000 A 
ATOM     18  C   UNL     1       6.102   3.532  12.700  0.00  0.00    +0.000 A 
ATOM     19  C   UNL     1       7.256   4.054  12.128  0.00  0.00    +0.000 A 
ATOM     20  C   UNL     1       7.952   5.036  12.822  0.00  0.00    +0.000 A 
ATOM     21  N   UNL     1       7.573   5.529  14.025  0.00  0.00    +0.000 NA
ENDBRANCH  13  16
ENDBRANCH   1  12
BRANCH   1  22
ATOM     22  C   UNL     1       3.257   7.732  17.047  0.00  0.00    +0.000 C 
BRANCH  22  23
ATOM     23  C   UNL     1       2.402   8.137  18.240  0.00  0.00    +0.000 A 
ATOM     24  C   UNL     1       1.505   9.210  18.106  0.00  0.00    +0.000 A 
ATOM     25  C   UNL     1       0.800   9.698  19.211  0.00  0.00    +0.000 A 
ATOM     26  C   UNL     1       0.940   9.086  20.453  0.00  0.00    +0.000 A 
ATOM     27  C   UNL     1       1.744   7.957  20.577  0.00  0.00    +0.000 A 
ATOM     28  C   UNL     1       2.465   7.481  19.477  0.00  0.00    +0.000 A 
ENDBRANCH  22  23
ENDBRANCH   1  22
TORSDOF 5
ENDMDL
MODEL 5
REMARK VINA RESULT:      -7.5      4.157      7.830
REMARK  Name = 
REMARK  6 active torsions:
REMARK  status: ('A' for Active; 'I' for Inactive)
REMARK    1  A    between atoms: C_1  and  N_2
REMARK    2  A    between atoms: C_3  and  C_4
REMARK    3  A    between atoms: C_4  and  C_5
REMARK    4  A    between atoms: C_4  and  N_12
REMARK    5  A    between atoms: C_5  and  C_6
REMARK    6  A    between atoms: C_13  and  C_15
REMARK                            x       y       z     vdW  Elec       q    Type
REMARK                         _______ _______ _______ _____ _____    ______ ____
ROOT
ATOM      1  C   UNL     1       0.880   9.672  20.390  0.00  0.00    +0.000 C 
ENDROOT
BRANCH   1   4
ATOM      2  C   UNL     1       2.414   8.578  17.845  0.00  0.00    +0.000 C 
ATOM      3  N   UNL     1       2.163   7.877  19.080  0.00  0.00    +0.000 N 
ATOM      4  C   UNL     1       1.402   8.270  20.164  0.00  0.00    +0.000 A 
ATOM      5  N   UNL     1       1.208   7.241  20.976  0.00  0.00    +0.000 NA
ATOM      6  C   UNL     1       1.941   6.200  20.457  0.00  0.00    +0.000 A 
ATOM      7  C   UNL     1       2.089   4.882  20.917  0.00  0.00    +0.000 A 
ATOM      8  C   UNL     1       2.964   4.023  20.237  0.00  0.00    +0.000 A 
ATOM      9  C   UNL     1       3.683   4.468  19.126  0.00  0.00    +0.000 A 
ATOM     10  C   UNL     1       3.516   5.765  18.632  0.00  0.00    +0.000 A 
ATOM     11  C   UNL     1       2.620   6.597  19.315  0.00  0.00    +0.000 A 
ENDBRANCH   1   4
BRANCH   1  12
ATOM     12  N   UNL     1      -0.361   9.819  19.643  0.00  0.00    +0.000 N 
ATOM     13  C   UNL     1      -0.525  10.797  18.689  0.00  0.00    +0.000 C 
ATOM     14  O   UNL     1       0.350  11.622  18.421  0.00  0.00    +0.000 OA
ATOM     15  H   UNL     1      -1.058   9.080  19.677  0.00  0.00    +0.000 HD
BRANCH  13  16
ATOM     16  C   UNL     1      -1.850  10.823  17.985  0.00  0.00    +0.000 A 
ATOM     17  C   UNL     1      -2.031  10.030  16.855  0.00  0.00    +0.000 A 
ATOM     18  C   UNL     1      -3.254  10.085  16.192  0.00  0.00    +0.000 A 
ATOM     19  C   UNL     1      -4.247  10.930  16.673  0.00  0.00    +0.000 A 
ATOM     20  C   UNL     1      -3.977  11.691  17.804  0.00  0.00    +0.000 A 
ATOM     21  N   UNL     1      -2.805  11.658  18.480  0.00  0.00    +0.000 NA
ENDBRANCH  13  16
ENDBRANCH   1  12
BRANCH   1  22
ATOM     22  C   UNL     1       0.696   9.954  21.905  0.00  0.00    +0.000 C 
BRANCH  22  23
ATOM     23  C   UNL     1      -0.251  11.087  22.276  0.00  0.00    +0.000 A 
ATOM     24  C   UNL     1      -1.353  10.814  23.104  0.00  0.00    +0.000 A 
ATOM     25  C   UNL     1      -2.318  11.794  23.360  0.00  0.00    +0.000 A 
ATOM     26  C   UNL     1      -2.167  13.075  22.836  0.00  0.00    +0.000 A 
ATOM     27  C   UNL     1      -1.028  13.387  22.101  0.00  0.00    +0.000 A 
ATOM     28  C   UNL     1      -0.072  12.403  21.829  0.00  0.00    +0.000 A 
ENDBRANCH  22  23
ENDBRANCH   1  22
TORSDOF 5
ENDMDL
MODEL 6
REMARK VINA RESULT:      -7.3      4.392      7.992
REMARK  Name = 
REMARK  6 active torsions:
REMARK  status: ('A' for Active; 'I' for Inactive)
REMARK    1  A    between atoms: C_1  and  N_2
REMARK    2  A    between atoms: C_3  and  C_4
REMARK    3  A    between atoms: C_4  and  C_5
REMARK    4  A    between atoms: C_4  and  N_12
REMARK    5  A    between atoms: C_5  and  C_6
REMARK    6  A    between atoms: C_13  and  C_15
REMARK                            x       y       z     vdW  Elec       q    Type
REMARK                         _______ _______ _______ _____ _____    ______ ____
ROOT
ATOM      1  C   UNL     1       0.228  10.533  18.692  0.00  0.00    +0.000 C 
ENDROOT
BRANCH   1   4
ATOM      2  C   UNL     1       0.962   8.519  21.022  0.00  0.00    +0.000 C 
ATOM      3  N   UNL     1       1.457   8.502  19.668  0.00  0.00    +0.000 N 
ATOM      4  C   UNL     1       1.256   9.423  18.657  0.00  0.00    +0.000 A 
ATOM      5  N   UNL     1       2.089   9.183  17.655  0.00  0.00    +0.000 NA
ATOM      6  C   UNL     1       2.761   8.030  17.984  0.00  0.00    +0.000 A 
ATOM      7  C   UNL     1       3.757   7.333  17.282  0.00  0.00    +0.000 A 
ATOM      8  C   UNL     1       4.237   6.125  17.809  0.00  0.00    +0.000 A 
ATOM      9  C   UNL     1       3.731   5.617  19.007  0.00  0.00    +0.000 A 
ATOM     10  C   UNL     1       2.769   6.319  19.738  0.00  0.00    +0.000 A 
ATOM     11  C   UNL     1       2.321   7.534  19.202  0.00  0.00    +0.000 A 
ENDBRANCH   1   4
BRANCH   1  12
ATOM     12  N   UNL     1       0.898  11.781  18.358  0.00  0.00    +0.000 N 
ATOM     13  C   UNL     1       1.093  12.775  19.289  0.00  0.00    +0.000 C 
ATOM     14  O   UNL     1       0.696  12.688  20.452  0.00  0.00    +0.000 OA
ATOM     15  H   UNL     1       1.405  11.860  17.480  0.00  0.00    +0.000 HD
BRANCH  13  16
ATOM     16  C   UNL     1       1.813  14.003  18.810  0.00  0.00    +0.000 A 
ATOM     17  C   UNL     1       3.026  13.858  18.142  0.00  0.00    +0.000 A 
ATOM     18  C   UNL     1       3.699  15.004  17.729  0.00  0.00    +0.000 A 
ATOM     19  C   UNL     1       3.145  16.250  18.002  0.00  0.00    +0.000 A 
ATOM     20  C   UNL     1       1.934  16.300  18.680  0.00  0.00    +0.000 A 
ATOM     21  N   UNL     1       1.246  15.209  19.088  0.00  0.00    +0.000 NA
ENDBRANCH  13  16
ENDBRANCH   1  12
BRANCH   1  22
ATOM     22  C   UNL     1      -0.953  10.221  17.735  0.00  0.00    +0.000 C 
BRANCH  22  23
ATOM     23  C   UNL     1      -2.324  10.730  18.159  0.00  0.00    +0.000 A 
ATOM     24  C   UNL     1      -3.474  10.110  17.639  0.00  0.00    +0.000 A 
ATOM     25  C   UNL     1      -4.747  10.629  17.897  0.00  0.00    +0.000 A 
ATOM     26  C   UNL     1      -4.892  11.741  18.721  0.00  0.00    +0.000 A 
ATOM     27  C   UNL     1      -3.771  12.301  19.326  0.00  0.00    +0.000 A 
ATOM     28  C   UNL     1      -2.496  11.795  19.053  0.00  0.00    +0.000 A 
ENDBRANCH  22  23
ENDBRANCH   1  22
TORSDOF 5
ENDMDL
MODEL 7
REMARK VINA RESULT:      -7.3      4.127      7.778
REMARK  Name = 
REMARK  6 active torsions:
REMARK  status: ('A' for Active; 'I' for Inactive)
REMARK    1  A    between atoms: C_1  and  N_2
REMARK    2  A    between atoms: C_3  and  C_4
REMARK    3  A    between atoms: C_4  and  C_5
REMARK    4  A    between atoms: C_4  and  N_12
REMARK    5  A    between atoms: C_5  and  C_6
REMARK    6  A    between atoms: C_13  and  C_15
REMARK                            x       y       z     vdW  Elec       q    Type
REMARK                         _______ _______ _______ _____ _____    ______ ____
ROOT
ATOM      1  C   UNL     1       0.288  10.078  18.476  0.00  0.00    +0.000 C 
ENDROOT
BRANCH   1   4
ATOM      2  C   UNL     1       1.157   8.281  20.933  0.00  0.00    +0.000 C 
ATOM      3  N   UNL     1       1.652   8.206  19.581  0.00  0.00    +0.000 N 
ATOM      4  C   UNL     1       1.390   9.041  18.512  0.00  0.00    +0.000 A 
ATOM      5  N   UNL     1       2.238   8.791  17.524  0.00  0.00    +0.000 NA
ATOM      6  C   UNL     1       2.987   7.712  17.927  0.00  0.00    +0.000 A 
ATOM      7  C   UNL     1       4.029   7.040  17.270  0.00  0.00    +0.000 A 
ATOM      8  C   UNL     1       4.590   5.906  17.875  0.00  0.00    +0.000 A 
ATOM      9  C   UNL     1       4.119   5.446  19.106  0.00  0.00    +0.000 A 
ATOM     10  C   UNL     1       3.111   6.127  19.793  0.00  0.00    +0.000 A 
ATOM     11  C   UNL     1       2.581   7.270  19.178  0.00  0.00    +0.000 A 
ENDBRANCH   1   4
BRANCH   1  12
ATOM     12  N   UNL     1       0.897  11.377  18.230  0.00  0.00    +0.000 N 
ATOM     13  C   UNL     1       1.260  12.217  19.257  0.00  0.00    +0.000 C 
ATOM     14  O   UNL     1       1.075  11.941  20.444  0.00  0.00    +0.000 OA
ATOM     15  H   UNL     1       1.241  11.603  17.300  0.00  0.00    +0.000 HD
BRANCH  13  16
ATOM     16  C   UNL     1       1.892  13.519  18.859  0.00  0.00    +0.000 A 
ATOM     17  C   UNL     1       1.159  14.696  18.994  0.00  0.00    +0.000 A 
ATOM     18  C   UNL     1       1.744  15.893  18.594  0.00  0.00    +0.000 A 
ATOM     19  C   UNL     1       3.031  15.877  18.069  0.00  0.00    +0.000 A 
ATOM     20  C   UNL     1       3.686  14.657  17.964  0.00  0.00    +0.000 A 
ATOM     21  N   UNL     1       3.154  13.473  18.350  0.00  0.00    +0.000 NA
ENDBRANCH  13  16
ENDBRANCH   1  12
BRANCH   1  22
ATOM     22  C   UNL     1      -0.778   9.713  17.409  0.00  0.00    +0.000 C 
BRANCH  22  23
ATOM     23  C   UNL     1      -2.085  10.492  17.459  0.00  0.00    +0.000 A 
ATOM     24  C   UNL     1      -2.430  11.176  18.639  0.00  0.00    +0.000 A 
ATOM     25  C   UNL     1      -3.678  11.791  18.772  0.00  0.00    +0.000 A 
ATOM     26  C   UNL     1      -4.578  11.779  17.710  0.00  0.00    +0.000 A 
ATOM     27  C   UNL     1      -4.209  11.197  16.502  0.00  0.00    +0.000 A 
ATOM     28  C   UNL     1      -2.968  10.565  16.373  0.00  0.00    +0.000 A 
ENDBRANCH  22  23
ENDBRANCH   1  22
TORSDOF 5
ENDMDL
MODEL 8
REMARK VINA RESULT:      -7.3      2.941      7.156
REMARK  Name = 
REMARK  6 active torsions:
REMARK  status: ('A' for Active; 'I' for Inactive)
REMARK    1  A    between atoms: C_1  and  N_2
REMARK    2  A    between atoms: C_3  and  C_4
REMARK    3  A    between atoms: C_4  and  C_5
REMARK    4  A    between atoms: C_4  and  N_12
REMARK    5  A    between atoms: C_5  and  C_6
REMARK    6  A    between atoms: C_13  and  C_15
REMARK                            x       y       z     vdW  Elec       q    Type
REMARK                         _______ _______ _______ _____ _____    ______ ____
ROOT
ATOM      1  C   UNL     1       1.765   6.852  19.749  0.00  0.00    +0.000 C 
ENDROOT
BRANCH   1   4
ATOM      2  C   UNL     1       1.906   9.312  17.760  0.00  0.00    +0.000 C 
ATOM      3  N   UNL     1       1.369   9.303  19.099  0.00  0.00    +0.000 N 
ATOM      4  C   UNL     1       1.393   8.290  20.038  0.00  0.00    +0.000 A 
ATOM      5  N   UNL     1       1.035   8.763  21.223  0.00  0.00    +0.000 NA
ATOM      6  C   UNL     1       0.677  10.074  21.018  0.00  0.00    +0.000 A 
ATOM      7  C   UNL     1       0.224  11.040  21.931  0.00  0.00    +0.000 A 
ATOM      8  C   UNL     1      -0.148  12.303  21.449  0.00  0.00    +0.000 A 
ATOM      9  C   UNL     1      -0.080  12.598  20.086  0.00  0.00    +0.000 A 
ATOM     10  C   UNL     1       0.407  11.661  19.170  0.00  0.00    +0.000 A 
ATOM     11  C   UNL     1       0.793  10.413  19.679  0.00  0.00    +0.000 A 
ENDBRANCH   1   4
BRANCH   1  12
ATOM     12  N   UNL     1       3.209   6.781  19.586  0.00  0.00    +0.000 N 
ATOM     13  C   UNL     1       3.791   6.135  18.519  0.00  0.00    +0.000 C 
ATOM     14  O   UNL     1       3.136   5.557  17.650  0.00  0.00    +0.000 OA
ATOM     15  H   UNL     1       3.809   7.374  20.154  0.00  0.00    +0.000 HD
BRANCH  13  16
ATOM     16  C   UNL     1       5.291   6.154  18.468  0.00  0.00    +0.000 A 
ATOM     17  C   UNL     1       5.924   6.753  17.382  0.00  0.00    +0.000 A 
ATOM     18  C   UNL     1       7.314   6.738  17.330  0.00  0.00    +0.000 A 
ATOM     19  C   UNL     1       8.023   6.124  18.355  0.00  0.00    +0.000 A 
ATOM     20  C   UNL     1       7.310   5.546  19.398  0.00  0.00    +0.000 A 
ATOM     21  N   UNL     1       5.960   5.548  19.487  0.00  0.00    +0.000 NA
ENDBRANCH  13  16
ENDBRANCH   1  12
BRANCH   1  22
ATOM     22  C   UNL     1       1.250   5.912  20.871  0.00  0.00    +0.000 C 
BRANCH  22  23
ATOM     23  C   UNL     1       1.426   4.418  20.642  0.00  0.00    +0.000 A 
ATOM     24  C   UNL     1       2.130   3.658  21.592  0.00  0.00    +0.000 A 
ATOM     25  C   UNL     1       2.428   2.312  21.356  0.00  0.00    +0.000 A 
ATOM     26  C   UNL     1       1.981   1.692  20.193  0.00  0.00    +0.000 A 
ATOM     27  C   UNL     1       1.194   2.405  19.293  0.00  0.00    +0.000 A 
ATOM     28  C   UNL     1       0.911   3.756  19.519  0.00  0.00    +0.000 A 
ENDBRANCH  22  23
ENDBRANCH   1  22
TORSDOF 5
ENDMDL
MODEL 9
REMARK VINA RESULT:      -7.3      4.436      8.385
REMARK  Name = 
REMARK  6 active torsions:
REMARK  status: ('A' for Active; 'I' for Inactive)
REMARK    1  A    between atoms: C_1  and  N_2
REMARK    2  A    between atoms: C_3  and  C_4
REMARK    3  A    between atoms: C_4  and  C_5
REMARK    4  A    between atoms: C_4  and  N_12
REMARK    5  A    between atoms: C_5  and  C_6
REMARK    6  A    between atoms: C_13  and  C_15
REMARK                            x       y       z     vdW  Elec       q    Type
REMARK                         _______ _______ _______ _____ _____    ______ ____
ROOT
ATOM      1  C   UNL     1       0.473  10.289  20.439  0.00  0.00    +0.000 C 
ENDROOT
BRANCH   1   4
ATOM      2  C   UNL     1       1.964   9.349  17.809  0.00  0.00    +0.000 C 
ATOM      3  N   UNL     1       1.799   8.602  19.032  0.00  0.00    +0.000 N 
ATOM      4  C   UNL     1       1.061   8.924  20.154  0.00  0.00    +0.000 A 
ATOM      5  N   UNL     1       0.953   7.865  20.943  0.00  0.00    +0.000 NA
ATOM      6  C   UNL     1       1.720   6.880  20.368  0.00  0.00    +0.000 A 
ATOM      7  C   UNL     1       1.955   5.561  20.785  0.00  0.00    +0.000 A 
ATOM      8  C   UNL     1       2.848   4.768  20.048  0.00  0.00    +0.000 A 
ATOM      9  C   UNL     1       3.499   5.281  18.924  0.00  0.00    +0.000 A 
ATOM     10  C   UNL     1       3.245   6.579  18.474  0.00  0.00    +0.000 A 
ATOM     11  C   UNL     1       2.332   7.344  19.214  0.00  0.00    +0.000 A 
ENDBRANCH   1   4
BRANCH   1  12
ATOM     12  N   UNL     1      -0.769  10.414  19.691  0.00  0.00    +0.000 N 
ATOM     13  C   UNL     1      -0.970  11.420  18.775  0.00  0.00    +0.000 C 
ATOM     14  O   UNL     1      -0.130  12.292  18.545  0.00  0.00    +0.000 OA
ATOM     15  H   UNL     1      -1.435   9.645  19.691  0.00  0.00    +0.000 HD
BRANCH  13  16
ATOM     16  C   UNL     1      -2.292  11.418  18.064  0.00  0.00    +0.000 A 
ATOM     17  C   UNL     1      -3.441  11.761  18.772  0.00  0.00    +0.000 A 
ATOM     18  C   UNL     1      -4.665  11.727  18.111  0.00  0.00    +0.000 A 
ATOM     19  C   UNL     1      -4.702  11.347  16.774  0.00  0.00    +0.000 A 
ATOM     20  C   UNL     1      -3.508  11.015  16.148  0.00  0.00    +0.000 A 
ATOM     21  N   UNL     1      -2.298  11.045  16.755  0.00  0.00    +0.000 NA
ENDBRANCH  13  16
ENDBRANCH   1  12
BRANCH   1  22
ATOM     22  C   UNL     1       0.268  10.494  21.964  0.00  0.00    +0.000 C 
BRANCH  22  23
ATOM     23  C   UNL     1      -0.667  11.620  22.379  0.00  0.00    +0.000 A 
ATOM     24  C   UNL     1      -0.305  12.950  22.100  0.00  0.00    +0.000 A 
ATOM     25  C   UNL     1      -1.069  14.018  22.581  0.00  0.00    +0.000 A 
ATOM     26  C   UNL     1      -2.235  13.773  23.301  0.00  0.00    +0.000 A 
ATOM     27  C   UNL     1      -2.661  12.462  23.495  0.00  0.00    +0.000 A 
ATOM     28  C   UNL     1      -1.887  11.393  23.031  0.00  0.00    +0.000 A 
ENDBRANCH  22  23
ENDBRANCH   1  22
TORSDOF 5
ENDMDL
