MODEL 1
REMARK VINA RESULT:      -7.2      0.000      0.000
REMARK  Name = 
REMARK  9 active torsions:
REMARK  status: ('A' for Active; 'I' for Inactive)
REMARK    1  A    between atoms: C_1  and  C_2
REMARK    2  A    between atoms: C_2  and  C_3
REMARK    3  A    between atoms: C_2  and  C_4
REMARK    4  A    between atoms: C_2  and  O_5
REMARK    5  A    between atoms: O_5  and  C_6
REMARK    6  A    between atoms: C_11  and  C_12
REMARK    7  A    between atoms: C_11  and  N_15
REMARK    8  A    between atoms: C_12  and  C_13
REMARK    9  A    between atoms: C_17  and  C_18
REMARK                            x       y       z     vdW  Elec       q    Type
REMARK                         _______ _______ _______ _____ _____    ______ ____
ROOT
ATOM      1  N   UNL     1      -1.341  11.402  19.514  0.00  0.00    +0.000 N 
ATOM      2  C   UNL     1      -1.451  11.054  18.202  0.00  0.00    +0.000 A 
ATOM      3  C   UNL     1      -2.735  11.390  17.810  0.00  0.00    +0.000 A 
ATOM      4  C   UNL     1      -3.313  11.992  18.965  0.00  0.00    +0.000 A 
ATOM      5  N   UNL     1      -4.610  12.374  19.045  0.00  0.00    +0.000 N 
ATOM      6  C   UNL     1      -5.412  12.526  20.184  0.00  0.00    +0.000 A 
ATOM      7  C   UNL     1      -4.891  12.784  21.455  0.00  0.00    +0.000 A 
ATOM      8  C   UNL     1      -5.727  12.805  22.571  0.00  0.00    +0.000 A 
ATOM      9  C   UNL     1      -7.076  12.587  22.383  0.00  0.00    +0.000 A 
ATOM     10  F   UNL     1      -7.911  12.574  23.428  0.00  0.00    +0.000 F 
ATOM     11  C   UNL     1      -7.540  12.381  21.097  0.00  0.00    +0.000 A 
ATOM     12  N   UNL     1      -6.742  12.352  19.999  0.00  0.00    +0.000 NA
ATOM     13  N   UNL     1      -2.424  12.044  19.961  0.00  0.00    +0.000 NA
ATOM     14  H   UNL     1      -5.221  12.216  18.244  0.00  0.00    +0.000 HD
ENDROOT
BRANCH   1  20
ATOM     15  C   UNL     1       2.576  14.315  20.624  0.00  0.00    +0.000 C 
ATOM     16  O   UNL     1       2.475  15.059  21.594  0.00  0.00    +0.000 OA
ATOM     17  N   UNL     1       1.545  13.471  20.255  0.00  0.00    +0.000 N 
ATOM     18  C   UNL     1       0.281  13.592  20.959  0.00  0.00    +0.000 C 
ATOM     19  C   UNL     1      -0.139  12.248  21.534  0.00  0.00    +0.000 C 
ATOM     20  C   UNL     1      -0.222  11.149  20.440  0.00  0.00    +0.000 C 
ATOM     21  C   UNL     1       1.154  11.126  19.683  0.00  0.00    +0.000 C 
ATOM     22  C   UNL     1       1.591  12.501  19.167  0.00  0.00    +0.000 C 
BRANCH  15  23
ATOM     23  O   UNL     1       3.691  14.231  19.839  0.00  0.00    +0.000 OA
BRANCH  23  25
ATOM     24  C   UNL     1       4.763  16.442  19.807  0.00  0.00    +0.000 C 
ATOM     25  C   UNL     1       4.006  15.377  18.998  0.00  0.00    +0.000 C 
ATOM     26  C   UNL     1       2.740  15.933  18.321  0.00  0.00    +0.000 C 
ATOM     27  C   UNL     1       4.954  14.894  17.885  0.00  0.00    +0.000 C 
ENDBRANCH  23  25
ENDBRANCH  15  23
BRANCH  20  28
ATOM     28  C   UNL     1      -0.416   9.752  21.099  0.00  0.00    +0.000 C 
BRANCH  28  29
ATOM     29  C   UNL     1      -0.055   9.725  22.529  0.00  0.00    +0.000 C 
ATOM     30  N   UNL     1       0.272   9.697  23.637  0.00  0.00    +0.000 NA
ENDBRANCH  28  29
ENDBRANCH  20  28
ENDBRANCH   1  20
BRANCH   3  31
ATOM     31  C   UNL     1      -3.321  11.145  16.510  0.00  0.00    +0.000 C 
ATOM     32  N   UNL     1      -2.460  10.635  15.574  0.00  0.00    +0.000 N 
ATOM     33  O   UNL     1      -4.505  11.323  16.252  0.00  0.00    +0.000 OA
ATOM     34  H   UNL     1      -1.563  10.252  15.834  0.00  0.00    +0.000 HD
ATOM     35  H   UNL     1      -2.853  10.372  14.682  0.00  0.00    +0.000 HD
ENDBRANCH   3  31
TORSDOF 6
ENDMDL
MODEL 2
REMARK VINA RESULT:      -7.0      3.199      5.269
REMARK  Name = 
REMARK  9 active torsions:
REMARK  status: ('A' for Active; 'I' for Inactive)
REMARK    1  A    between atoms: C_1  and  C_2
REMARK    2  A    between atoms: C_2  and  C_3
REMARK    3  A    between atoms: C_2  and  C_4
REMARK    4  A    between atoms: C_2  and  O_5
REMARK    5  A    between atoms: O_5  and  C_6
REMARK    6  A    between atoms: C_11  and  C_12
REMARK    7  A    between atoms: C_11  and  N_15
REMARK    8  A    between atoms: C_12  and  C_13
REMARK    9  A    between atoms: C_17  and  C_18
REMARK                            x       y       z     vdW  Elec       q    Type
REMARK                         _______ _______ _______ _____ _____    ______ ____
ROOT
ATOM      1  N   UNL     1      -0.549  11.451  18.897  0.00  0.00    +0.000 N 
ATOM      2  C   UNL     1      -1.013  10.938  17.724  0.00  0.00    +0.000 A 
ATOM      3  C   UNL     1      -2.365  11.227  17.674  0.00  0.00    +0.000 A 
ATOM      4  C   UNL     1      -2.613  11.975  18.862  0.00  0.00    +0.000 A 
ATOM      5  N   UNL     1      -3.847  12.369  19.258  0.00  0.00    +0.000 N 
ATOM      6  C   UNL     1      -4.299  12.669  20.551  0.00  0.00    +0.000 A 
ATOM      7  C   UNL     1      -3.450  13.086  21.580  0.00  0.00    +0.000 A 
ATOM      8  C   UNL     1      -3.937  13.252  22.876  0.00  0.00    +0.000 A 
ATOM      9  C   UNL     1      -5.277  13.018  23.106  0.00  0.00    +0.000 A 
ATOM     10  F   UNL     1      -5.782  13.142  24.339  0.00  0.00    +0.000 F 
ATOM     11  C   UNL     1      -6.077  12.651  22.041  0.00  0.00    +0.000 A 
ATOM     12  N   UNL     1      -5.621  12.478  20.774  0.00  0.00    +0.000 NA
ATOM     13  N   UNL     1      -1.481  12.150  19.550  0.00  0.00    +0.000 NA
ATOM     14  H   UNL     1      -4.653  12.113  18.690  0.00  0.00    +0.000 HD
ENDROOT
BRANCH   1  20
ATOM     15  C   UNL     1       2.533   7.506  18.886  0.00  0.00    +0.000 C 
ATOM     16  O   UNL     1       3.369   7.439  17.990  0.00  0.00    +0.000 OA
ATOM     17  N   UNL     1       1.651   8.567  18.968  0.00  0.00    +0.000 N 
ATOM     18  C   UNL     1       1.641   9.530  17.881  0.00  0.00    +0.000 C 
ATOM     19  C   UNL     1       1.849  10.939  18.415  0.00  0.00    +0.000 C 
ATOM     20  C   UNL     1       0.794  11.314  19.492  0.00  0.00    +0.000 C 
ATOM     21  C   UNL     1       0.820  10.195  20.593  0.00  0.00    +0.000 C 
ATOM     22  C   UNL     1       0.673   8.777  20.029  0.00  0.00    +0.000 C 
BRANCH  15  23
ATOM     23  O   UNL     1       2.403   6.577  19.879  0.00  0.00    +0.000 OA
BRANCH  23  25
ATOM     24  C   UNL     1       3.687   4.496  19.634  0.00  0.00    +0.000 C 
ATOM     25  C   UNL     1       2.319   5.179  19.479  0.00  0.00    +0.000 C 
ATOM     26  C   UNL     1       1.742   5.040  18.059  0.00  0.00    +0.000 C 
ATOM     27  C   UNL     1       1.349   4.474  20.446  0.00  0.00    +0.000 C 
ENDBRANCH  23  25
ENDBRANCH  15  23
BRANCH  20  28
ATOM     28  C   UNL     1       1.184  12.654  20.178  0.00  0.00    +0.000 C 
BRANCH  28  29
ATOM     29  C   UNL     1       1.702  13.665  19.237  0.00  0.00    +0.000 C 
ATOM     30  N   UNL     1       2.133  14.424  18.481  0.00  0.00    +0.000 NA
ENDBRANCH  28  29
ENDBRANCH  20  28
ENDBRANCH   1  20
BRANCH   3  31
ATOM     31  C   UNL     1      -3.286  10.820  16.635  0.00  0.00    +0.000 C 
ATOM     32  N   UNL     1      -2.722  10.111  15.607  0.00  0.00    +0.000 N 
ATOM     33  O   UNL     1      -4.491  11.036  16.669  0.00  0.00    +0.000 OA
ATOM     34  H   UNL     1      -1.797   9.713  15.684  0.00  0.00    +0.000 HD
ATOM     35  H   UNL     1      -3.347   9.738  14.908  0.00  0.00    +0.000 HD
ENDBRANCH   3  31
TORSDOF 6
ENDMDL
MODEL 3
REMARK VINA RESULT:      -6.9      4.033      6.767
REMARK  Name = 
REMARK  9 active torsions:
REMARK  status: ('A' for Active; 'I' for Inactive)
REMARK    1  A    between atoms: C_1  and  C_2
REMARK    2  A    between atoms: C_2  and  C_3
REMARK    3  A    between atoms: C_2  and  C_4
REMARK    4  A    between atoms: C_2  and  O_5
REMARK    5  A    between atoms: O_5  and  C_6
REMARK    6  A    between atoms: C_11  and  C_12
REMARK    7  A    between atoms: C_11  and  N_15
REMARK    8  A    between atoms: C_12  and  C_13
REMARK    9  A    between atoms: C_17  and  C_18
REMARK                            x       y       z     vdW  Elec       q    Type
REMARK                         _______ _______ _______ _____ _____    ______ ____
ROOT
ATOM      1  N   UNL     1       0.954  11.264  19.176  0.00  0.00    +0.000 N 
ATOM      2  C   UNL     1       1.880  12.022  18.524  0.00  0.00    +0.000 A 
ATOM      3  C   UNL     1       2.077  13.154  19.296  0.00  0.00    +0.000 A 
ATOM      4  C   UNL     1       1.248  12.955  20.438  0.00  0.00    +0.000 A 
ATOM      5  N   UNL     1       1.063  13.886  21.404  0.00  0.00    +0.000 N 
ATOM      6  C   UNL     1      -0.018  14.035  22.284  0.00  0.00    +0.000 A 
ATOM      7  C   UNL     1      -0.857  12.978  22.649  0.00  0.00    +0.000 A 
ATOM      8  C   UNL     1      -1.988  13.210  23.431  0.00  0.00    +0.000 A 
ATOM      9  C   UNL     1      -2.241  14.501  23.849  0.00  0.00    +0.000 A 
ATOM     10  F   UNL     1      -3.328  14.773  24.581  0.00  0.00    +0.000 F 
ATOM     11  C   UNL     1      -1.352  15.497  23.494  0.00  0.00    +0.000 A 
ATOM     12  N   UNL     1      -0.250  15.293  22.729  0.00  0.00    +0.000 NA
ATOM     13  N   UNL     1       0.629  11.772  20.368  0.00  0.00    +0.000 NA
ATOM     14  H   UNL     1       1.528  14.788  21.316  0.00  0.00    +0.000 HD
ENDROOT
BRANCH   1  20
ATOM     15  C   UNL     1       2.398   6.515  19.826  0.00  0.00    +0.000 C 
ATOM     16  O   UNL     1       1.954   5.913  20.800  0.00  0.00    +0.000 OA
ATOM     17  N   UNL     1       2.042   7.826  19.568  0.00  0.00    +0.000 N 
ATOM     18  C   UNL     1       1.241   8.522  20.559  0.00  0.00    +0.000 C 
ATOM     19  C   UNL     1      -0.020   9.088  19.923  0.00  0.00    +0.000 C 
ATOM     20  C   UNL     1       0.304  10.020  18.724  0.00  0.00    +0.000 C 
ATOM     21  C   UNL     1       1.223   9.220  17.734  0.00  0.00    +0.000 C 
ATOM     22  C   UNL     1       2.455   8.603  18.406  0.00  0.00    +0.000 C 
BRANCH  15  23
ATOM     23  O   UNL     1       3.252   5.964  18.913  0.00  0.00    +0.000 OA
BRANCH  23  25
ATOM     24  C   UNL     1       1.492   4.641  17.820  0.00  0.00    +0.000 C 
ATOM     25  C   UNL     1       2.917   4.644  18.395  0.00  0.00    +0.000 C 
ATOM     26  C   UNL     1       3.128   3.558  19.465  0.00  0.00    +0.000 C 
ATOM     27  C   UNL     1       3.878   4.342  17.230  0.00  0.00    +0.000 C 
ENDBRANCH  23  25
ENDBRANCH  15  23
BRANCH  20  28
ATOM     28  C   UNL     1      -1.003  10.380  17.960  0.00  0.00    +0.000 C 
BRANCH  28  29
ATOM     29  C   UNL     1      -1.914  11.245  18.732  0.00  0.00    +0.000 C 
ATOM     30  N   UNL     1      -2.647  11.886  19.354  0.00  0.00    +0.000 NA
ENDBRANCH  28  29
ENDBRANCH  20  28
ENDBRANCH   1  20
BRANCH   3  31
ATOM     31  C   UNL     1       2.931  14.273  18.964  0.00  0.00    +0.000 C 
ATOM     32  N   UNL     1       3.635  14.137  17.796  0.00  0.00    +0.000 N 
ATOM     33  O   UNL     1       3.002  15.298  19.631  0.00  0.00    +0.000 OA
ATOM     34  H   UNL     1       3.403  13.426  17.119  0.00  0.00    +0.000 HD
ATOM     35  H   UNL     1       4.175  14.933  17.490  0.00  0.00    +0.000 HD
ENDBRANCH   3  31
TORSDOF 6
ENDMDL
MODEL 4
REMARK VINA RESULT:      -6.7      4.126      6.784
REMARK  Name = 
REMARK  9 active torsions:
REMARK  status: ('A' for Active; 'I' for Inactive)
REMARK    1  A    between atoms: C_1  and  C_2
REMARK    2  A    between atoms: C_2  and  C_3
REMARK    3  A    between atoms: C_2  and  C_4
REMARK    4  A    between atoms: C_2  and  O_5
REMARK    5  A    between atoms: O_5  and  C_6
REMARK    6  A    between atoms: C_11  and  C_12
REMARK    7  A    between atoms: C_11  and  N_15
REMARK    8  A    between atoms: C_12  and  C_13
REMARK    9  A    between atoms: C_17  and  C_18
REMARK                            x       y       z     vdW  Elec       q    Type
REMARK                         _______ _______ _______ _____ _____    ______ ____
ROOT
ATOM      1  N   UNL     1       0.850  11.357  19.502  0.00  0.00    +0.000 N 
ATOM      2  C   UNL     1       1.825  11.986  18.789  0.00  0.00    +0.000 A 
ATOM      3  C   UNL     1       2.116  13.158  19.464  0.00  0.00    +0.000 A 
ATOM      4  C   UNL     1       1.284  13.118  20.621  0.00  0.00    +0.000 A 
ATOM      5  N   UNL     1       1.180  14.136  21.508  0.00  0.00    +0.000 N 
ATOM      6  C   UNL     1       0.121  14.439  22.375  0.00  0.00    +0.000 A 
ATOM      7  C   UNL     1      -0.793  13.484  22.828  0.00  0.00    +0.000 A 
ATOM      8  C   UNL     1      -1.896  13.866  23.591  0.00  0.00    +0.000 A 
ATOM      9  C   UNL     1      -2.045  15.202  23.903  0.00  0.00    +0.000 A 
ATOM     10  F   UNL     1      -3.101  15.616  24.613  0.00  0.00    +0.000 F 
ATOM     11  C   UNL     1      -1.086  16.094  23.465  0.00  0.00    +0.000 A 
ATOM     12  N   UNL     1      -0.009  15.744  22.717  0.00  0.00    +0.000 NA
ATOM     13  N   UNL     1       0.576  11.985  20.649  0.00  0.00    +0.000 NA
ATOM     14  H   UNL     1       1.712  14.990  21.345  0.00  0.00    +0.000 HD
ENDROOT
BRANCH   1  20
ATOM     15  C   UNL     1       2.480   6.637  19.149  0.00  0.00    +0.000 C 
ATOM     16  O   UNL     1       2.382   5.926  20.145  0.00  0.00    +0.000 OA
ATOM     17  N   UNL     1       2.045   7.950  19.159  0.00  0.00    +0.000 N 
ATOM     18  C   UNL     1       1.601   8.511  20.423  0.00  0.00    +0.000 C 
ATOM     19  C   UNL     1       0.196   9.079  20.290  0.00  0.00    +0.000 C 
ATOM     20  C   UNL     1       0.102  10.135  19.155  0.00  0.00    +0.000 C 
ATOM     21  C   UNL     1       0.659   9.476  17.843  0.00  0.00    +0.000 C 
ATOM     22  C   UNL     1       2.049   8.852  18.015  0.00  0.00    +0.000 C 
BRANCH  15  23
ATOM     23  O   UNL     1       2.996   6.216  17.957  0.00  0.00    +0.000 OA
BRANCH  23  25
ATOM     24  C   UNL     1       3.370   3.787  18.025  0.00  0.00    +0.000 C 
ATOM     25  C   UNL     1       4.020   5.180  18.000  0.00  0.00    +0.000 C 
ATOM     26  C   UNL     1       4.989   5.404  19.174  0.00  0.00    +0.000 C 
ATOM     27  C   UNL     1       4.837   5.276  16.698  0.00  0.00    +0.000 C 
ENDBRANCH  23  25
ENDBRANCH  15  23
BRANCH  20  28
ATOM     28  C   UNL     1      -1.386  10.508  18.895  0.00  0.00    +0.000 C 
BRANCH  28  29
ATOM     29  C   UNL     1      -1.838  10.191  17.527  0.00  0.00    +0.000 C 
ATOM     30  N   UNL     1      -2.216   9.983  16.456  0.00  0.00    +0.000 NA
ENDBRANCH  28  29
ENDBRANCH  20  28
ENDBRANCH   1  20
BRANCH   3  31
ATOM     31  C   UNL     1       3.050  14.177  19.039  0.00  0.00    +0.000 C 
ATOM     32  N   UNL     1       3.653  13.943  17.831  0.00  0.00    +0.000 N 
ATOM     33  O   UNL     1       3.269  15.206  19.667  0.00  0.00    +0.000 OA
ATOM     34  H   UNL     1       3.304  13.242  17.194  0.00  0.00    +0.000 HD
ATOM     35  H   UNL     1       4.246  14.672  17.464  0.00  0.00    +0.000 HD
ENDBRANCH   3  31
TORSDOF 6
ENDMDL
MODEL 5
REMARK VINA RESULT:      -6.7      0.946      1.314
REMARK  Name = 
REMARK  9 active torsions:
REMARK  status: ('A' for Active; 'I' for Inactive)
REMARK    1  A    between atoms: C_1  and  C_2
REMARK    2  A    between atoms: C_2  and  C_3
REMARK    3  A    between atoms: C_2  and  C_4
REMARK    4  A    between atoms: C_2  and  O_5
REMARK    5  A    between atoms: O_5  and  C_6
REMARK    6  A    between atoms: C_11  and  C_12
REMARK    7  A    between atoms: C_11  and  N_15
REMARK    8  A    between atoms: C_12  and  C_13
REMARK    9  A    between atoms: C_17  and  C_18
REMARK                            x       y       z     vdW  Elec       q    Type
REMARK                         _______ _______ _______ _____ _____    ______ ____
ROOT
ATOM      1  N   UNL     1      -1.042  11.374  19.292  0.00  0.00    +0.000 N 
ATOM      2  C   UNL     1      -1.449  11.069  18.028  0.00  0.00    +0.000 A 
ATOM      3  C   UNL     1      -2.760  11.499  17.921  0.00  0.00    +0.000 A 
ATOM      4  C   UNL     1      -3.039  12.106  19.180  0.00  0.00    +0.000 A 
ATOM      5  N   UNL     1      -4.261  12.568  19.537  0.00  0.00    +0.000 N 
ATOM      6  C   UNL     1      -4.793  12.741  20.822  0.00  0.00    +0.000 A 
ATOM      7  C   UNL     1      -4.001  12.930  21.958  0.00  0.00    +0.000 A 
ATOM      8  C   UNL     1      -4.580  12.974  23.225  0.00  0.00    +0.000 A 
ATOM      9  C   UNL     1      -5.951  12.850  23.323  0.00  0.00    +0.000 A 
ATOM     10  F   UNL     1      -6.546  12.863  24.522  0.00  0.00    +0.000 F 
ATOM     11  C   UNL     1      -6.687  12.709  22.163  0.00  0.00    +0.000 A 
ATOM     12  N   UNL     1      -6.142  12.658  20.921  0.00  0.00    +0.000 NA
ATOM     13  N   UNL     1      -1.960  12.072  19.966  0.00  0.00    +0.000 NA
ATOM     14  H   UNL     1      -5.037  12.472  18.882  0.00  0.00    +0.000 HD
ENDROOT
BRANCH   1  20
ATOM     15  C   UNL     1       2.547  14.384  21.058  0.00  0.00    +0.000 C 
ATOM     16  O   UNL     1       2.487  14.708  22.240  0.00  0.00    +0.000 OA
ATOM     17  N   UNL     1       1.601  13.548  20.493  0.00  0.00    +0.000 N 
ATOM     18  C   UNL     1       0.452  13.177  21.299  0.00  0.00    +0.000 C 
ATOM     19  C   UNL     1       0.315  11.664  21.369  0.00  0.00    +0.000 C 
ATOM     20  C   UNL     1       0.226  11.024  19.957  0.00  0.00    +0.000 C 
ATOM     21  C   UNL     1       1.464  11.523  19.129  0.00  0.00    +0.000 C 
ATOM     22  C   UNL     1       1.622  13.047  19.124  0.00  0.00    +0.000 C 
BRANCH  15  23
ATOM     23  O   UNL     1       3.534  14.788  20.204  0.00  0.00    +0.000 OA
BRANCH  23  25
ATOM     24  C   UNL     1       3.964  16.279  18.298  0.00  0.00    +0.000 C 
ATOM     25  C   UNL     1       3.510  16.176  19.762  0.00  0.00    +0.000 C 
ATOM     26  C   UNL     1       4.333  17.073  20.704  0.00  0.00    +0.000 C 
ATOM     27  C   UNL     1       2.048  16.658  19.820  0.00  0.00    +0.000 C 
ENDBRANCH  23  25
ENDBRANCH  15  23
BRANCH  20  28
ATOM     28  C   UNL     1       0.331   9.475  20.066  0.00  0.00    +0.000 C 
BRANCH  28  29
ATOM     29  C   UNL     1      -0.233   8.936  21.318  0.00  0.00    +0.000 C 
ATOM     30  N   UNL     1      -0.668   8.472  22.282  0.00  0.00    +0.000 NA
ENDBRANCH  28  29
ENDBRANCH  20  28
ENDBRANCH   1  20
BRANCH   3  31
ATOM     31  C   UNL     1      -3.622  11.327  16.772  0.00  0.00    +0.000 C 
ATOM     32  N   UNL     1      -2.970  11.212  15.572  0.00  0.00    +0.000 N 
ATOM     33  O   UNL     1      -4.842  11.238  16.841  0.00  0.00    +0.000 OA
ATOM     34  H   UNL     1      -1.978  11.033  15.524  0.00  0.00    +0.000 HD
ATOM     35  H   UNL     1      -3.534  11.007  14.760  0.00  0.00    +0.000 HD
ENDBRANCH   3  31
TORSDOF 6
ENDMDL
MODEL 6
REMARK VINA RESULT:      -6.7      0.827      1.100
REMARK  Name = 
REMARK  9 active torsions:
REMARK  status: ('A' for Active; 'I' for Inactive)
REMARK    1  A    between atoms: C_1  and  C_2
REMARK    2  A    between atoms: C_2  and  C_3
REMARK    3  A    between atoms: C_2  and  C_4
REMARK    4  A    between atoms: C_2  and  O_5
REMARK    5  A    between atoms: O_5  and  C_6
REMARK    6  A    between atoms: C_11  and  C_12
REMARK    7  A    between atoms: C_11  and  N_15
REMARK    8  A    between atoms: C_12  and  C_13
REMARK    9  A    between atoms: C_17  and  C_18
REMARK                            x       y       z     vdW  Elec       q    Type
REMARK                         _______ _______ _______ _____ _____    ______ ____
ROOT
ATOM      1  N   UNL     1      -1.357  11.262  19.613  0.00  0.00    +0.000 N 
ATOM      2  C   UNL     1      -1.521  10.948  18.298  0.00  0.00    +0.000 A 
ATOM      3  C   UNL     1      -2.783  11.392  17.940  0.00  0.00    +0.000 A 
ATOM      4  C   UNL     1      -3.286  12.017  19.118  0.00  0.00    +0.000 A 
ATOM      5  N   UNL     1      -4.547  12.498  19.232  0.00  0.00    +0.000 N 
ATOM      6  C   UNL     1      -5.311  12.692  20.392  0.00  0.00    +0.000 A 
ATOM      7  C   UNL     1      -4.745  12.885  21.655  0.00  0.00    +0.000 A 
ATOM      8  C   UNL     1      -5.553  12.952  22.790  0.00  0.00    +0.000 A 
ATOM      9  C   UNL     1      -6.919  12.844  22.627  0.00  0.00    +0.000 A 
ATOM     10  F   UNL     1      -7.730  12.879  23.691  0.00  0.00    +0.000 F 
ATOM     11  C   UNL     1      -7.424  12.699  21.350  0.00  0.00    +0.000 A 
ATOM     12  N   UNL     1      -6.654  12.627  20.234  0.00  0.00    +0.000 NA
ATOM     13  N   UNL     1      -2.376  11.980  20.094  0.00  0.00    +0.000 NA
ATOM     14  H   UNL     1      -5.186  12.404  18.443  0.00  0.00    +0.000 HD
ENDROOT
BRANCH   1  20
ATOM     15  C   UNL     1       2.533  14.042  21.099  0.00  0.00    +0.000 C 
ATOM     16  O   UNL     1       2.419  14.661  22.153  0.00  0.00    +0.000 OA
ATOM     17  N   UNL     1       1.509  13.243  20.622  0.00  0.00    +0.000 N 
ATOM     18  C   UNL     1       0.240  13.269  21.327  0.00  0.00    +0.000 C 
ATOM     19  C   UNL     1      -0.175  11.862  21.730  0.00  0.00    +0.000 C 
ATOM     20  C   UNL     1      -0.243  10.905  20.510  0.00  0.00    +0.000 C 
ATOM     21  C   UNL     1       1.139  10.983  19.766  0.00  0.00    +0.000 C 
ATOM     22  C   UNL     1       1.570  12.413  19.425  0.00  0.00    +0.000 C 
BRANCH  15  23
ATOM     23  O   UNL     1       3.653  14.060  20.319  0.00  0.00    +0.000 OA
BRANCH  23  25
ATOM     24  C   UNL     1       2.548  16.019  19.328  0.00  0.00    +0.000 C 
ATOM     25  C   UNL     1       3.856  15.225  19.467  0.00  0.00    +0.000 C 
ATOM     26  C   UNL     1       4.453  14.820  18.107  0.00  0.00    +0.000 C 
ATOM     27  C   UNL     1       4.874  16.144  20.167  0.00  0.00    +0.000 C 
ENDBRANCH  23  25
ENDBRANCH  15  23
BRANCH  20  28
ATOM     28  C   UNL     1      -0.431   9.437  20.992  0.00  0.00    +0.000 C 
BRANCH  28  29
ATOM     29  C   UNL     1       0.765   8.597  20.794  0.00  0.00    +0.000 C 
ATOM     30  N   UNL     1       1.687   7.911  20.672  0.00  0.00    +0.000 NA
ENDBRANCH  28  29
ENDBRANCH  20  28
ENDBRANCH   1  20
BRANCH   3  31
ATOM     31  C   UNL     1      -3.413  11.217  16.650  0.00  0.00    +0.000 C 
ATOM     32  N   UNL     1      -2.557  10.921  15.623  0.00  0.00    +0.000 N 
ATOM     33  O   UNL     1      -4.624  11.275  16.469  0.00  0.00    +0.000 OA
ATOM     34  H   UNL     1      -1.607  10.625  15.794  0.00  0.00    +0.000 HD
ATOM     35  H   UNL     1      -2.970  10.709  14.726  0.00  0.00    +0.000 HD
ENDBRANCH   3  31
TORSDOF 6
ENDMDL
MODEL 7
REMARK VINA RESULT:      -6.7      3.066      4.876
REMARK  Name = 
REMARK  9 active torsions:
REMARK  status: ('A' for Active; 'I' for Inactive)
REMARK    1  A    between atoms: C_1  and  C_2
REMARK    2  A    between atoms: C_2  and  C_3
REMARK    3  A    between atoms: C_2  and  C_4
REMARK    4  A    between atoms: C_2  and  O_5
REMARK    5  A    between atoms: O_5  and  C_6
REMARK    6  A    between atoms: C_11  and  C_12
REMARK    7  A    between atoms: C_11  and  N_15
REMARK    8  A    between atoms: C_12  and  C_13
REMARK    9  A    between atoms: C_17  and  C_18
REMARK                            x       y       z     vdW  Elec       q    Type
REMARK                         _______ _______ _______ _____ _____    ______ ____
ROOT
ATOM      1  N   UNL     1      -0.835  11.688  18.981  0.00  0.00    +0.000 N 
ATOM      2  C   UNL     1      -1.258  11.196  17.784  0.00  0.00    +0.000 A 
ATOM      3  C   UNL     1      -2.620  11.436  17.717  0.00  0.00    +0.000 A 
ATOM      4  C   UNL     1      -2.917  12.137  18.922  0.00  0.00    +0.000 A 
ATOM      5  N   UNL     1      -4.171  12.473  19.306  0.00  0.00    +0.000 N 
ATOM      6  C   UNL     1      -4.658  12.716  20.598  0.00  0.00    +0.000 A 
ATOM      7  C   UNL     1      -3.844  13.131  21.656  0.00  0.00    +0.000 A 
ATOM      8  C   UNL     1      -4.361  13.239  22.946  0.00  0.00    +0.000 A 
ATOM      9  C   UNL     1      -5.696  12.948  23.143  0.00  0.00    +0.000 A 
ATOM     10  F   UNL     1      -6.228  13.015  24.369  0.00  0.00    +0.000 F 
ATOM     11  C   UNL     1      -6.462  12.586  22.052  0.00  0.00    +0.000 A 
ATOM     12  N   UNL     1      -5.977  12.469  20.790  0.00  0.00    +0.000 NA
ATOM     13  N   UNL     1      -1.806  12.331  19.637  0.00  0.00    +0.000 NA
ATOM     14  H   UNL     1      -4.958  12.205  18.715  0.00  0.00    +0.000 HD
ENDROOT
BRANCH   1  20
ATOM     15  C   UNL     1       2.371   7.844  18.952  0.00  0.00    +0.000 C 
ATOM     16  O   UNL     1       3.223   7.821  18.070  0.00  0.00    +0.000 OA
ATOM     17  N   UNL     1       1.453   8.875  19.038  0.00  0.00    +0.000 N 
ATOM     18  C   UNL     1       1.432   9.858  17.970  0.00  0.00    +0.000 C 
ATOM     19  C   UNL     1       1.585  11.262  18.534  0.00  0.00    +0.000 C 
ATOM     20  C   UNL     1       0.500  11.582  19.598  0.00  0.00    +0.000 C 
ATOM     21  C   UNL     1       0.542  10.443  20.678  0.00  0.00    +0.000 C 
ATOM     22  C   UNL     1       0.451   9.033  20.085  0.00  0.00    +0.000 C 
BRANCH  15  23
ATOM     23  O   UNL     1       2.252   6.892  19.924  0.00  0.00    +0.000 OA
BRANCH  23  25
ATOM     24  C   UNL     1       4.063   5.253  19.647  0.00  0.00    +0.000 C 
ATOM     25  C   UNL     1       2.552   5.515  19.553  0.00  0.00    +0.000 C 
ATOM     26  C   UNL     1       1.974   5.175  18.167  0.00  0.00    +0.000 C 
ATOM     27  C   UNL     1       1.867   4.595  20.581  0.00  0.00    +0.000 C 
ENDBRANCH  23  25
ENDBRANCH  15  23
BRANCH  20  28
ATOM     28  C   UNL     1       0.835  12.920  20.317  0.00  0.00    +0.000 C 
BRANCH  28  29
ATOM     29  C   UNL     1       0.284  13.006  21.682  0.00  0.00    +0.000 C 
ATOM     30  N   UNL     1      -0.191  13.068  22.734  0.00  0.00    +0.000 NA
ENDBRANCH  28  29
ENDBRANCH  20  28
ENDBRANCH   1  20
BRANCH   3  31
ATOM     31  C   UNL     1      -3.505  11.028  16.648  0.00  0.00    +0.000 C 
ATOM     32  N   UNL     1      -2.941  10.202  15.713  0.00  0.00    +0.000 N 
ATOM     33  O   UNL     1      -4.688  11.342  16.585  0.00  0.00    +0.000 OA
ATOM     34  H   UNL     1      -2.060   9.737  15.880  0.00  0.00    +0.000 HD
ATOM     35  H   UNL     1      -3.551   9.829  15.000  0.00  0.00    +0.000 HD
ENDBRANCH   3  31
TORSDOF 6
ENDMDL
MODEL 8
REMARK VINA RESULT:      -6.6      1.058      1.390
REMARK  Name = 
REMARK  9 active torsions:
REMARK  status: ('A' for Active; 'I' for Inactive)
REMARK    1  A    between atoms: C_1  and  C_2
REMARK    2  A    between atoms: C_2  and  C_3
REMARK    3  A    between atoms: C_2  and  C_4
REMARK    4  A    between atoms: C_2  and  O_5
REMARK    5  A    between atoms: O_5  and  C_6
REMARK    6  A    between atoms: C_11  and  C_12
REMARK    7  A    between atoms: C_11  and  N_15
REMARK    8  A    between atoms: C_12  and  C_13
REMARK    9  A    between atoms: C_17  and  C_18
REMARK                            x       y       z     vdW  Elec       q    Type
REMARK                         _______ _______ _______ _____ _____    ______ ____
ROOT
ATOM      1  N   UNL     1      -0.883  12.064  19.368  0.00  0.00    +0.000 N 
ATOM      2  C   UNL     1      -1.175  11.534  18.149  0.00  0.00    +0.000 A 
ATOM      3  C   UNL     1      -2.546  11.644  17.988  0.00  0.00    +0.000 A 
ATOM      4  C   UNL     1      -2.989  12.313  19.165  0.00  0.00    +0.000 A 
ATOM      5  N   UNL     1      -4.293  12.529  19.461  0.00  0.00    +0.000 N 
ATOM      6  C   UNL     1      -4.887  12.725  20.716  0.00  0.00    +0.000 A 
ATOM      7  C   UNL     1      -4.190  13.215  21.823  0.00  0.00    +0.000 A 
ATOM      8  C   UNL     1      -4.802  13.274  23.075  0.00  0.00    +0.000 A 
ATOM      9  C   UNL     1      -6.113  12.858  23.183  0.00  0.00    +0.000 A 
ATOM     10  F   UNL     1      -6.731  12.875  24.370  0.00  0.00    +0.000 F 
ATOM     11  C   UNL     1      -6.765  12.425  22.045  0.00  0.00    +0.000 A 
ATOM     12  N   UNL     1      -6.186  12.355  20.819  0.00  0.00    +0.000 NA
ATOM     13  N   UNL     1      -1.952  12.613  19.953  0.00  0.00    +0.000 NA
ATOM     14  H   UNL     1      -5.008  12.188  18.820  0.00  0.00    +0.000 HD
ENDROOT
BRANCH   1  20
ATOM     15  C   UNL     1       2.529  15.718  19.627  0.00  0.00    +0.000 C 
ATOM     16  O   UNL     1       2.460  16.494  20.575  0.00  0.00    +0.000 OA
ATOM     17  N   UNL     1       1.631  14.676  19.486  0.00  0.00    +0.000 N 
ATOM     18  C   UNL     1       0.515  14.607  20.412  0.00  0.00    +0.000 C 
ATOM     19  C   UNL     1       0.474  13.251  21.098  0.00  0.00    +0.000 C 
ATOM     20  C   UNL     1       0.411  12.084  20.075  0.00  0.00    +0.000 C 
ATOM     21  C   UNL     1       1.607  12.266  19.073  0.00  0.00    +0.000 C 
ATOM     22  C   UNL     1       1.669  13.661  18.441  0.00  0.00    +0.000 C 
BRANCH  15  23
ATOM     23  O   UNL     1       3.480  15.789  18.649  0.00  0.00    +0.000 OA
BRANCH  23  25
ATOM     24  C   UNL     1       5.590  14.741  17.950  0.00  0.00    +0.000 C 
ATOM     25  C   UNL     1       4.861  15.542  19.041  0.00  0.00    +0.000 C 
ATOM     26  C   UNL     1       4.935  14.869  20.423  0.00  0.00    +0.000 C 
ATOM     27  C   UNL     1       5.567  16.907  19.149  0.00  0.00    +0.000 C 
ENDBRANCH  23  25
ENDBRANCH  15  23
BRANCH  20  28
ATOM     28  C   UNL     1       0.614  10.724  20.802  0.00  0.00    +0.000 C 
BRANCH  28  29
ATOM     29  C   UNL     1       0.027  10.690  22.155  0.00  0.00    +0.000 C 
ATOM     30  N   UNL     1      -0.473  10.668  23.196  0.00  0.00    +0.000 NA
ENDBRANCH  28  29
ENDBRANCH  20  28
ENDBRANCH   1  20
BRANCH   3  31
ATOM     31  C   UNL     1      -3.314  11.154  16.864  0.00  0.00    +0.000 C 
ATOM     32  N   UNL     1      -2.641  11.129  15.670  0.00  0.00    +0.000 N 
ATOM     33  O   UNL     1      -4.463  10.740  16.953  0.00  0.00    +0.000 OA
ATOM     34  H   UNL     1      -1.637  11.224  15.627  0.00  0.00    +0.000 HD
ATOM     35  H   UNL     1      -3.118  10.714  14.883  0.00  0.00    +0.000 HD
ENDBRANCH   3  31
TORSDOF 6
ENDMDL
MODEL 9
REMARK VINA RESULT:      -6.6      1.447      2.012
REMARK  Name = 
REMARK  9 active torsions:
REMARK  status: ('A' for Active; 'I' for Inactive)
REMARK    1  A    between atoms: C_1  and  C_2
REMARK    2  A    between atoms: C_2  and  C_3
REMARK    3  A    between atoms: C_2  and  C_4
REMARK    4  A    between atoms: C_2  and  O_5
REMARK    5  A    between atoms: O_5  and  C_6
REMARK    6  A    between atoms: C_11  and  C_12
REMARK    7  A    between atoms: C_11  and  N_15
REMARK    8  A    between atoms: C_12  and  C_13
REMARK    9  A    between atoms: C_17  and  C_18
REMARK                            x       y       z     vdW  Elec       q    Type
REMARK                         _______ _______ _______ _____ _____    ______ ____
ROOT
ATOM      1  N   UNL     1      -0.911  11.397  19.003  0.00  0.00    +0.000 N 
ATOM      2  C   UNL     1      -1.407  11.074  17.776  0.00  0.00    +0.000 A 
ATOM      3  C   UNL     1      -2.729  11.485  17.765  0.00  0.00    +0.000 A 
ATOM      4  C   UNL     1      -2.921  12.102  19.035  0.00  0.00    +0.000 A 
ATOM      5  N   UNL     1      -4.118  12.552  19.479  0.00  0.00    +0.000 N 
ATOM      6  C   UNL     1      -4.554  12.732  20.799  0.00  0.00    +0.000 A 
ATOM      7  C   UNL     1      -3.681  12.943  21.870  0.00  0.00    +0.000 A 
ATOM      8  C   UNL     1      -4.163  12.993  23.177  0.00  0.00    +0.000 A 
ATOM      9  C   UNL     1      -5.521  12.852  23.380  0.00  0.00    +0.000 A 
ATOM     10  F   UNL     1      -6.024  12.870  24.620  0.00  0.00    +0.000 F 
ATOM     11  C   UNL     1      -6.341  12.690  22.279  0.00  0.00    +0.000 A 
ATOM     12  N   UNL     1      -5.890  12.633  21.000  0.00  0.00    +0.000 NA
ATOM     13  N   UNL     1      -1.784  12.091  19.738  0.00  0.00    +0.000 NA
ATOM     14  H   UNL     1      -4.940  12.439  18.886  0.00  0.00    +0.000 HD
ENDROOT
BRANCH   1  20
ATOM     15  C   UNL     1       2.516  14.444  21.011  0.00  0.00    +0.000 C 
ATOM     16  O   UNL     1       2.485  14.613  22.226  0.00  0.00    +0.000 OA
ATOM     17  N   UNL     1       1.612  13.611  20.378  0.00  0.00    +0.000 N 
ATOM     18  C   UNL     1       0.531  13.052  21.170  0.00  0.00    +0.000 C 
ATOM     19  C   UNL     1       0.512  11.536  21.052  0.00  0.00    +0.000 C 
ATOM     20  C   UNL     1       0.409  11.070  19.574  0.00  0.00    +0.000 C 
ATOM     21  C   UNL     1       1.567  11.766  18.774  0.00  0.00    +0.000 C 
ATOM     22  C   UNL     1       1.609  13.287  18.957  0.00  0.00    +0.000 C 
BRANCH  15  23
ATOM     23  O   UNL     1       3.431  15.029  20.182  0.00  0.00    +0.000 OA
BRANCH  23  25
ATOM     24  C   UNL     1       3.404  16.643  18.329  0.00  0.00    +0.000 C 
ATOM     25  C   UNL     1       3.224  16.430  19.840  0.00  0.00    +0.000 C 
ATOM     26  C   UNL     1       4.129  17.347  20.682  0.00  0.00    +0.000 C 
ATOM     27  C   UNL     1       1.763  16.782  20.177  0.00  0.00    +0.000 C 
ENDBRANCH  23  25
ENDBRANCH  15  23
BRANCH  20  28
ATOM     28  C   UNL     1       0.635   9.533  19.481  0.00  0.00    +0.000 C 
BRANCH  28  29
ATOM     29  C   UNL     1       1.519   9.137  18.368  0.00  0.00    +0.000 C 
ATOM     30  N   UNL     1       2.246   8.825  17.527  0.00  0.00    +0.000 NA
ENDBRANCH  28  29
ENDBRANCH  20  28
ENDBRANCH   1  20
BRANCH   3  31
ATOM     31  C   UNL     1      -3.672  11.291  16.686  0.00  0.00    +0.000 C 
ATOM     32  N   UNL     1      -3.116  11.226  15.435  0.00  0.00    +0.000 N 
ATOM     33  O   UNL     1      -4.877  11.142  16.851  0.00  0.00    +0.000 OA
ATOM     34  H   UNL     1      -2.124  11.094  15.304  0.00  0.00    +0.000 HD
ATOM     35  H   UNL     1      -3.734  11.006  14.668  0.00  0.00    +0.000 HD
ENDBRANCH   3  31
TORSDOF 6
ENDMDL
