MODEL 1
REMARK VINA RESULT:      -7.6      0.000      0.000
REMARK  Name = 
REMARK  3 active torsions:
REMARK  status: ('A' for Active; 'I' for Inactive)
REMARK    1  A    between atoms: O_1  and  C_2
REMARK    2  A    between atoms: C_6  and  C_7
REMARK    3  A    between atoms: C_9  and  C_10
REMARK                            x       y       z     vdW  Elec       q    Type
REMARK                         _______ _______ _______ _____ _____    ______ ____
ROOT
ATOM      1  C   UNL     1       6.666   4.782  17.713  0.00  0.00    +0.000 C 
ATOM      2  N   UNL     1       6.514   4.000  16.516  0.00  0.00    +0.000 N 
ATOM      3  C   UNL     1       6.823   4.833  15.480  0.00  0.00    +0.000 C 
ATOM      4  N   UNL     1       7.212   6.032  15.841  0.00  0.00    +0.000 NA
ATOM      5  O   UNL     1       7.222   6.033  17.272  0.00  0.00    +0.000 OA
ATOM      6  H   UNL     1       7.026   3.125  16.513  0.00  0.00    +0.000 HD
ENDROOT
BRANCH   1  11
ATOM      7  C   UNL     1       2.800   5.354  19.585  0.00  0.00    +0.000 A 
ATOM      8  C   UNL     1       3.531   4.183  19.804  0.00  0.00    +0.000 A 
ATOM      9 BR   UNL     1       2.882   2.838  20.973  0.00  0.00    +0.000 Br
ATOM     10  C   UNL     1       4.767   3.989  19.182  0.00  0.00    +0.000 A 
ATOM     11  C   UNL     1       5.306   4.983  18.352  0.00  0.00    +0.000 A 
ATOM     12  C   UNL     1       4.541   6.140  18.104  0.00  0.00    +0.000 A 
ATOM     13  C   UNL     1       3.301   6.326  18.718  0.00  0.00    +0.000 A 
ATOM     14 BR   UNL     1       2.348   7.925  18.357  0.00  0.00    +0.000 Br
BRANCH   7  15
ATOM     15  O   UNL     1       1.601   5.563  20.215  0.00  0.00    +0.000 OA
ATOM     16  H   UNL     1       1.785   5.734  21.155  0.00  0.00    +0.000 HD
ENDBRANCH   7  15
ENDBRANCH   1  11
BRANCH   3  17
ATOM     17  C   UNL     1       6.704   4.458  14.056  0.00  0.00    +0.000 A 
ATOM     18  C   UNL     1       5.629   3.623  13.710  0.00  0.00    +0.000 A 
ATOM     19  C   UNL     1       5.437   3.223  12.388  0.00  0.00    +0.000 A 
ATOM     20  C   UNL     1       6.311   3.660  11.398  0.00  0.00    +0.000 A 
ATOM     21  C   UNL     1       7.390   4.484  11.736  0.00  0.00    +0.000 A 
ATOM     22  C   UNL     1       7.598   4.875  13.061  0.00  0.00    +0.000 A 
ATOM     23 CL   UNL     1       8.960   5.901  13.364  0.00  0.00    +0.000 Cl
ENDBRANCH   3  17
TORSDOF 3
ENDMDL
MODEL 2
REMARK VINA RESULT:      -7.5      0.059      2.063
REMARK  Name = 
REMARK  3 active torsions:
REMARK  status: ('A' for Active; 'I' for Inactive)
REMARK    1  A    between atoms: O_1  and  C_2
REMARK    2  A    between atoms: C_6  and  C_7
REMARK    3  A    between atoms: C_9  and  C_10
REMARK                            x       y       z     vdW  Elec       q    Type
REMARK                         _______ _______ _______ _____ _____    ______ ____
ROOT
ATOM      1  C   UNL     1       6.696   4.801  17.729  0.00  0.00    +0.000 C 
ATOM      2  N   UNL     1       6.549   4.010  16.537  0.00  0.00    +0.000 N 
ATOM      3  C   UNL     1       6.832   4.843  15.493  0.00  0.00    +0.000 C 
ATOM      4  N   UNL     1       7.200   6.052  15.845  0.00  0.00    +0.000 NA
ATOM      5  O   UNL     1       7.222   6.061  17.276  0.00  0.00    +0.000 OA
ATOM      6  H   UNL     1       7.079   3.146  16.534  0.00  0.00    +0.000 HD
ENDROOT
BRANCH   1  11
ATOM      7  C   UNL     1       2.794   5.312  19.543  0.00  0.00    +0.000 A 
ATOM      8  C   UNL     1       3.339   6.311  18.731  0.00  0.00    +0.000 A 
ATOM      9 BR   UNL     1       2.362   7.892  18.351  0.00  0.00    +0.000 Br
ATOM     10  C   UNL     1       4.606   6.156  18.165  0.00  0.00    +0.000 A 
ATOM     11  C   UNL     1       5.338   4.979  18.379  0.00  0.00    +0.000 A 
ATOM     12  C   UNL     1       4.798   3.997  19.234  0.00  0.00    +0.000 A 
ATOM     13  C   UNL     1       3.536   4.160  19.807  0.00  0.00    +0.000 A 
ATOM     14 BR   UNL     1       2.867   2.779  20.920  0.00  0.00    +0.000 Br
BRANCH   7  15
ATOM     15  O   UNL     1       1.539   5.445  20.076  0.00  0.00    +0.000 OA
ATOM     16  H   UNL     1       1.053   4.619  19.905  0.00  0.00    +0.000 HD
ENDBRANCH   7  15
ENDBRANCH   1  11
BRANCH   3  17
ATOM     17  C   UNL     1       6.707   4.458  14.073  0.00  0.00    +0.000 A 
ATOM     18  C   UNL     1       5.637   3.612  13.739  0.00  0.00    +0.000 A 
ATOM     19  C   UNL     1       5.441   3.202  12.420  0.00  0.00    +0.000 A 
ATOM     20  C   UNL     1       6.305   3.640  11.423  0.00  0.00    +0.000 A 
ATOM     21  C   UNL     1       7.379   4.475  11.749  0.00  0.00    +0.000 A 
ATOM     22  C   UNL     1       7.592   4.876  13.070  0.00  0.00    +0.000 A 
ATOM     23 CL   UNL     1       8.947   5.915  13.358  0.00  0.00    +0.000 Cl
ENDBRANCH   3  17
TORSDOF 3
ENDMDL
MODEL 3
REMARK VINA RESULT:      -7.2      3.979      7.506
REMARK  Name = 
REMARK  3 active torsions:
REMARK  status: ('A' for Active; 'I' for Inactive)
REMARK    1  A    between atoms: O_1  and  C_2
REMARK    2  A    between atoms: C_6  and  C_7
REMARK    3  A    between atoms: C_9  and  C_10
REMARK                            x       y       z     vdW  Elec       q    Type
REMARK                         _______ _______ _______ _____ _____    ______ ____
ROOT
ATOM      1  C   UNL     1       3.735   4.854  19.082  0.00  0.00    +0.000 C 
ATOM      2  N   UNL     1       3.509   6.046  19.853  0.00  0.00    +0.000 N 
ATOM      3  C   UNL     1       2.241   6.453  19.556  0.00  0.00    +0.000 C 
ATOM      4  N   UNL     1       1.589   5.657  18.743  0.00  0.00    +0.000 NA
ATOM      5  O   UNL     1       2.466   4.558  18.474  0.00  0.00    +0.000 OA
ATOM      6  H   UNL     1       3.693   5.951  20.845  0.00  0.00    +0.000 HD
ENDROOT
BRANCH   1  11
ATOM      7  C   UNL     1       6.792   5.642  16.112  0.00  0.00    +0.000 A 
ATOM      8  C   UNL     1       6.720   6.405  17.282  0.00  0.00    +0.000 A 
ATOM      9 BR   UNL     1       7.994   7.767  17.631  0.00  0.00    +0.000 Br
ATOM     10  C   UNL     1       5.721   6.166  18.228  0.00  0.00    +0.000 A 
ATOM     11  C   UNL     1       4.792   5.133  18.032  0.00  0.00    +0.000 A 
ATOM     12  C   UNL     1       4.847   4.399  16.830  0.00  0.00    +0.000 A 
ATOM     13  C   UNL     1       5.840   4.648  15.881  0.00  0.00    +0.000 A 
ATOM     14 BR   UNL     1       5.864   3.594  14.305  0.00  0.00    +0.000 Br
BRANCH   7  15
ATOM     15  O   UNL     1       7.787   5.852  15.195  0.00  0.00    +0.000 OA
ATOM     16  H   UNL     1       7.933   5.016  14.717  0.00  0.00    +0.000 HD
ENDBRANCH   7  15
ENDBRANCH   1  11
BRANCH   3  17
ATOM     17  C   UNL     1       1.635   7.702  20.061  0.00  0.00    +0.000 A 
ATOM     18  C   UNL     1       1.167   7.687  21.386  0.00  0.00    +0.000 A 
ATOM     19  C   UNL     1       0.586   8.824  21.946  0.00  0.00    +0.000 A 
ATOM     20  C   UNL     1       0.474   9.988  21.193  0.00  0.00    +0.000 A 
ATOM     21  C   UNL     1       0.928  10.007  19.870  0.00  0.00    +0.000 A 
ATOM     22  C   UNL     1       1.497   8.868  19.296  0.00  0.00    +0.000 A 
ATOM     23 CL   UNL     1       2.031   9.007  17.655  0.00  0.00    +0.000 Cl
ENDBRANCH   3  17
TORSDOF 3
ENDMDL
MODEL 4
REMARK VINA RESULT:      -7.2      3.948      7.375
REMARK  Name = 
REMARK  3 active torsions:
REMARK  status: ('A' for Active; 'I' for Inactive)
REMARK    1  A    between atoms: O_1  and  C_2
REMARK    2  A    between atoms: C_6  and  C_7
REMARK    3  A    between atoms: C_9  and  C_10
REMARK                            x       y       z     vdW  Elec       q    Type
REMARK                         _______ _______ _______ _____ _____    ______ ____
ROOT
ATOM      1  C   UNL     1       3.757   4.780  19.089  0.00  0.00    +0.000 C 
ATOM      2  N   UNL     1       3.515   5.965  19.866  0.00  0.00    +0.000 N 
ATOM      3  C   UNL     1       2.255   6.379  19.541  0.00  0.00    +0.000 C 
ATOM      4  N   UNL     1       1.623   5.594  18.703  0.00  0.00    +0.000 NA
ATOM      5  O   UNL     1       2.503   4.495  18.445  0.00  0.00    +0.000 OA
ATOM      6  H   UNL     1       3.673   5.858  20.862  0.00  0.00    +0.000 HD
ENDROOT
BRANCH   1  11
ATOM      7  C   UNL     1       6.823   5.611  16.141  0.00  0.00    +0.000 A 
ATOM      8  C   UNL     1       5.901   4.579  15.939  0.00  0.00    +0.000 A 
ATOM      9 BR   UNL     1       5.928   3.552  14.345  0.00  0.00    +0.000 Br
ATOM     10  C   UNL     1       4.928   4.296  16.900  0.00  0.00    +0.000 A 
ATOM     11  C   UNL     1       4.842   5.067  18.069  0.00  0.00    +0.000 A 
ATOM     12  C   UNL     1       5.802   6.076  18.282  0.00  0.00    +0.000 A 
ATOM     13  C   UNL     1       6.781   6.348  17.324  0.00  0.00    +0.000 A 
ATOM     14 BR   UNL     1       8.017   7.744  17.672  0.00  0.00    +0.000 Br
BRANCH   7  15
ATOM     15  O   UNL     1       7.761   5.912  15.189  0.00  0.00    +0.000 OA
ATOM     16  H   UNL     1       8.535   5.342  15.343  0.00  0.00    +0.000 HD
ENDBRANCH   7  15
ENDBRANCH   1  11
BRANCH   3  17
ATOM     17  C   UNL     1       1.640   7.624  20.045  0.00  0.00    +0.000 A 
ATOM     18  C   UNL     1       1.131   7.594  21.353  0.00  0.00    +0.000 A 
ATOM     19  C   UNL     1       0.538   8.726  21.911  0.00  0.00    +0.000 A 
ATOM     20  C   UNL     1       0.456   9.901  21.171  0.00  0.00    +0.000 A 
ATOM     21  C   UNL     1       0.952   9.936  19.863  0.00  0.00    +0.000 A 
ATOM     22  C   UNL     1       1.533   8.801  19.292  0.00  0.00    +0.000 A 
ATOM     23 CL   UNL     1       2.120   8.960  17.671  0.00  0.00    +0.000 Cl
ENDBRANCH   3  17
TORSDOF 3
ENDMDL
MODEL 5
REMARK VINA RESULT:      -7.1      6.314      8.787
REMARK  Name = 
REMARK  3 active torsions:
REMARK  status: ('A' for Active; 'I' for Inactive)
REMARK    1  A    between atoms: O_1  and  C_2
REMARK    2  A    between atoms: C_6  and  C_7
REMARK    3  A    between atoms: C_9  and  C_10
REMARK                            x       y       z     vdW  Elec       q    Type
REMARK                         _______ _______ _______ _____ _____    ______ ____
ROOT
ATOM      1  C   UNL     1       1.686   9.770  19.021  0.00  0.00    +0.000 C 
ATOM      2  N   UNL     1       0.785  10.093  17.948  0.00  0.00    +0.000 N 
ATOM      3  C   UNL     1      -0.453  10.198  18.512  0.00  0.00    +0.000 C 
ATOM      4  N   UNL     1      -0.474  10.045  19.814  0.00  0.00    +0.000 NA
ATOM      5  O   UNL     1       0.888   9.859  20.214  0.00  0.00    +0.000 OA
ATOM      6  H   UNL     1       1.058  10.897  17.393  0.00  0.00    +0.000 HD
ENDROOT
BRANCH   1  11
ATOM      7  C   UNL     1       3.243   5.766  18.455  0.00  0.00    +0.000 A 
ATOM      8  C   UNL     1       3.634   6.809  17.609  0.00  0.00    +0.000 A 
ATOM      9 BR   UNL     1       4.901   6.516  16.229  0.00  0.00    +0.000 Br
ATOM     10  C   UNL     1       3.114   8.094  17.777  0.00  0.00    +0.000 A 
ATOM     11  C   UNL     1       2.214   8.364  18.820  0.00  0.00    +0.000 A 
ATOM     12  C   UNL     1       1.795   7.296  19.638  0.00  0.00    +0.000 A 
ATOM     13  C   UNL     1       2.308   6.010  19.460  0.00  0.00    +0.000 A 
ATOM     14 BR   UNL     1       1.716   4.635  20.624  0.00  0.00    +0.000 Br
BRANCH   7  15
ATOM     15  O   UNL     1       3.772   4.510  18.313  0.00  0.00    +0.000 OA
ATOM     16  H   UNL     1       3.765   4.084  19.188  0.00  0.00    +0.000 HD
ENDBRANCH   7  15
ENDBRANCH   1  11
BRANCH   3  17
ATOM     17  C   UNL     1      -1.694  10.426  17.743  0.00  0.00    +0.000 A 
ATOM     18  C   UNL     1      -1.862   9.667  16.573  0.00  0.00    +0.000 A 
ATOM     19  C   UNL     1      -3.006   9.815  15.789  0.00  0.00    +0.000 A 
ATOM     20  C   UNL     1      -3.996  10.714  16.171  0.00  0.00    +0.000 A 
ATOM     21  C   UNL     1      -3.831  11.480  17.329  0.00  0.00    +0.000 A 
ATOM     22  C   UNL     1      -2.681  11.351  18.111  0.00  0.00    +0.000 A 
ATOM     23 CL   UNL     1      -2.586  12.343  19.526  0.00  0.00    +0.000 Cl
ENDBRANCH   3  17
TORSDOF 3
ENDMDL
MODEL 6
REMARK VINA RESULT:      -7.1      6.295      8.617
REMARK  Name = 
REMARK  3 active torsions:
REMARK  status: ('A' for Active; 'I' for Inactive)
REMARK    1  A    between atoms: O_1  and  C_2
REMARK    2  A    between atoms: C_6  and  C_7
REMARK    3  A    between atoms: C_9  and  C_10
REMARK                            x       y       z     vdW  Elec       q    Type
REMARK                         _______ _______ _______ _____ _____    ______ ____
ROOT
ATOM      1  C   UNL     1       1.737   9.795  18.956  0.00  0.00    +0.000 C 
ATOM      2  N   UNL     1       0.820  10.099  17.891  0.00  0.00    +0.000 N 
ATOM      3  C   UNL     1      -0.411  10.201  18.471  0.00  0.00    +0.000 C 
ATOM      4  N   UNL     1      -0.413  10.064  19.775  0.00  0.00    +0.000 NA
ATOM      5  O   UNL     1       0.955   9.892  20.159  0.00  0.00    +0.000 OA
ATOM      6  H   UNL     1       1.080  10.898  17.323  0.00  0.00    +0.000 HD
ENDROOT
BRANCH   1  11
ATOM      7  C   UNL     1       3.226   5.763  18.404  0.00  0.00    +0.000 A 
ATOM      8  C   UNL     1       2.340   6.060  19.444  0.00  0.00    +0.000 A 
ATOM      9 BR   UNL     1       1.717   4.696  20.606  0.00  0.00    +0.000 Br
ATOM     10  C   UNL     1       1.879   7.364  19.636  0.00  0.00    +0.000 A 
ATOM     11  C   UNL     1       2.274   8.391  18.765  0.00  0.00    +0.000 A 
ATOM     12  C   UNL     1       3.200   8.089  17.747  0.00  0.00    +0.000 A 
ATOM     13  C   UNL     1       3.669   6.786  17.565  0.00  0.00    +0.000 A 
ATOM     14 BR   UNL     1       4.889   6.458  16.152  0.00  0.00    +0.000 Br
BRANCH   7  15
ATOM     15  O   UNL     1       3.658   4.481  18.192  0.00  0.00    +0.000 OA
ATOM     16  H   UNL     1       4.214   4.225  18.950  0.00  0.00    +0.000 HD
ENDBRANCH   7  15
ENDBRANCH   1  11
BRANCH   3  17
ATOM     17  C   UNL     1      -1.663  10.411  17.716  0.00  0.00    +0.000 A 
ATOM     18  C   UNL     1      -1.835   9.646  16.551  0.00  0.00    +0.000 A 
ATOM     19  C   UNL     1      -2.990   9.776  15.779  0.00  0.00    +0.000 A 
ATOM     20  C   UNL     1      -3.987  10.664  16.169  0.00  0.00    +0.000 A 
ATOM     21  C   UNL     1      -3.819  11.436  17.323  0.00  0.00    +0.000 A 
ATOM     22  C   UNL     1      -2.658  11.324  18.092  0.00  0.00    +0.000 A 
ATOM     23 CL   UNL     1      -2.560  12.322  19.503  0.00  0.00    +0.000 Cl
ENDBRANCH   3  17
TORSDOF 3
ENDMDL
MODEL 7
REMARK VINA RESULT:      -7.0      5.626      7.120
REMARK  Name = 
REMARK  3 active torsions:
REMARK  status: ('A' for Active; 'I' for Inactive)
REMARK    1  A    between atoms: O_1  and  C_2
REMARK    2  A    between atoms: C_6  and  C_7
REMARK    3  A    between atoms: C_9  and  C_10
REMARK                            x       y       z     vdW  Elec       q    Type
REMARK                         _______ _______ _______ _____ _____    ______ ____
ROOT
ATOM      1  C   UNL     1       2.429   8.176  18.780  0.00  0.00    +0.000 C 
ATOM      2  N   UNL     1       2.777   7.166  19.742  0.00  0.00    +0.000 N 
ATOM      3  C   UNL     1       2.393   5.976  19.196  0.00  0.00    +0.000 C 
ATOM      4  N   UNL     1       1.897   6.066  17.985  0.00  0.00    +0.000 NA
ATOM      5  O   UNL     1       1.980   7.449  17.624  0.00  0.00    +0.000 OA
ATOM      6  H   UNL     1       3.742   7.190  20.052  0.00  0.00    +0.000 HD
ENDROOT
BRANCH   1  11
ATOM      7  C   UNL     1      -0.707  10.674  20.426  0.00  0.00    +0.000 A 
ATOM      8  C   UNL     1       0.013   9.799  21.246  0.00  0.00    +0.000 A 
ATOM      9 BR   UNL     1      -0.321   9.724  23.112  0.00  0.00    +0.000 Br
ATOM     10  C   UNL     1       1.007   8.978  20.711  0.00  0.00    +0.000 A 
ATOM     11  C   UNL     1       1.321   9.042  19.345  0.00  0.00    +0.000 A 
ATOM     12  C   UNL     1       0.560   9.895  18.521  0.00  0.00    +0.000 A 
ATOM     13  C   UNL     1      -0.442  10.707  19.057  0.00  0.00    +0.000 A 
ATOM     14 BR   UNL     1      -1.397  11.850  17.885  0.00  0.00    +0.000 Br
BRANCH   7  15
ATOM     15  O   UNL     1      -1.663  11.503  20.950  0.00  0.00    +0.000 OA
ATOM     16  H   UNL     1      -2.182  10.990  21.594  0.00  0.00    +0.000 HD
ENDBRANCH   7  15
ENDBRANCH   1  11
BRANCH   3  17
ATOM     17  C   UNL     1       2.481   4.679  19.898  0.00  0.00    +0.000 A 
ATOM     18  C   UNL     1       1.410   4.343  20.742  0.00  0.00    +0.000 A 
ATOM     19  C   UNL     1       1.407   3.136  21.440  0.00  0.00    +0.000 A 
ATOM     20  C   UNL     1       2.469   2.250  21.295  0.00  0.00    +0.000 A 
ATOM     21  C   UNL     1       3.544   2.581  20.464  0.00  0.00    +0.000 A 
ATOM     22  C   UNL     1       3.562   3.796  19.774  0.00  0.00    +0.000 A 
ATOM     23 CL   UNL     1       4.938   4.100  18.769  0.00  0.00    +0.000 Cl
ENDBRANCH   3  17
TORSDOF 3
ENDMDL
MODEL 8
REMARK VINA RESULT:      -7.0      7.313      9.695
REMARK  Name = 
REMARK  3 active torsions:
REMARK  status: ('A' for Active; 'I' for Inactive)
REMARK    1  A    between atoms: O_1  and  C_2
REMARK    2  A    between atoms: C_6  and  C_7
REMARK    3  A    between atoms: C_9  and  C_10
REMARK                            x       y       z     vdW  Elec       q    Type
REMARK                         _______ _______ _______ _____ _____    ______ ____
ROOT
ATOM      1  C   UNL     1      -0.572   9.707  22.915  0.00  0.00    +0.000 C 
ATOM      2  N   UNL     1      -0.420   8.967  21.692  0.00  0.00    +0.000 N 
ATOM      3  C   UNL     1       0.923   8.788  21.523  0.00  0.00    +0.000 C 
ATOM      4  N   UNL     1       1.662   9.258  22.499  0.00  0.00    +0.000 NA
ATOM      5  O   UNL     1       0.752   9.780  23.472  0.00  0.00    +0.000 OA
ATOM      6  H   UNL     1      -0.963   8.112  21.642  0.00  0.00    +0.000 HD
ENDROOT
BRANCH   1  11
ATOM      7  C   UNL     1      -2.118  13.642  21.962  0.00  0.00    +0.000 A 
ATOM      8  C   UNL     1      -1.039  13.108  21.251  0.00  0.00    +0.000 A 
ATOM      9 BR   UNL     1      -0.259  14.064  19.810  0.00  0.00    +0.000 Br
ATOM     10  C   UNL     1      -0.526  11.850  21.573  0.00  0.00    +0.000 A 
ATOM     11  C   UNL     1      -1.109  11.089  22.598  0.00  0.00    +0.000 A 
ATOM     12  C   UNL     1      -2.167  11.654  23.336  0.00  0.00    +0.000 A 
ATOM     13  C   UNL     1      -2.670  12.917  23.018  0.00  0.00    +0.000 A 
ATOM     14 BR   UNL     1      -4.117  13.593  24.040  0.00  0.00    +0.000 Br
BRANCH   7  15
ATOM     15  O   UNL     1      -2.644  14.862  21.631  0.00  0.00    +0.000 OA
ATOM     16  H   UNL     1      -2.876  14.841  20.686  0.00  0.00    +0.000 HD
ENDBRANCH   7  15
ENDBRANCH   1  11
BRANCH   3  17
ATOM     17  C   UNL     1       1.528   8.154  20.334  0.00  0.00    +0.000 A 
ATOM     18  C   UNL     1       1.948   6.821  20.472  0.00  0.00    +0.000 A 
ATOM     19  C   UNL     1       2.525   6.144  19.399  0.00  0.00    +0.000 A 
ATOM     20  C   UNL     1       2.680   6.787  18.176  0.00  0.00    +0.000 A 
ATOM     21  C   UNL     1       2.274   8.118  18.033  0.00  0.00    +0.000 A 
ATOM     22  C   UNL     1       1.710   8.809  19.108  0.00  0.00    +0.000 A 
ATOM     23 CL   UNL     1       1.236  10.449  18.817  0.00  0.00    +0.000 Cl
ENDBRANCH   3  17
TORSDOF 3
ENDMDL
MODEL 9
REMARK VINA RESULT:      -7.0      7.361      9.661
REMARK  Name = 
REMARK  3 active torsions:
REMARK  status: ('A' for Active; 'I' for Inactive)
REMARK    1  A    between atoms: O_1  and  C_2
REMARK    2  A    between atoms: C_6  and  C_7
REMARK    3  A    between atoms: C_9  and  C_10
REMARK                            x       y       z     vdW  Elec       q    Type
REMARK                         _______ _______ _______ _____ _____    ______ ____
ROOT
ATOM      1  C   UNL     1      -0.582   9.661  22.996  0.00  0.00    +0.000 C 
ATOM      2  N   UNL     1      -0.434   8.928  21.768  0.00  0.00    +0.000 N 
ATOM      3  C   UNL     1       0.909   8.775  21.578  0.00  0.00    +0.000 C 
ATOM      4  N   UNL     1       1.654   9.256  22.543  0.00  0.00    +0.000 NA
ATOM      5  O   UNL     1       0.749   9.757  23.533  0.00  0.00    +0.000 OA
ATOM      6  H   UNL     1      -0.962   8.064  21.724  0.00  0.00    +0.000 HD
ENDROOT
BRANCH   1  11
ATOM      7  C   UNL     1      -2.195  13.598  22.175  0.00  0.00    +0.000 A 
ATOM      8  C   UNL     1      -2.767  12.784  23.157  0.00  0.00    +0.000 A 
ATOM      9 BR   UNL     1      -4.226  13.402  24.200  0.00  0.00    +0.000 Br
ATOM     10  C   UNL     1      -2.261  11.506  23.406  0.00  0.00    +0.000 A 
ATOM     11  C   UNL     1      -1.149  11.033  22.693  0.00  0.00    +0.000 A 
ATOM     12  C   UNL     1      -0.609  11.844  21.675  0.00  0.00    +0.000 A 
ATOM     13  C   UNL     1      -1.124  13.117  21.422  0.00  0.00    +0.000 A 
ATOM     14 BR   UNL     1      -0.318  14.159  20.057  0.00  0.00    +0.000 Br
BRANCH   7  15
ATOM     15  O   UNL     1      -2.667  14.863  21.947  0.00  0.00    +0.000 OA
ATOM     16  H   UNL     1      -3.634  14.847  22.065  0.00  0.00    +0.000 HD
ENDBRANCH   7  15
ENDBRANCH   1  11
BRANCH   3  17
ATOM     17  C   UNL     1       1.507   8.158  20.377  0.00  0.00    +0.000 A 
ATOM     18  C   UNL     1       1.965   6.836  20.506  0.00  0.00    +0.000 A 
ATOM     19  C   UNL     1       2.539   6.174  19.422  0.00  0.00    +0.000 A 
ATOM     20  C   UNL     1       2.652   6.821  18.196  0.00  0.00    +0.000 A 
ATOM     21  C   UNL     1       2.208   8.140  18.062  0.00  0.00    +0.000 A 
ATOM     22  C   UNL     1       1.647   8.817  19.148  0.00  0.00    +0.000 A 
ATOM     23 CL   UNL     1       1.124  10.443  18.866  0.00  0.00    +0.000 Cl
ENDBRANCH   3  17
TORSDOF 3
ENDMDL
