MODEL 1
REMARK VINA RESULT:      -7.9      0.000      0.000
REMARK  Name = 
REMARK  10 active torsions:
REMARK  status: ('A' for Active; 'I' for Inactive)
REMARK    1  A    between atoms: O_1  and  C_2
REMARK    2  A    between atoms: C_2  and  C_3
REMARK    3  A    between atoms: C_3  and  C_4
REMARK    4  A    between atoms: C_3  and  N_10
REMARK    5  A    between atoms: C_11  and  C_12
REMARK    6  A    between atoms: C_12  and  C_13
REMARK    7  A    between atoms: C_13  and  C_14
REMARK    8  A    between atoms: C_22  and  C_23
REMARK    9  A    between atoms: C_23  and  C_24
REMARK   10  A    between atoms: C_24  and  C_25
REMARK                            x       y       z     vdW  Elec       q    Type
REMARK                         _______ _______ _______ _____ _____    ______ ____
ROOT
ATOM      1  N   UNL     1       4.434   4.705  17.587  0.00  0.00    +0.000 NA
ATOM      2  C   UNL     1       5.678   4.738  16.778  0.00  0.00    +0.000 C 
ATOM      3  C   UNL     1       6.802   4.540  17.794  0.00  0.00    +0.000 C 
ATOM      4  C   UNL     1       6.354   5.354  18.983  0.00  0.00    +0.000 C 
ATOM      5  C   UNL     1       4.824   5.385  18.876  0.00  0.00    +0.000 C 
ENDROOT
BRANCH   1   6
ATOM      6  C   UNL     1       3.798   3.375  17.882  0.00  0.00    +0.000 C 
BRANCH   6   7
ATOM      7  C   UNL     1       3.006   3.417  19.203  0.00  0.00    +0.000 A 
ATOM      8  C   UNL     1       1.771   4.087  19.298  0.00  0.00    +0.000 A 
ATOM      9  C   UNL     1       1.024   4.031  20.476  0.00  0.00    +0.000 A 
ATOM     10  C   UNL     1       1.508   3.325  21.574  0.00  0.00    +0.000 A 
ATOM     11  C   UNL     1       2.736   2.669  21.496  0.00  0.00    +0.000 A 
ATOM     12  C   UNL     1       3.481   2.715  20.320  0.00  0.00    +0.000 A 
ENDBRANCH   6   7
BRANCH   6  13
ATOM     13  C   UNL     1       2.768   2.823  16.844  0.00  0.00    +0.000 C 
BRANCH  13  14
ATOM     14  O   UNL     1       2.073   1.657  17.304  0.00  0.00    +0.000 OA
ATOM     15  H   UNL     1       2.489   0.900  16.859  0.00  0.00    +0.000 HD
ENDBRANCH  13  14
ENDBRANCH   6  13
ENDBRANCH   1   6
BRANCH   2  16
ATOM     16  C   UNL     1       5.935   3.859  15.555  0.00  0.00    +0.000 C 
BRANCH  16  17
ATOM     17  C   UNL     1       6.514   4.570  14.322  0.00  0.00    +0.000 C 
BRANCH  17  18
ATOM     18  C   UNL     1       6.122   3.804  13.075  0.00  0.00    +0.000 A 
ATOM     19  C   UNL     1       4.791   3.740  12.634  0.00  0.00    +0.000 A 
ATOM     20  C   UNL     1       4.441   2.911  11.564  0.00  0.00    +0.000 A 
ATOM     21  C   UNL     1       5.416   2.151  10.920  0.00  0.00    +0.000 A 
ATOM     22  C   UNL     1       6.743   2.229  11.332  0.00  0.00    +0.000 A 
ATOM     23  C   UNL     1       7.094   3.056  12.396  0.00  0.00    +0.000 A 
ENDBRANCH  17  18
ENDBRANCH  16  17
ENDBRANCH   2  16
BRANCH   5  24
ATOM     24  C   UNL     1       4.252   6.815  18.995  0.00  0.00    +0.000 C 
BRANCH  24  25
ATOM     25  C   UNL     1       3.041   7.106  18.099  0.00  0.00    +0.000 C 
BRANCH  25  26
ATOM     26  C   UNL     1       2.089   8.123  18.678  0.00  0.00    +0.000 A 
ATOM     27  C   UNL     1       1.508   9.101  17.860  0.00  0.00    +0.000 A 
ATOM     28  C   UNL     1       0.585  10.005  18.387  0.00  0.00    +0.000 A 
ATOM     29  C   UNL     1       0.240   9.942  19.736  0.00  0.00    +0.000 A 
ATOM     30  C   UNL     1       0.814   8.976  20.558  0.00  0.00    +0.000 A 
ATOM     31  C   UNL     1       1.733   8.069  20.032  0.00  0.00    +0.000 A 
ENDBRANCH  25  26
ENDBRANCH  24  25
ENDBRANCH   5  24
TORSDOF 10
ENDMDL
MODEL 2
REMARK VINA RESULT:      -7.9      1.766      8.124
REMARK  Name = 
REMARK  10 active torsions:
REMARK  status: ('A' for Active; 'I' for Inactive)
REMARK    1  A    between atoms: O_1  and  C_2
REMARK    2  A    between atoms: C_2  and  C_3
REMARK    3  A    between atoms: C_3  and  C_4
REMARK    4  A    between atoms: C_3  and  N_10
REMARK    5  A    between atoms: C_11  and  C_12
REMARK    6  A    between atoms: C_12  and  C_13
REMARK    7  A    between atoms: C_13  and  C_14
REMARK    8  A    between atoms: C_22  and  C_23
REMARK    9  A    between atoms: C_23  and  C_24
REMARK   10  A    between atoms: C_24  and  C_25
REMARK                            x       y       z     vdW  Elec       q    Type
REMARK                         _______ _______ _______ _____ _____    ______ ____
ROOT
ATOM      1  N   UNL     1       3.079   6.154  19.398  0.00  0.00    +0.000 NA
ATOM      2  C   UNL     1       2.675   7.577  19.522  0.00  0.00    +0.000 C 
ATOM      3  C   UNL     1       2.438   8.035  18.084  0.00  0.00    +0.000 C 
ATOM      4  C   UNL     1       3.550   7.369  17.311  0.00  0.00    +0.000 C 
ATOM      5  C   UNL     1       3.898   6.120  18.131  0.00  0.00    +0.000 C 
ENDROOT
BRANCH   1   6
ATOM      6  C   UNL     1       2.008   5.100  19.343  0.00  0.00    +0.000 C 
BRANCH   6   7
ATOM      7  C   UNL     1       2.603   3.718  19.009  0.00  0.00    +0.000 A 
ATOM      8  C   UNL     1       2.261   3.038  17.824  0.00  0.00    +0.000 A 
ATOM      9  C   UNL     1       2.884   1.834  17.493  0.00  0.00    +0.000 A 
ATOM     10  C   UNL     1       3.839   1.288  18.347  0.00  0.00    +0.000 A 
ATOM     11  C   UNL     1       4.176   1.944  19.530  0.00  0.00    +0.000 A 
ATOM     12  C   UNL     1       3.562   3.151  19.860  0.00  0.00    +0.000 A 
ENDBRANCH   6   7
BRANCH   6  13
ATOM     13  C   UNL     1       1.179   4.847  20.644  0.00  0.00    +0.000 C 
BRANCH  13  14
ATOM     14  O   UNL     1       0.347   3.683  20.566  0.00  0.00    +0.000 OA
ATOM     15  H   UNL     1       0.555   3.146  21.349  0.00  0.00    +0.000 HD
ENDBRANCH  13  14
ENDBRANCH   6  13
ENDBRANCH   1   6
BRANCH   2  16
ATOM     16  C   UNL     1       1.535   8.076  20.409  0.00  0.00    +0.000 C 
BRANCH  16  17
ATOM     17  C   UNL     1       0.580   9.097  19.771  0.00  0.00    +0.000 C 
BRANCH  17  18
ATOM     18  C   UNL     1      -0.100   9.895  20.865  0.00  0.00    +0.000 A 
ATOM     19  C   UNL     1      -0.459  11.239  20.686  0.00  0.00    +0.000 A 
ATOM     20  C   UNL     1      -0.955  11.986  21.758  0.00  0.00    +0.000 A 
ATOM     21  C   UNL     1      -1.106  11.397  23.012  0.00  0.00    +0.000 A 
ATOM     22  C   UNL     1      -0.778  10.056  23.193  0.00  0.00    +0.000 A 
ATOM     23  C   UNL     1      -0.286   9.309  22.125  0.00  0.00    +0.000 A 
ENDBRANCH  17  18
ENDBRANCH  16  17
ENDBRANCH   2  16
BRANCH   5  24
ATOM     24  C   UNL     1       5.413   5.993  18.401  0.00  0.00    +0.000 C 
BRANCH  24  25
ATOM     25  C   UNL     1       6.048   4.678  17.931  0.00  0.00    +0.000 C 
BRANCH  25  26
ATOM     26  C   UNL     1       6.183   4.572  16.432  0.00  0.00    +0.000 A 
ATOM     27  C   UNL     1       7.280   5.142  15.774  0.00  0.00    +0.000 A 
ATOM     28  C   UNL     1       7.432   4.995  14.395  0.00  0.00    +0.000 A 
ATOM     29  C   UNL     1       6.485   4.281  13.662  0.00  0.00    +0.000 A 
ATOM     30  C   UNL     1       5.388   3.713  14.306  0.00  0.00    +0.000 A 
ATOM     31  C   UNL     1       5.238   3.856  15.685  0.00  0.00    +0.000 A 
ENDBRANCH  25  26
ENDBRANCH  24  25
ENDBRANCH   5  24
TORSDOF 10
ENDMDL
MODEL 3
REMARK VINA RESULT:      -7.7      2.611      8.536
REMARK  Name = 
REMARK  10 active torsions:
REMARK  status: ('A' for Active; 'I' for Inactive)
REMARK    1  A    between atoms: O_1  and  C_2
REMARK    2  A    between atoms: C_2  and  C_3
REMARK    3  A    between atoms: C_3  and  C_4
REMARK    4  A    between atoms: C_3  and  N_10
REMARK    5  A    between atoms: C_11  and  C_12
REMARK    6  A    between atoms: C_12  and  C_13
REMARK    7  A    between atoms: C_13  and  C_14
REMARK    8  A    between atoms: C_22  and  C_23
REMARK    9  A    between atoms: C_23  and  C_24
REMARK   10  A    between atoms: C_24  and  C_25
REMARK                            x       y       z     vdW  Elec       q    Type
REMARK                         _______ _______ _______ _____ _____    ______ ____
ROOT
ATOM      1  N   UNL     1       2.503   7.284  19.420  0.00  0.00    +0.000 NA
ATOM      2  C   UNL     1       1.878   8.486  20.026  0.00  0.00    +0.000 C 
ATOM      3  C   UNL     1       0.867   8.961  18.984  0.00  0.00    +0.000 C 
ATOM      4  C   UNL     1       1.586   8.755  17.673  0.00  0.00    +0.000 C 
ATOM      5  C   UNL     1       2.581   7.621  17.951  0.00  0.00    +0.000 C 
ENDROOT
BRANCH   1   6
ATOM      6  C   UNL     1       1.834   5.950  19.604  0.00  0.00    +0.000 C 
BRANCH   6   7
ATOM      7  C   UNL     1       2.597   4.837  18.858  0.00  0.00    +0.000 A 
ATOM      8  C   UNL     1       3.836   4.357  19.324  0.00  0.00    +0.000 A 
ATOM      9  C   UNL     1       4.463   3.283  18.691  0.00  0.00    +0.000 A 
ATOM     10  C   UNL     1       3.872   2.692  17.577  0.00  0.00    +0.000 A 
ATOM     11  C   UNL     1       2.652   3.167  17.098  0.00  0.00    +0.000 A 
ATOM     12  C   UNL     1       2.019   4.233  17.733  0.00  0.00    +0.000 A 
ENDBRANCH   6   7
BRANCH   6  13
ATOM     13  C   UNL     1       1.706   5.404  21.063  0.00  0.00    +0.000 C 
BRANCH  13  14
ATOM     14  O   UNL     1       1.197   4.066  21.122  0.00  0.00    +0.000 OA
ATOM     15  H   UNL     1       1.548   3.678  21.942  0.00  0.00    +0.000 HD
ENDBRANCH  13  14
ENDBRANCH   6  13
ENDBRANCH   1   6
BRANCH   2  16
ATOM     16  C   UNL     1       1.233   8.516  21.412  0.00  0.00    +0.000 C 
BRANCH  16  17
ATOM     17  C   UNL     1      -0.259   8.882  21.453  0.00  0.00    +0.000 C 
BRANCH  17  18
ATOM     18  C   UNL     1      -0.409  10.312  21.932  0.00  0.00    +0.000 A 
ATOM     19  C   UNL     1      -1.240  10.647  23.011  0.00  0.00    +0.000 A 
ATOM     20  C   UNL     1      -1.466  11.986  23.338  0.00  0.00    +0.000 A 
ATOM     21  C   UNL     1      -0.859  13.000  22.599  0.00  0.00    +0.000 A 
ATOM     22  C   UNL     1      -0.012  12.677  21.542  0.00  0.00    +0.000 A 
ATOM     23  C   UNL     1       0.218  11.342  21.217  0.00  0.00    +0.000 A 
ENDBRANCH  17  18
ENDBRANCH  16  17
ENDBRANCH   2  16
BRANCH   5  24
ATOM     24  C   UNL     1       4.015   7.966  17.492  0.00  0.00    +0.000 C 
BRANCH  24  25
ATOM     25  C   UNL     1       4.530   7.147  16.301  0.00  0.00    +0.000 C 
BRANCH  25  26
ATOM     26  C   UNL     1       5.679   6.233  16.646  0.00  0.00    +0.000 A 
ATOM     27  C   UNL     1       6.412   6.424  17.824  0.00  0.00    +0.000 A 
ATOM     28  C   UNL     1       7.438   5.543  18.169  0.00  0.00    +0.000 A 
ATOM     29  C   UNL     1       7.743   4.468  17.336  0.00  0.00    +0.000 A 
ATOM     30  C   UNL     1       7.022   4.271  16.160  0.00  0.00    +0.000 A 
ATOM     31  C   UNL     1       5.993   5.148  15.817  0.00  0.00    +0.000 A 
ENDBRANCH  25  26
ENDBRANCH  24  25
ENDBRANCH   5  24
TORSDOF 10
ENDMDL
MODEL 4
REMARK VINA RESULT:      -7.6      1.849      7.533
REMARK  Name = 
REMARK  10 active torsions:
REMARK  status: ('A' for Active; 'I' for Inactive)
REMARK    1  A    between atoms: O_1  and  C_2
REMARK    2  A    between atoms: C_2  and  C_3
REMARK    3  A    between atoms: C_3  and  C_4
REMARK    4  A    between atoms: C_3  and  N_10
REMARK    5  A    between atoms: C_11  and  C_12
REMARK    6  A    between atoms: C_12  and  C_13
REMARK    7  A    between atoms: C_13  and  C_14
REMARK    8  A    between atoms: C_22  and  C_23
REMARK    9  A    between atoms: C_23  and  C_24
REMARK   10  A    between atoms: C_24  and  C_25
REMARK                            x       y       z     vdW  Elec       q    Type
REMARK                         _______ _______ _______ _____ _____    ______ ____
ROOT
ATOM      1  N   UNL     1       3.006   6.306  19.382  0.00  0.00    +0.000 NA
ATOM      2  C   UNL     1       2.541   7.708  19.240  0.00  0.00    +0.000 C 
ATOM      3  C   UNL     1       2.506   7.951  17.732  0.00  0.00    +0.000 C 
ATOM      4  C   UNL     1       3.742   7.245  17.230  0.00  0.00    +0.000 C 
ATOM      5  C   UNL     1       4.005   6.142  18.262  0.00  0.00    +0.000 C 
ENDROOT
BRANCH   1   6
ATOM      6  C   UNL     1       1.990   5.199  19.327  0.00  0.00    +0.000 C 
BRANCH   6   7
ATOM      7  C   UNL     1       2.650   3.854  18.963  0.00  0.00    +0.000 A 
ATOM      8  C   UNL     1       3.538   3.209  19.845  0.00  0.00    +0.000 A 
ATOM      9  C   UNL     1       4.049   1.947  19.538  0.00  0.00    +0.000 A 
ATOM     10  C   UNL     1       3.696   1.326  18.343  0.00  0.00    +0.000 A 
ATOM     11  C   UNL     1       2.828   1.960  17.455  0.00  0.00    +0.000 A 
ATOM     12  C   UNL     1       2.309   3.217  17.762  0.00  0.00    +0.000 A 
ENDBRANCH   6   7
BRANCH   6  13
ATOM     13  C   UNL     1       1.197   4.884  20.637  0.00  0.00    +0.000 C 
BRANCH  13  14
ATOM     14  O   UNL     1       0.376   3.714  20.533  0.00  0.00    +0.000 OA
ATOM     15  H   UNL     1       0.968   2.954  20.664  0.00  0.00    +0.000 HD
ENDBRANCH  13  14
ENDBRANCH   6  13
ENDBRANCH   1   6
BRANCH   2  16
ATOM     16  C   UNL     1       1.267   8.263  19.875  0.00  0.00    +0.000 C 
BRANCH  16  17
ATOM     17  C   UNL     1       1.222   9.786  20.076  0.00  0.00    +0.000 C 
BRANCH  17  18
ATOM     18  C   UNL     1      -0.008  10.344  19.389  0.00  0.00    +0.000 A 
ATOM     19  C   UNL     1      -0.836  11.291  20.009  0.00  0.00    +0.000 A 
ATOM     20  C   UNL     1      -2.037  11.679  19.410  0.00  0.00    +0.000 A 
ATOM     21  C   UNL     1      -2.416  11.134  18.184  0.00  0.00    +0.000 A 
ATOM     22  C   UNL     1      -1.588  10.214  17.547  0.00  0.00    +0.000 A 
ATOM     23  C   UNL     1      -0.389   9.828  18.142  0.00  0.00    +0.000 A 
ENDBRANCH  17  18
ENDBRANCH  16  17
ENDBRANCH   2  16
BRANCH   5  24
ATOM     24  C   UNL     1       5.466   6.134  18.762  0.00  0.00    +0.000 C 
BRANCH  24  25
ATOM     25  C   UNL     1       6.282   4.897  18.363  0.00  0.00    +0.000 C 
BRANCH  25  26
ATOM     26  C   UNL     1       6.371   4.686  16.872  0.00  0.00    +0.000 A 
ATOM     27  C   UNL     1       5.538   3.759  16.232  0.00  0.00    +0.000 A 
ATOM     28  C   UNL     1       5.584   3.606  14.846  0.00  0.00    +0.000 A 
ATOM     29  C   UNL     1       6.465   4.375  14.089  0.00  0.00    +0.000 A 
ATOM     30  C   UNL     1       7.300   5.298  14.715  0.00  0.00    +0.000 A 
ATOM     31  C   UNL     1       7.252   5.455  16.100  0.00  0.00    +0.000 A 
ENDBRANCH  25  26
ENDBRANCH  24  25
ENDBRANCH   5  24
TORSDOF 10
ENDMDL
MODEL 5
REMARK VINA RESULT:      -7.5      2.205      8.443
REMARK  Name = 
REMARK  10 active torsions:
REMARK  status: ('A' for Active; 'I' for Inactive)
REMARK    1  A    between atoms: O_1  and  C_2
REMARK    2  A    between atoms: C_2  and  C_3
REMARK    3  A    between atoms: C_3  and  C_4
REMARK    4  A    between atoms: C_3  and  N_10
REMARK    5  A    between atoms: C_11  and  C_12
REMARK    6  A    between atoms: C_12  and  C_13
REMARK    7  A    between atoms: C_13  and  C_14
REMARK    8  A    between atoms: C_22  and  C_23
REMARK    9  A    between atoms: C_23  and  C_24
REMARK   10  A    between atoms: C_24  and  C_25
REMARK                            x       y       z     vdW  Elec       q    Type
REMARK                         _______ _______ _______ _____ _____    ______ ____
ROOT
ATOM      1  N   UNL     1       2.449   7.071  19.285  0.00  0.00    +0.000 NA
ATOM      2  C   UNL     1       1.834   8.235  19.972  0.00  0.00    +0.000 C 
ATOM      3  C   UNL     1       0.897   8.845  18.930  0.00  0.00    +0.000 C 
ATOM      4  C   UNL     1       1.677   8.734  17.643  0.00  0.00    +0.000 C 
ATOM      5  C   UNL     1       2.616   7.540  17.860  0.00  0.00    +0.000 C 
ENDROOT
BRANCH   1   6
ATOM      6  C   UNL     1       1.725   5.753  19.308  0.00  0.00    +0.000 C 
BRANCH   6   7
ATOM      7  C   UNL     1       2.599   4.628  18.720  0.00  0.00    +0.000 A 
ATOM      8  C   UNL     1       3.656   4.059  19.455  0.00  0.00    +0.000 A 
ATOM      9  C   UNL     1       4.373   2.976  18.942  0.00  0.00    +0.000 A 
ATOM     10  C   UNL     1       4.054   2.463  17.687  0.00  0.00    +0.000 A 
ATOM     11  C   UNL     1       3.018   3.027  16.944  0.00  0.00    +0.000 A 
ATOM     12  C   UNL     1       2.295   4.103  17.456  0.00  0.00    +0.000 A 
ENDBRANCH   6   7
BRANCH   6  13
ATOM     13  C   UNL     1       1.286   5.198  20.702  0.00  0.00    +0.000 C 
BRANCH  13  14
ATOM     14  O   UNL     1       0.524   3.987  20.612  0.00  0.00    +0.000 OA
ATOM     15  H   UNL     1       0.228   3.784  21.516  0.00  0.00    +0.000 HD
ENDBRANCH  13  14
ENDBRANCH   6  13
ENDBRANCH   1   6
BRANCH   2  16
ATOM     16  C   UNL     1       1.118   8.162  21.320  0.00  0.00    +0.000 C 
BRANCH  16  17
ATOM     17  C   UNL     1       1.413   9.306  22.303  0.00  0.00    +0.000 C 
BRANCH  17  18
ATOM     18  C   UNL     1       0.294  10.326  22.230  0.00  0.00    +0.000 A 
ATOM     19  C   UNL     1       0.333  11.402  21.331  0.00  0.00    +0.000 A 
ATOM     20  C   UNL     1      -0.642  12.402  21.385  0.00  0.00    +0.000 A 
ATOM     21  C   UNL     1      -1.667  12.330  22.327  0.00  0.00    +0.000 A 
ATOM     22  C   UNL     1      -1.729  11.252  23.205  0.00  0.00    +0.000 A 
ATOM     23  C   UNL     1      -0.760  10.253  23.151  0.00  0.00    +0.000 A 
ENDBRANCH  17  18
ENDBRANCH  16  17
ENDBRANCH   2  16
BRANCH   5  24
ATOM     24  C   UNL     1       4.083   7.869  17.508  0.00  0.00    +0.000 C 
BRANCH  24  25
ATOM     25  C   UNL     1       5.120   6.881  18.059  0.00  0.00    +0.000 C 
BRANCH  25  26
ATOM     26  C   UNL     1       5.657   5.926  17.022  0.00  0.00    +0.000 A 
ATOM     27  C   UNL     1       5.096   5.879  15.739  0.00  0.00    +0.000 A 
ATOM     28  C   UNL     1       5.631   5.035  14.765  0.00  0.00    +0.000 A 
ATOM     29  C   UNL     1       6.727   4.228  15.067  0.00  0.00    +0.000 A 
ATOM     30  C   UNL     1       7.290   4.266  16.340  0.00  0.00    +0.000 A 
ATOM     31  C   UNL     1       6.759   5.112  17.313  0.00  0.00    +0.000 A 
ENDBRANCH  25  26
ENDBRANCH  24  25
ENDBRANCH   5  24
TORSDOF 10
ENDMDL
MODEL 6
REMARK VINA RESULT:      -7.5      4.579      8.098
REMARK  Name = 
REMARK  10 active torsions:
REMARK  status: ('A' for Active; 'I' for Inactive)
REMARK    1  A    between atoms: O_1  and  C_2
REMARK    2  A    between atoms: C_2  and  C_3
REMARK    3  A    between atoms: C_3  and  C_4
REMARK    4  A    between atoms: C_3  and  N_10
REMARK    5  A    between atoms: C_11  and  C_12
REMARK    6  A    between atoms: C_12  and  C_13
REMARK    7  A    between atoms: C_13  and  C_14
REMARK    8  A    between atoms: C_22  and  C_23
REMARK    9  A    between atoms: C_23  and  C_24
REMARK   10  A    between atoms: C_24  and  C_25
REMARK                            x       y       z     vdW  Elec       q    Type
REMARK                         _______ _______ _______ _____ _____    ______ ____
ROOT
ATOM      1  N   UNL     1       0.308   9.444  20.183  0.00  0.00    +0.000 NA
ATOM      2  C   UNL     1       1.162   8.400  19.562  0.00  0.00    +0.000 C 
ATOM      3  C   UNL     1       2.063   9.165  18.594  0.00  0.00    +0.000 C 
ATOM      4  C   UNL     1       1.141  10.198  17.993  0.00  0.00    +0.000 C 
ATOM      5  C   UNL     1       0.062  10.422  19.060  0.00  0.00    +0.000 C 
ENDROOT
BRANCH   1   6
ATOM      6  C   UNL     1       0.822  10.174  21.393  0.00  0.00    +0.000 C 
BRANCH   6   7
ATOM      7  C   UNL     1      -0.167  11.265  21.847  0.00  0.00    +0.000 A 
ATOM      8  C   UNL     1      -1.269  10.961  22.669  0.00  0.00    +0.000 A 
ATOM      9  C   UNL     1      -2.097  11.978  23.149  0.00  0.00    +0.000 A 
ATOM     10  C   UNL     1      -1.845  13.302  22.799  0.00  0.00    +0.000 A 
ATOM     11  C   UNL     1      -0.764  13.614  21.975  0.00  0.00    +0.000 A 
ATOM     12  C   UNL     1       0.069  12.603  21.501  0.00  0.00    +0.000 A 
ENDBRANCH   6   7
BRANCH   6  13
ATOM     13  C   UNL     1       1.074   9.334  22.687  0.00  0.00    +0.000 C 
BRANCH  13  14
ATOM     14  O   UNL     1       2.433   9.386  23.138  0.00  0.00    +0.000 OA
ATOM     15  H   UNL     1       2.439   9.000  24.030  0.00  0.00    +0.000 HD
ENDBRANCH  13  14
ENDBRANCH   6  13
ENDBRANCH   1   6
BRANCH   2  16
ATOM     16  C   UNL     1       1.998   7.391  20.348  0.00  0.00    +0.000 C 
BRANCH  16  17
ATOM     17  C   UNL     1       2.819   6.398  19.511  0.00  0.00    +0.000 C 
BRANCH  17  18
ATOM     18  C   UNL     1       2.051   5.098  19.384  0.00  0.00    +0.000 A 
ATOM     19  C   UNL     1       1.530   4.435  20.505  0.00  0.00    +0.000 A 
ATOM     20  C   UNL     1       0.950   3.171  20.371  0.00  0.00    +0.000 A 
ATOM     21  C   UNL     1       0.877   2.563  19.119  0.00  0.00    +0.000 A 
ATOM     22  C   UNL     1       1.367   3.225  17.996  0.00  0.00    +0.000 A 
ATOM     23  C   UNL     1       1.942   4.487  18.127  0.00  0.00    +0.000 A 
ENDBRANCH  17  18
ENDBRANCH  16  17
ENDBRANCH   2  16
BRANCH   5  24
ATOM     24  C   UNL     1      -1.368  10.324  18.484  0.00  0.00    +0.000 C 
BRANCH  24  25
ATOM     25  C   UNL     1      -2.041  11.670  18.185  0.00  0.00    +0.000 C 
BRANCH  25  26
ATOM     26  C   UNL     1      -3.467  11.754  18.668  0.00  0.00    +0.000 A 
ATOM     27  C   UNL     1      -3.777  12.421  19.861  0.00  0.00    +0.000 A 
ATOM     28  C   UNL     1      -5.103  12.546  20.277  0.00  0.00    +0.000 A 
ATOM     29  C   UNL     1      -6.130  12.002  19.506  0.00  0.00    +0.000 A 
ATOM     30  C   UNL     1      -5.832  11.334  18.320  0.00  0.00    +0.000 A 
ATOM     31  C   UNL     1      -4.508  11.212  17.902  0.00  0.00    +0.000 A 
ENDBRANCH  25  26
ENDBRANCH  24  25
ENDBRANCH   5  24
TORSDOF 10
ENDMDL
MODEL 7
REMARK VINA RESULT:      -7.5      1.978      8.119
REMARK  Name = 
REMARK  10 active torsions:
REMARK  status: ('A' for Active; 'I' for Inactive)
REMARK    1  A    between atoms: O_1  and  C_2
REMARK    2  A    between atoms: C_2  and  C_3
REMARK    3  A    between atoms: C_3  and  C_4
REMARK    4  A    between atoms: C_3  and  N_10
REMARK    5  A    between atoms: C_11  and  C_12
REMARK    6  A    between atoms: C_12  and  C_13
REMARK    7  A    between atoms: C_13  and  C_14
REMARK    8  A    between atoms: C_22  and  C_23
REMARK    9  A    between atoms: C_23  and  C_24
REMARK   10  A    between atoms: C_24  and  C_25
REMARK                            x       y       z     vdW  Elec       q    Type
REMARK                         _______ _______ _______ _____ _____    ______ ____
ROOT
ATOM      1  N   UNL     1       3.071   6.194  19.392  0.00  0.00    +0.000 NA
ATOM      2  C   UNL     1       2.671   7.616  19.248  0.00  0.00    +0.000 C 
ATOM      3  C   UNL     1       2.570   7.836  17.739  0.00  0.00    +0.000 C 
ATOM      4  C   UNL     1       3.741   7.060  17.188  0.00  0.00    +0.000 C 
ATOM      5  C   UNL     1       4.001   5.961  18.227  0.00  0.00    +0.000 C 
ENDROOT
BRANCH   1   6
ATOM      6  C   UNL     1       2.000   5.139  19.410  0.00  0.00    +0.000 C 
BRANCH   6   7
ATOM      7  C   UNL     1       2.555   3.774  18.960  0.00  0.00    +0.000 A 
ATOM      8  C   UNL     1       2.209   3.214  17.715  0.00  0.00    +0.000 A 
ATOM      9  C   UNL     1       2.799   2.024  17.285  0.00  0.00    +0.000 A 
ATOM     10  C   UNL     1       3.722   1.372  18.099  0.00  0.00    +0.000 A 
ATOM     11  C   UNL     1       4.063   1.909  19.339  0.00  0.00    +0.000 A 
ATOM     12  C   UNL     1       3.483   3.102  19.768  0.00  0.00    +0.000 A 
ENDBRANCH   6   7
BRANCH   6  13
ATOM     13  C   UNL     1       1.314   4.832  20.781  0.00  0.00    +0.000 C 
BRANCH  13  14
ATOM     14  O   UNL     1       2.214   4.914  21.893  0.00  0.00    +0.000 OA
ATOM     15  H   UNL     1       2.898   5.558  21.642  0.00  0.00    +0.000 HD
ENDBRANCH  13  14
ENDBRANCH   6  13
ENDBRANCH   1   6
BRANCH   2  16
ATOM     16  C   UNL     1       1.460   8.245  19.936  0.00  0.00    +0.000 C 
BRANCH  16  17
ATOM     17  C   UNL     1       1.568   8.426  21.458  0.00  0.00    +0.000 C 
BRANCH  17  18
ATOM     18  C   UNL     1       0.724   9.611  21.881  0.00  0.00    +0.000 A 
ATOM     19  C   UNL     1      -0.230   9.511  22.905  0.00  0.00    +0.000 A 
ATOM     20  C   UNL     1      -1.089  10.580  23.176  0.00  0.00    +0.000 A 
ATOM     21  C   UNL     1      -0.997  11.757  22.435  0.00  0.00    +0.000 A 
ATOM     22  C   UNL     1      -0.036  11.875  21.435  0.00  0.00    +0.000 A 
ATOM     23  C   UNL     1       0.824  10.813  21.166  0.00  0.00    +0.000 A 
ENDBRANCH  17  18
ENDBRANCH  16  17
ENDBRANCH   2  16
BRANCH   5  24
ATOM     24  C   UNL     1       5.485   5.888  18.651  0.00  0.00    +0.000 C 
BRANCH  24  25
ATOM     25  C   UNL     1       6.248   4.662  18.132  0.00  0.00    +0.000 C 
BRANCH  25  26
ATOM     26  C   UNL     1       6.325   4.590  16.627  0.00  0.00    +0.000 A 
ATOM     27  C   UNL     1       7.303   5.309  15.928  0.00  0.00    +0.000 A 
ATOM     28  C   UNL     1       7.408   5.196  14.542  0.00  0.00    +0.000 A 
ATOM     29  C   UNL     1       6.533   4.367  13.842  0.00  0.00    +0.000 A 
ATOM     30  C   UNL     1       5.554   3.650  14.527  0.00  0.00    +0.000 A 
ATOM     31  C   UNL     1       5.451   3.759  15.913  0.00  0.00    +0.000 A 
ENDBRANCH  25  26
ENDBRANCH  24  25
ENDBRANCH   5  24
TORSDOF 10
ENDMDL
MODEL 8
REMARK VINA RESULT:      -7.5      1.003      1.653
REMARK  Name = 
REMARK  10 active torsions:
REMARK  status: ('A' for Active; 'I' for Inactive)
REMARK    1  A    between atoms: O_1  and  C_2
REMARK    2  A    between atoms: C_2  and  C_3
REMARK    3  A    between atoms: C_3  and  C_4
REMARK    4  A    between atoms: C_3  and  N_10
REMARK    5  A    between atoms: C_11  and  C_12
REMARK    6  A    between atoms: C_12  and  C_13
REMARK    7  A    between atoms: C_13  and  C_14
REMARK    8  A    between atoms: C_22  and  C_23
REMARK    9  A    between atoms: C_23  and  C_24
REMARK   10  A    between atoms: C_24  and  C_25
REMARK                            x       y       z     vdW  Elec       q    Type
REMARK                         _______ _______ _______ _____ _____    ______ ____
ROOT
ATOM      1  N   UNL     1       4.290   4.478  17.939  0.00  0.00    +0.000 NA
ATOM      2  C   UNL     1       5.522   4.886  17.218  0.00  0.00    +0.000 C 
ATOM      3  C   UNL     1       6.480   5.335  18.320  0.00  0.00    +0.000 C 
ATOM      4  C   UNL     1       5.588   6.077  19.286  0.00  0.00    +0.000 C 
ATOM      5  C   UNL     1       4.199   5.460  19.081  0.00  0.00    +0.000 C 
ENDROOT
BRANCH   1   6
ATOM      6  C   UNL     1       4.190   3.072  18.462  0.00  0.00    +0.000 C 
BRANCH   6   7
ATOM      7  C   UNL     1       3.075   2.950  19.520  0.00  0.00    +0.000 A 
ATOM      8  C   UNL     1       3.373   2.740  20.880  0.00  0.00    +0.000 A 
ATOM      9  C   UNL     1       2.354   2.729  21.835  0.00  0.00    +0.000 A 
ATOM     10  C   UNL     1       1.031   2.909  21.441  0.00  0.00    +0.000 A 
ATOM     11  C   UNL     1       0.722   3.104  20.095  0.00  0.00    +0.000 A 
ATOM     12  C   UNL     1       1.736   3.124  19.140  0.00  0.00    +0.000 A 
ENDBRANCH   6   7
BRANCH   6  13
ATOM     13  C   UNL     1       3.858   1.943  17.434  0.00  0.00    +0.000 C 
BRANCH  13  14
ATOM     14  O   UNL     1       4.075   0.625  17.954  0.00  0.00    +0.000 OA
ATOM     15  H   UNL     1       4.573   0.738  18.781  0.00  0.00    +0.000 HD
ENDBRANCH  13  14
ENDBRANCH   6  13
ENDBRANCH   1   6
BRANCH   2  16
ATOM     16  C   UNL     1       6.271   4.002  16.222  0.00  0.00    +0.000 C 
BRANCH  16  17
ATOM     17  C   UNL     1       7.007   4.736  15.090  0.00  0.00    +0.000 C 
BRANCH  17  18
ATOM     18  C   UNL     1       6.464   4.266  13.755  0.00  0.00    +0.000 A 
ATOM     19  C   UNL     1       5.127   3.870  13.599  0.00  0.00    +0.000 A 
ATOM     20  C   UNL     1       4.693   3.310  12.395  0.00  0.00    +0.000 A 
ATOM     21  C   UNL     1       5.585   3.151  11.335  0.00  0.00    +0.000 A 
ATOM     22  C   UNL     1       6.907   3.566  11.471  0.00  0.00    +0.000 A 
ATOM     23  C   UNL     1       7.340   4.128  12.670  0.00  0.00    +0.000 A 
ENDBRANCH  17  18
ENDBRANCH  16  17
ENDBRANCH   2  16
BRANCH   5  24
ATOM     24  C   UNL     1       3.103   6.527  18.867  0.00  0.00    +0.000 C 
BRANCH  24  25
ATOM     25  C   UNL     1       2.140   6.714  20.046  0.00  0.00    +0.000 C 
BRANCH  25  26
ATOM     26  C   UNL     1       1.592   8.115  20.164  0.00  0.00    +0.000 A 
ATOM     27  C   UNL     1       1.227   8.634  21.413  0.00  0.00    +0.000 A 
ATOM     28  C   UNL     1       0.774   9.949  21.526  0.00  0.00    +0.000 A 
ATOM     29  C   UNL     1       0.678  10.754  20.392  0.00  0.00    +0.000 A 
ATOM     30  C   UNL     1       1.036  10.246  19.145  0.00  0.00    +0.000 A 
ATOM     31  C   UNL     1       1.493   8.934  19.031  0.00  0.00    +0.000 A 
ENDBRANCH  25  26
ENDBRANCH  24  25
ENDBRANCH   5  24
TORSDOF 10
ENDMDL
MODEL 9
REMARK VINA RESULT:      -7.4      1.435      2.412
REMARK  Name = 
REMARK  10 active torsions:
REMARK  status: ('A' for Active; 'I' for Inactive)
REMARK    1  A    between atoms: O_1  and  C_2
REMARK    2  A    between atoms: C_2  and  C_3
REMARK    3  A    between atoms: C_3  and  C_4
REMARK    4  A    between atoms: C_3  and  N_10
REMARK    5  A    between atoms: C_11  and  C_12
REMARK    6  A    between atoms: C_12  and  C_13
REMARK    7  A    between atoms: C_13  and  C_14
REMARK    8  A    between atoms: C_22  and  C_23
REMARK    9  A    between atoms: C_23  and  C_24
REMARK   10  A    between atoms: C_24  and  C_25
REMARK                            x       y       z     vdW  Elec       q    Type
REMARK                         _______ _______ _______ _____ _____    ______ ____
ROOT
ATOM      1  N   UNL     1       3.592   5.728  17.833  0.00  0.00    +0.000 NA
ATOM      2  C   UNL     1       4.469   5.518  16.653  0.00  0.00    +0.000 C 
ATOM      3  C   UNL     1       5.546   6.595  16.779  0.00  0.00    +0.000 C 
ATOM      4  C   UNL     1       4.784   7.804  17.263  0.00  0.00    +0.000 C 
ATOM      5  C   UNL     1       3.572   7.227  18.004  0.00  0.00    +0.000 C 
ENDROOT
BRANCH   1   6
ATOM      6  C   UNL     1       3.959   5.069  19.133  0.00  0.00    +0.000 C 
BRANCH   6   7
ATOM      7  C   UNL     1       2.859   4.093  19.593  0.00  0.00    +0.000 A 
ATOM      8  C   UNL     1       2.546   3.927  20.956  0.00  0.00    +0.000 A 
ATOM      9  C   UNL     1       1.482   3.112  21.345  0.00  0.00    +0.000 A 
ATOM     10  C   UNL     1       0.733   2.441  20.382  0.00  0.00    +0.000 A 
ATOM     11  C   UNL     1       1.041   2.586  19.030  0.00  0.00    +0.000 A 
ATOM     12  C   UNL     1       2.097   3.406  18.637  0.00  0.00    +0.000 A 
ENDBRANCH   6   7
BRANCH   6  13
ATOM     13  C   UNL     1       5.262   4.206  19.161  0.00  0.00    +0.000 C 
BRANCH  13  14
ATOM     14  O   UNL     1       5.024   2.835  19.502  0.00  0.00    +0.000 OA
ATOM     15  H   UNL     1       4.813   2.824  20.451  0.00  0.00    +0.000 HD
ENDBRANCH  13  14
ENDBRANCH   6  13
ENDBRANCH   1   6
BRANCH   2  16
ATOM     16  C   UNL     1       5.122   4.185  16.290  0.00  0.00    +0.000 C 
BRANCH  16  17
ATOM     17  C   UNL     1       6.606   4.245  15.898  0.00  0.00    +0.000 C 
BRANCH  17  18
ATOM     18  C   UNL     1       6.720   4.346  14.391  0.00  0.00    +0.000 A 
ATOM     19  C   UNL     1       6.030   3.472  13.537  0.00  0.00    +0.000 A 
ATOM     20  C   UNL     1       6.265   3.499  12.160  0.00  0.00    +0.000 A 
ATOM     21  C   UNL     1       7.180   4.403  11.623  0.00  0.00    +0.000 A 
ATOM     22  C   UNL     1       7.850   5.292  12.459  0.00  0.00    +0.000 A 
ATOM     23  C   UNL     1       7.615   5.269  13.831  0.00  0.00    +0.000 A 
ENDBRANCH  17  18
ENDBRANCH  16  17
ENDBRANCH   2  16
BRANCH   5  24
ATOM     24  C   UNL     1       2.241   7.863  17.546  0.00  0.00    +0.000 C 
BRANCH  24  25
ATOM     25  C   UNL     1       2.037   9.322  17.976  0.00  0.00    +0.000 C 
BRANCH  25  26
ATOM     26  C   UNL     1       1.172   9.477  19.202  0.00  0.00    +0.000 A 
ATOM     27  C   UNL     1       1.399   8.688  20.338  0.00  0.00    +0.000 A 
ATOM     28  C   UNL     1       0.635   8.872  21.490  0.00  0.00    +0.000 A 
ATOM     29  C   UNL     1      -0.365   9.843  21.516  0.00  0.00    +0.000 A 
ATOM     30  C   UNL     1      -0.601  10.631  20.391  0.00  0.00    +0.000 A 
ATOM     31  C   UNL     1       0.165  10.450  19.240  0.00  0.00    +0.000 A 
ENDBRANCH  25  26
ENDBRANCH  24  25
ENDBRANCH   5  24
TORSDOF 10
ENDMDL
