MODEL 1
REMARK VINA RESULT:      -8.5      0.000      0.000
REMARK  Name = 
REMARK  3 active torsions:
REMARK  status: ('A' for Active; 'I' for Inactive)
REMARK    1  A    between atoms: C_8  and  C_9
REMARK    2  A    between atoms: C_9  and  N_10
REMARK    3  A    between atoms: N_10  and  C_13
REMARK                            x       y       z     vdW  Elec       q    Type
REMARK                         _______ _______ _______ _____ _____    ______ ____
ROOT
ATOM      1  N   UNL     1       8.637   5.934  13.116  0.00  0.00    +0.000 N 
ATOM      2  C   UNL     1       7.715   5.341  13.952  0.00  0.00    +0.000 A 
ATOM      3  N   UNL     1       6.733   4.622  13.411  0.00  0.00    +0.000 NA
ATOM      4  C   UNL     1       5.836   4.082  14.258  0.00  0.00    +0.000 A 
ATOM      5  N   UNL     1       4.827   3.340  13.634  0.00  0.00    +0.000 N 
ATOM      6  C   UNL     1       5.909   4.223  15.653  0.00  0.00    +0.000 A 
ATOM      7  C   UNL     1       5.004   3.691  16.623  0.00  0.00    +0.000 A 
ATOM      8  C   UNL     1       5.178   3.927  18.005  0.00  0.00    +0.000 A 
ATOM      9  C   UNL     1       6.256   4.725  18.394  0.00  0.00    +0.000 A 
ATOM     10  C   UNL     1       7.154   5.214  17.443  0.00  0.00    +0.000 A 
ATOM     11  C   UNL     1       6.995   4.986  16.088  0.00  0.00    +0.000 A 
ATOM     12  N   UNL     1       7.891   5.525  15.258  0.00  0.00    +0.000 NA
ATOM     13  H   UNL     1       8.696   5.446  12.235  0.00  0.00    +0.000 HD
ATOM     14  H   UNL     1       9.497   6.099  13.619  0.00  0.00    +0.000 HD
ATOM     15  H   UNL     1       4.968   3.448  12.629  0.00  0.00    +0.000 HD
ATOM     16  H   UNL     1       3.905   3.656  13.907  0.00  0.00    +0.000 HD
ENDROOT
BRANCH   8  17
ATOM     17  C   UNL     1       4.199   3.384  19.025  0.00  0.00    +0.000 C 
BRANCH  17  18
ATOM     18  N   UNL     1       2.770   3.669  18.779  0.00  0.00    +0.000 N 
ATOM     19  C   UNL     1       1.901   2.645  18.425  0.00  0.00    +0.000 C 
ATOM     20  O   UNL     1       0.683   2.698  18.317  0.00  0.00    +0.000 OA
BRANCH  18  21
ATOM     21  C   UNL     1       2.279   4.939  19.194  0.00  0.00    +0.000 A 
ATOM     22  C   UNL     1       1.805   5.163  20.491  0.00  0.00    +0.000 A 
ATOM     23  C   UNL     1       1.465   6.458  20.903  0.00  0.00    +0.000 A 
ATOM     24  C   UNL     1       1.563   7.543  20.014  0.00  0.00    +0.000 A 
ATOM     25  C   UNL     1       1.274   8.864  20.395  0.00  0.00    +0.000 A 
ATOM     26  C   UNL     1       1.389   9.904  19.469  0.00  0.00    +0.000 A 
ATOM     27 CL   UNL     1       1.065  11.524  19.954  0.00  0.00    +0.000 Cl
ATOM     28  C   UNL     1       1.770   9.651  18.155  0.00  0.00    +0.000 A 
ATOM     29  C   UNL     1       2.059   8.348  17.763  0.00  0.00    +0.000 A 
ATOM     30  C   UNL     1       1.978   7.300  18.687  0.00  0.00    +0.000 A 
ATOM     31  C   UNL     1       2.328   6.008  18.298  0.00  0.00    +0.000 A 
ENDBRANCH  18  21
ENDBRANCH  17  18
ENDBRANCH   8  17
TORSDOF 3
ENDMDL
MODEL 2
REMARK VINA RESULT:      -8.1      1.416      2.699
REMARK  Name = 
REMARK  3 active torsions:
REMARK  status: ('A' for Active; 'I' for Inactive)
REMARK    1  A    between atoms: C_8  and  C_9
REMARK    2  A    between atoms: C_9  and  N_10
REMARK    3  A    between atoms: N_10  and  C_13
REMARK                            x       y       z     vdW  Elec       q    Type
REMARK                         _______ _______ _______ _____ _____    ______ ____
ROOT
ATOM      1  N   UNL     1       7.308   4.286  12.670  0.00  0.00    +0.000 N 
ATOM      2  C   UNL     1       6.894   4.606  13.946  0.00  0.00    +0.000 A 
ATOM      3  N   UNL     1       7.545   5.561  14.607  0.00  0.00    +0.000 NA
ATOM      4  C   UNL     1       7.131   5.825  15.861  0.00  0.00    +0.000 A 
ATOM      5  N   UNL     1       7.852   6.835  16.506  0.00  0.00    +0.000 N 
ATOM      6  C   UNL     1       6.052   5.166  16.472  0.00  0.00    +0.000 A 
ATOM      7  C   UNL     1       5.548   5.378  17.793  0.00  0.00    +0.000 A 
ATOM      8  C   UNL     1       4.464   4.627  18.299  0.00  0.00    +0.000 A 
ATOM      9  C   UNL     1       3.913   3.647  17.471  0.00  0.00    +0.000 A 
ATOM     10  C   UNL     1       4.389   3.469  16.172  0.00  0.00    +0.000 A 
ATOM     11  C   UNL     1       5.449   4.200  15.664  0.00  0.00    +0.000 A 
ATOM     12  N   UNL     1       5.850   3.931  14.420  0.00  0.00    +0.000 NA
ATOM     13  H   UNL     1       7.790   5.061  12.239  0.00  0.00    +0.000 HD
ATOM     14  H   UNL     1       6.544   3.867  12.159  0.00  0.00    +0.000 HD
ATOM     15  H   UNL     1       8.610   7.099  15.876  0.00  0.00    +0.000 HD
ATOM     16  H   UNL     1       8.215   6.526  17.399  0.00  0.00    +0.000 HD
ENDROOT
BRANCH   8  17
ATOM     17  C   UNL     1       3.953   4.837  19.710  0.00  0.00    +0.000 C 
BRANCH  17  18
ATOM     18  N   UNL     1       2.521   5.176  19.845  0.00  0.00    +0.000 N 
ATOM     19  C   UNL     1       1.611   4.219  20.274  0.00  0.00    +0.000 C 
ATOM     20  O   UNL     1       0.431   4.379  20.557  0.00  0.00    +0.000 OA
BRANCH  18  21
ATOM     21  C   UNL     1       2.173   6.555  19.805  0.00  0.00    +0.000 A 
ATOM     22  C   UNL     1       2.279   7.312  18.633  0.00  0.00    +0.000 A 
ATOM     23  C   UNL     1       1.792   8.625  18.596  0.00  0.00    +0.000 A 
ATOM     24  C   UNL     1       1.221   9.212  19.740  0.00  0.00    +0.000 A 
ATOM     25  C   UNL     1       0.681  10.509  19.737  0.00  0.00    +0.000 A 
ATOM     26  C   UNL     1       0.127  11.041  20.904  0.00  0.00    +0.000 A 
ATOM     27 CL   UNL     1      -0.563  12.618  20.883  0.00  0.00    +0.000 Cl
ATOM     28  C   UNL     1       0.114  10.309  22.087  0.00  0.00    +0.000 A 
ATOM     29  C   UNL     1       0.646   9.024  22.105  0.00  0.00    +0.000 A 
ATOM     30  C   UNL     1       1.178   8.465  20.937  0.00  0.00    +0.000 A 
ATOM     31  C   UNL     1       1.652   7.155  20.952  0.00  0.00    +0.000 A 
ENDBRANCH  18  21
ENDBRANCH  17  18
ENDBRANCH   8  17
TORSDOF 3
ENDMDL
MODEL 3
REMARK VINA RESULT:      -8.0      3.776      7.093
REMARK  Name = 
REMARK  3 active torsions:
REMARK  status: ('A' for Active; 'I' for Inactive)
REMARK    1  A    between atoms: C_8  and  C_9
REMARK    2  A    between atoms: C_9  and  N_10
REMARK    3  A    between atoms: N_10  and  C_13
REMARK                            x       y       z     vdW  Elec       q    Type
REMARK                         _______ _______ _______ _____ _____    ______ ____
ROOT
ATOM      1  N   UNL     1       1.251  11.838  18.795  0.00  0.00    +0.000 N 
ATOM      2  C   UNL     1       1.352  10.542  19.256  0.00  0.00    +0.000 A 
ATOM      3  N   UNL     1       1.104  10.302  20.542  0.00  0.00    +0.000 NA
ATOM      4  C   UNL     1       1.241   9.029  20.961  0.00  0.00    +0.000 A 
ATOM      5  N   UNL     1       0.970   8.837  22.320  0.00  0.00    +0.000 N 
ATOM      6  C   UNL     1       1.600   7.971  20.111  0.00  0.00    +0.000 A 
ATOM      7  C   UNL     1       1.771   6.598  20.468  0.00  0.00    +0.000 A 
ATOM      8  C   UNL     1       2.161   5.630  19.516  0.00  0.00    +0.000 A 
ATOM      9  C   UNL     1       2.400   6.065  18.211  0.00  0.00    +0.000 A 
ATOM     10  C   UNL     1       2.199   7.402  17.864  0.00  0.00    +0.000 A 
ATOM     11  C   UNL     1       1.815   8.358  18.786  0.00  0.00    +0.000 A 
ATOM     12  N   UNL     1       1.681   9.616  18.359  0.00  0.00    +0.000 NA
ATOM     13  H   UNL     1       0.632  12.384  19.376  0.00  0.00    +0.000 HD
ATOM     14  H   UNL     1       1.077  11.833  17.800  0.00  0.00    +0.000 HD
ATOM     15  H   UNL     1       0.797   9.762  22.715  0.00  0.00    +0.000 HD
ATOM     16  H   UNL     1       1.737   8.378  22.794  0.00  0.00    +0.000 HD
ENDROOT
BRANCH   8  17
ATOM     17  C   UNL     1       2.368   4.181  19.907  0.00  0.00    +0.000 C 
BRANCH  17  18
ATOM     18  N   UNL     1       3.752   3.669  19.817  0.00  0.00    +0.000 N 
ATOM     19  C   UNL     1       4.119   2.517  20.500  0.00  0.00    +0.000 C 
ATOM     20  O   UNL     1       5.176   1.903  20.422  0.00  0.00    +0.000 OA
BRANCH  18  21
ATOM     21  C   UNL     1       4.584   4.219  18.803  0.00  0.00    +0.000 A 
ATOM     22  C   UNL     1       5.624   5.107  19.098  0.00  0.00    +0.000 A 
ATOM     23  C   UNL     1       6.511   5.514  18.093  0.00  0.00    +0.000 A 
ATOM     24  C   UNL     1       6.351   5.065  16.770  0.00  0.00    +0.000 A 
ATOM     25  C   UNL     1       7.239   5.412  15.738  0.00  0.00    +0.000 A 
ATOM     26  C   UNL     1       7.030   4.936  14.441  0.00  0.00    +0.000 A 
ATOM     27 CL   UNL     1       8.143   5.340  13.191  0.00  0.00    +0.000 Cl
ATOM     28  C   UNL     1       5.936   4.130  14.144  0.00  0.00    +0.000 A 
ATOM     29  C   UNL     1       5.048   3.779  15.155  0.00  0.00    +0.000 A 
ATOM     30  C   UNL     1       5.259   4.223  16.465  0.00  0.00    +0.000 A 
ATOM     31  C   UNL     1       4.397   3.814  17.480  0.00  0.00    +0.000 A 
ENDBRANCH  18  21
ENDBRANCH  17  18
ENDBRANCH   8  17
TORSDOF 3
ENDMDL
MODEL 4
REMARK VINA RESULT:      -8.0      2.206      3.101
REMARK  Name = 
REMARK  3 active torsions:
REMARK  status: ('A' for Active; 'I' for Inactive)
REMARK    1  A    between atoms: C_8  and  C_9
REMARK    2  A    between atoms: C_9  and  N_10
REMARK    3  A    between atoms: N_10  and  C_13
REMARK                            x       y       z     vdW  Elec       q    Type
REMARK                         _______ _______ _______ _____ _____    ______ ____
ROOT
ATOM      1  N   UNL     1       8.839   9.522  17.951  0.00  0.00    +0.000 N 
ATOM      2  C   UNL     1       8.151   8.330  18.029  0.00  0.00    +0.000 A 
ATOM      3  N   UNL     1       8.485   7.462  18.982  0.00  0.00    +0.000 NA
ATOM      4  C   UNL     1       7.810   6.297  19.009  0.00  0.00    +0.000 A 
ATOM      5  N   UNL     1       8.205   5.424  20.028  0.00  0.00    +0.000 N 
ATOM      6  C   UNL     1       6.778   5.982  18.110  0.00  0.00    +0.000 A 
ATOM      7  C   UNL     1       6.014   4.774  18.063  0.00  0.00    +0.000 A 
ATOM      8  C   UNL     1       5.013   4.572  17.087  0.00  0.00    +0.000 A 
ATOM      9  C   UNL     1       4.809   5.585  16.148  0.00  0.00    +0.000 A 
ATOM     10  C   UNL     1       5.537   6.774  16.221  0.00  0.00    +0.000 A 
ATOM     11  C   UNL     1       6.518   6.985  17.174  0.00  0.00    +0.000 A 
ATOM     12  N   UNL     1       7.180   8.144  17.139  0.00  0.00    +0.000 NA
ATOM     13  H   UNL     1       9.240   9.770  18.843  0.00  0.00    +0.000 HD
ATOM     14  H   UNL     1       8.270  10.214  17.485  0.00  0.00    +0.000 HD
ATOM     15  H   UNL     1       9.002   5.861  20.491  0.00  0.00    +0.000 HD
ATOM     16  H   UNL     1       8.451   4.511  19.667  0.00  0.00    +0.000 HD
ENDROOT
BRANCH   8  17
ATOM     17  C   UNL     1       4.226   3.278  17.024  0.00  0.00    +0.000 C 
BRANCH  17  18
ATOM     18  N   UNL     1       3.189   3.091  18.060  0.00  0.00    +0.000 N 
ATOM     19  C   UNL     1       2.926   1.825  18.568  0.00  0.00    +0.000 C 
ATOM     20  O   UNL     1       2.199   1.530  19.508  0.00  0.00    +0.000 OA
BRANCH  18  21
ATOM     21  C   UNL     1       2.695   4.258  18.705  0.00  0.00    +0.000 A 
ATOM     22  C   UNL     1       2.504   4.316  20.090  0.00  0.00    +0.000 A 
ATOM     23  C   UNL     1       2.153   5.526  20.704  0.00  0.00    +0.000 A 
ATOM     24  C   UNL     1       1.956   6.689  19.937  0.00  0.00    +0.000 A 
ATOM     25  C   UNL     1       1.646   7.932  20.513  0.00  0.00    +0.000 A 
ATOM     26  C   UNL     1       1.460   9.055  19.702  0.00  0.00    +0.000 A 
ATOM     27 CL   UNL     1       1.114  10.581  20.418  0.00  0.00    +0.000 Cl
ATOM     28  C   UNL     1       1.560   8.960  18.318  0.00  0.00    +0.000 A 
ATOM     29  C   UNL     1       1.866   7.735  17.734  0.00  0.00    +0.000 A 
ATOM     30  C   UNL     1       2.084   6.608  18.534  0.00  0.00    +0.000 A 
ATOM     31  C   UNL     1       2.449   5.401  17.941  0.00  0.00    +0.000 A 
ENDBRANCH  18  21
ENDBRANCH  17  18
ENDBRANCH   8  17
TORSDOF 3
ENDMDL
MODEL 5
REMARK VINA RESULT:      -7.9      0.947      1.709
REMARK  Name = 
REMARK  3 active torsions:
REMARK  status: ('A' for Active; 'I' for Inactive)
REMARK    1  A    between atoms: C_8  and  C_9
REMARK    2  A    between atoms: C_9  and  N_10
REMARK    3  A    between atoms: N_10  and  C_13
REMARK                            x       y       z     vdW  Elec       q    Type
REMARK                         _______ _______ _______ _____ _____    ______ ____
ROOT
ATOM      1  N   UNL     1       8.449   5.825  13.149  0.00  0.00    +0.000 N 
ATOM      2  C   UNL     1       7.570   5.385  14.115  0.00  0.00    +0.000 A 
ATOM      3  N   UNL     1       6.563   4.595  13.748  0.00  0.00    +0.000 NA
ATOM      4  C   UNL     1       5.708   4.209  14.714  0.00  0.00    +0.000 A 
ATOM      5  N   UNL     1       4.670   3.383  14.271  0.00  0.00    +0.000 N 
ATOM      6  C   UNL     1       5.849   4.578  16.062  0.00  0.00    +0.000 A 
ATOM      7  C   UNL     1       4.991   4.221  17.148  0.00  0.00    +0.000 A 
ATOM      8  C   UNL     1       5.232   4.681  18.462  0.00  0.00    +0.000 A 
ATOM      9  C   UNL     1       6.328   5.523  18.662  0.00  0.00    +0.000 A 
ATOM     10  C   UNL     1       7.178   5.841  17.602  0.00  0.00    +0.000 A 
ATOM     11  C   UNL     1       6.954   5.394  16.312  0.00  0.00    +0.000 A 
ATOM     12  N   UNL     1       7.809   5.781  15.362  0.00  0.00    +0.000 NA
ATOM     13  H   UNL     1       8.466   5.197  12.359  0.00  0.00    +0.000 HD
ATOM     14  H   UNL     1       9.334   6.064  13.576  0.00  0.00    +0.000 HD
ATOM     15  H   UNL     1       4.762   3.322  13.256  0.00  0.00    +0.000 HD
ATOM     16  H   UNL     1       3.762   3.747  14.531  0.00  0.00    +0.000 HD
ENDROOT
BRANCH   8  17
ATOM     17  C   UNL     1       4.304   4.322  19.604  0.00  0.00    +0.000 C 
BRANCH  17  18
ATOM     18  N   UNL     1       2.875   4.649  19.415  0.00  0.00    +0.000 N 
ATOM     19  C   UNL     1       1.902   3.675  19.597  0.00  0.00    +0.000 C 
ATOM     20  O   UNL     1       0.686   3.820  19.605  0.00  0.00    +0.000 OA
BRANCH  18  21
ATOM     21  C   UNL     1       2.528   6.026  19.331  0.00  0.00    +0.000 A 
ATOM     22  C   UNL     1       2.558   6.726  18.120  0.00  0.00    +0.000 A 
ATOM     23  C   UNL     1       2.073   8.039  18.052  0.00  0.00    +0.000 A 
ATOM     24  C   UNL     1       1.581   8.683  19.202  0.00  0.00    +0.000 A 
ATOM     25  C   UNL     1       1.047   9.981  19.173  0.00  0.00    +0.000 A 
ATOM     26  C   UNL     1       0.573  10.572  20.347  0.00  0.00    +0.000 A 
ATOM     27 CL   UNL     1      -0.111  12.151  20.297  0.00  0.00    +0.000 Cl
ATOM     28  C   UNL     1       0.638   9.898  21.562  0.00  0.00    +0.000 A 
ATOM     29  C   UNL     1       1.166   8.612  21.606  0.00  0.00    +0.000 A 
ATOM     30  C   UNL     1       1.617   7.995  20.434  0.00  0.00    +0.000 A 
ATOM     31  C   UNL     1       2.087   6.684  20.481  0.00  0.00    +0.000 A 
ENDBRANCH  18  21
ENDBRANCH  17  18
ENDBRANCH   8  17
TORSDOF 3
ENDMDL
MODEL 6
REMARK VINA RESULT:      -7.9      3.901      6.176
REMARK  Name = 
REMARK  3 active torsions:
REMARK  status: ('A' for Active; 'I' for Inactive)
REMARK    1  A    between atoms: C_8  and  C_9
REMARK    2  A    between atoms: C_9  and  N_10
REMARK    3  A    between atoms: N_10  and  C_13
REMARK                            x       y       z     vdW  Elec       q    Type
REMARK                         _______ _______ _______ _____ _____    ______ ____
ROOT
ATOM      1  N   UNL     1       4.057   1.090  18.316  0.00  0.00    +0.000 N 
ATOM      2  C   UNL     1       3.581   2.239  18.912  0.00  0.00    +0.000 A 
ATOM      3  N   UNL     1       3.117   2.166  20.158  0.00  0.00    +0.000 NA
ATOM      4  C   UNL     1       2.633   3.302  20.695  0.00  0.00    +0.000 A 
ATOM      5  N   UNL     1       2.158   3.165  22.004  0.00  0.00    +0.000 N 
ATOM      6  C   UNL     1       2.624   4.533  20.019  0.00  0.00    +0.000 A 
ATOM      7  C   UNL     1       2.129   5.782  20.508  0.00  0.00    +0.000 A 
ATOM      8  C   UNL     1       2.157   6.949  19.713  0.00  0.00    +0.000 A 
ATOM      9  C   UNL     1       2.662   6.837  18.416  0.00  0.00    +0.000 A 
ATOM     10  C   UNL     1       3.172   5.621  17.958  0.00  0.00    +0.000 A 
ATOM     11  C   UNL     1       3.154   4.472  18.728  0.00  0.00    +0.000 A 
ATOM     12  N   UNL     1       3.636   3.353  18.186  0.00  0.00    +0.000 NA
ATOM     13  H   UNL     1       4.362   0.421  19.008  0.00  0.00    +0.000 HD
ATOM     14  H   UNL     1       4.707   1.332  17.580  0.00  0.00    +0.000 HD
ATOM     15  H   UNL     1       2.221   2.172  22.232  0.00  0.00    +0.000 HD
ATOM     16  H   UNL     1       1.207   3.498  22.095  0.00  0.00    +0.000 HD
ENDROOT
BRANCH   8  17
ATOM     17  C   UNL     1       1.605   8.263  20.226  0.00  0.00    +0.000 C 
BRANCH  17  18
ATOM     18  N   UNL     1       1.419   9.333  19.224  0.00  0.00    +0.000 N 
ATOM     19  C   UNL     1       2.389   9.564  18.257  0.00  0.00    +0.000 C 
ATOM     20  O   UNL     1       2.323  10.315  17.292  0.00  0.00    +0.000 OA
BRANCH  18  21
ATOM     21  C   UNL     1       0.119   9.900  19.111  0.00  0.00    +0.000 A 
ATOM     22  C   UNL     1      -0.394  10.776  20.074  0.00  0.00    +0.000 A 
ATOM     23  C   UNL     1      -1.616  11.425  19.857  0.00  0.00    +0.000 A 
ATOM     24  C   UNL     1      -2.359  11.183  18.687  0.00  0.00    +0.000 A 
ATOM     25  C   UNL     1      -3.568  11.842  18.407  0.00  0.00    +0.000 A 
ATOM     26  C   UNL     1      -4.265  11.562  17.229  0.00  0.00    +0.000 A 
ATOM     27 CL   UNL     1      -5.728  12.399  16.879  0.00  0.00    +0.000 Cl
ATOM     28  C   UNL     1      -3.789  10.617  16.326  0.00  0.00    +0.000 A 
ATOM     29  C   UNL     1      -2.594   9.956  16.590  0.00  0.00    +0.000 A 
ATOM     30  C   UNL     1      -1.869  10.247  17.751  0.00  0.00    +0.000 A 
ATOM     31  C   UNL     1      -0.643   9.623  17.975  0.00  0.00    +0.000 A 
ENDBRANCH  18  21
ENDBRANCH  17  18
ENDBRANCH   8  17
TORSDOF 3
ENDMDL
MODEL 7
REMARK VINA RESULT:      -7.9      3.969      7.379
REMARK  Name = 
REMARK  3 active torsions:
REMARK  status: ('A' for Active; 'I' for Inactive)
REMARK    1  A    between atoms: C_8  and  C_9
REMARK    2  A    between atoms: C_9  and  N_10
REMARK    3  A    between atoms: N_10  and  C_13
REMARK                            x       y       z     vdW  Elec       q    Type
REMARK                         _______ _______ _______ _____ _____    ______ ____
ROOT
ATOM      1  N   UNL     1       0.079  12.599  18.228  0.00  0.00    +0.000 N 
ATOM      2  C   UNL     1       0.319  11.448  18.949  0.00  0.00    +0.000 A 
ATOM      3  N   UNL     1      -0.156  11.363  20.190  0.00  0.00    +0.000 NA
ATOM      4  C   UNL     1       0.124  10.236  20.873  0.00  0.00    +0.000 A 
ATOM      5  N   UNL     1      -0.399  10.203  22.170  0.00  0.00    +0.000 N 
ATOM      6  C   UNL     1       0.855   9.167  20.332  0.00  0.00    +0.000 A 
ATOM      7  C   UNL     1       1.200   7.941  20.981  0.00  0.00    +0.000 A 
ATOM      8  C   UNL     1       1.966   6.949  20.329  0.00  0.00    +0.000 A 
ATOM      9  C   UNL     1       2.400   7.217  19.030  0.00  0.00    +0.000 A 
ATOM     10  C   UNL     1       2.031   8.402  18.391  0.00  0.00    +0.000 A 
ATOM     11  C   UNL     1       1.279   9.380  19.018  0.00  0.00    +0.000 A 
ATOM     12  N   UNL     1       1.007  10.491  18.331  0.00  0.00    +0.000 NA
ATOM     13  H   UNL     1      -0.744  13.075  18.565  0.00  0.00    +0.000 HD
ATOM     14  H   UNL     1       0.133  12.399  17.239  0.00  0.00    +0.000 HD
ATOM     15  H   UNL     1      -0.826  11.115  22.334  0.00  0.00    +0.000 HD
ATOM     16  H   UNL     1       0.318  10.010  22.859  0.00  0.00    +0.000 HD
ENDROOT
BRANCH   8  17
ATOM     17  C   UNL     1       2.352   5.665  21.033  0.00  0.00    +0.000 C 
BRANCH  17  18
ATOM     18  N   UNL     1       2.148   4.414  20.274  0.00  0.00    +0.000 N 
ATOM     19  C   UNL     1       1.067   3.589  20.558  0.00  0.00    +0.000 C 
ATOM     20  O   UNL     1       0.694   2.600  19.940  0.00  0.00    +0.000 OA
BRANCH  18  21
ATOM     21  C   UNL     1       2.909   4.243  19.084  0.00  0.00    +0.000 A 
ATOM     22  C   UNL     1       2.312   3.909  17.864  0.00  0.00    +0.000 A 
ATOM     23  C   UNL     1       3.074   3.890  16.688  0.00  0.00    +0.000 A 
ATOM     24  C   UNL     1       4.451   4.174  16.721  0.00  0.00    +0.000 A 
ATOM     25  C   UNL     1       5.246   4.209  15.562  0.00  0.00    +0.000 A 
ATOM     26  C   UNL     1       6.610   4.497  15.654  0.00  0.00    +0.000 A 
ATOM     27 CL   UNL     1       7.568   4.571  14.226  0.00  0.00    +0.000 Cl
ATOM     28  C   UNL     1       7.208   4.734  16.887  0.00  0.00    +0.000 A 
ATOM     29  C   UNL     1       6.434   4.701  18.043  0.00  0.00    +0.000 A 
ATOM     30  C   UNL     1       5.061   4.444  17.965  0.00  0.00    +0.000 A 
ATOM     31  C   UNL     1       4.285   4.475  19.122  0.00  0.00    +0.000 A 
ENDBRANCH  18  21
ENDBRANCH  17  18
ENDBRANCH   8  17
TORSDOF 3
ENDMDL
MODEL 8
REMARK VINA RESULT:      -7.9      1.209      2.052
REMARK  Name = 
REMARK  3 active torsions:
REMARK  status: ('A' for Active; 'I' for Inactive)
REMARK    1  A    between atoms: C_8  and  C_9
REMARK    2  A    between atoms: C_9  and  N_10
REMARK    3  A    between atoms: N_10  and  C_13
REMARK                            x       y       z     vdW  Elec       q    Type
REMARK                         _______ _______ _______ _____ _____    ______ ____
ROOT
ATOM      1  N   UNL     1       7.428   4.531  12.790  0.00  0.00    +0.000 N 
ATOM      2  C   UNL     1       6.989   4.764  14.077  0.00  0.00    +0.000 A 
ATOM      3  N   UNL     1       7.554   5.748  14.774  0.00  0.00    +0.000 NA
ATOM      4  C   UNL     1       7.120   5.926  16.037  0.00  0.00    +0.000 A 
ATOM      5  N   UNL     1       7.749   6.971  16.721  0.00  0.00    +0.000 N 
ATOM      6  C   UNL     1       6.105   5.151  16.621  0.00  0.00    +0.000 A 
ATOM      7  C   UNL     1       5.587   5.267  17.948  0.00  0.00    +0.000 A 
ATOM      8  C   UNL     1       4.575   4.404  18.424  0.00  0.00    +0.000 A 
ATOM      9  C   UNL     1       4.112   3.410  17.559  0.00  0.00    +0.000 A 
ATOM     10  C   UNL     1       4.600   3.325  16.254  0.00  0.00    +0.000 A 
ATOM     11  C   UNL     1       5.589   4.166  15.775  0.00  0.00    +0.000 A 
ATOM     12  N   UNL     1       6.010   3.981  14.523  0.00  0.00    +0.000 NA
ATOM     13  H   UNL     1       7.837   5.362  12.389  0.00  0.00    +0.000 HD
ATOM     14  H   UNL     1       6.703   4.065  12.262  0.00  0.00    +0.000 HD
ATOM     15  H   UNL     1       8.479   7.325  16.102  0.00  0.00    +0.000 HD
ATOM     16  H   UNL     1       8.140   6.662  17.602  0.00  0.00    +0.000 HD
ENDROOT
BRANCH   8  17
ATOM     17  C   UNL     1       4.050   4.513  19.841  0.00  0.00    +0.000 C 
BRANCH  17  18
ATOM     18  N   UNL     1       2.588   4.670  19.989  0.00  0.00    +0.000 N 
ATOM     19  C   UNL     1       1.802   3.591  20.372  0.00  0.00    +0.000 C 
ATOM     20  O   UNL     1       0.612   3.594  20.660  0.00  0.00    +0.000 OA
BRANCH  18  21
ATOM     21  C   UNL     1       2.075   5.996  20.008  0.00  0.00    +0.000 A 
ATOM     22  C   UNL     1       1.402   6.515  21.120  0.00  0.00    +0.000 A 
ATOM     23  C   UNL     1       1.038   7.867  21.157  0.00  0.00    +0.000 A 
ATOM     24  C   UNL     1       1.314   8.714  20.068  0.00  0.00    +0.000 A 
ATOM     25  C   UNL     1       1.006  10.085  20.077  0.00  0.00    +0.000 A 
ATOM     26  C   UNL     1       1.302  10.879  18.967  0.00  0.00    +0.000 A 
ATOM     27 CL   UNL     1       0.952  12.564  19.000  0.00  0.00    +0.000 Cl
ATOM     28  C   UNL     1       1.885  10.328  17.831  0.00  0.00    +0.000 A 
ATOM     29  C   UNL     1       2.194   8.972  17.806  0.00  0.00    +0.000 A 
ATOM     30  C   UNL     1       1.932   8.169  18.922  0.00  0.00    +0.000 A 
ATOM     31  C   UNL     1       2.302   6.826  18.909  0.00  0.00    +0.000 A 
ENDBRANCH  18  21
ENDBRANCH  17  18
ENDBRANCH   8  17
TORSDOF 3
ENDMDL
MODEL 9
REMARK VINA RESULT:      -7.9      4.558      6.936
REMARK  Name = 
REMARK  3 active torsions:
REMARK  status: ('A' for Active; 'I' for Inactive)
REMARK    1  A    between atoms: C_8  and  C_9
REMARK    2  A    between atoms: C_9  and  N_10
REMARK    3  A    between atoms: N_10  and  C_13
REMARK                            x       y       z     vdW  Elec       q    Type
REMARK                         _______ _______ _______ _____ _____    ______ ____
ROOT
ATOM      1  N   UNL     1       4.897   3.703  17.328  0.00  0.00    +0.000 N 
ATOM      2  C   UNL     1       4.159   4.587  18.086  0.00  0.00    +0.000 A 
ATOM      3  N   UNL     1       3.763   4.210  19.300  0.00  0.00    +0.000 NA
ATOM      4  C   UNL     1       3.020   5.089  19.998  0.00  0.00    +0.000 A 
ATOM      5  N   UNL     1       2.631   4.639  21.265  0.00  0.00    +0.000 N 
ATOM      6  C   UNL     1       2.677   6.364  19.518  0.00  0.00    +0.000 A 
ATOM      7  C   UNL     1       1.893   7.355  20.186  0.00  0.00    +0.000 A 
ATOM      8  C   UNL     1       1.599   8.596  19.579  0.00  0.00    +0.000 A 
ATOM      9  C   UNL     1       2.080   8.815  18.286  0.00  0.00    +0.000 A 
ATOM     10  C   UNL     1       2.872   7.855  17.654  0.00  0.00    +0.000 A 
ATOM     11  C   UNL     1       3.169   6.637  18.240  0.00  0.00    +0.000 A 
ATOM     12  N   UNL     1       3.907   5.774  17.539  0.00  0.00    +0.000 NA
ATOM     13  H   UNL     1       5.381   3.038  17.912  0.00  0.00    +0.000 HD
ATOM     14  H   UNL     1       5.442   4.211  16.645  0.00  0.00    +0.000 HD
ATOM     15  H   UNL     1       2.952   3.673  21.339  0.00  0.00    +0.000 HD
ATOM     16  H   UNL     1       1.629   4.699  21.393  0.00  0.00    +0.000 HD
ENDROOT
BRANCH   8  17
ATOM     17  C   UNL     1       0.743   9.632  20.280  0.00  0.00    +0.000 C 
BRANCH  17  18
ATOM     18  N   UNL     1       0.477  10.878  19.532  0.00  0.00    +0.000 N 
ATOM     19  C   UNL     1       1.526  11.707  19.153  0.00  0.00    +0.000 C 
ATOM     20  O   UNL     1       1.480  12.691  18.428  0.00  0.00    +0.000 OA
BRANCH  18  21
ATOM     21  C   UNL     1      -0.823  11.039  18.977  0.00  0.00    +0.000 A 
ATOM     22  C   UNL     1      -1.227  10.360  17.823  0.00  0.00    +0.000 A 
ATOM     23  C   UNL     1      -2.557  10.433  17.390  0.00  0.00    +0.000 A 
ATOM     24  C   UNL     1      -3.496  11.214  18.088  0.00  0.00    +0.000 A 
ATOM     25  C   UNL     1      -4.849  11.284  17.716  0.00  0.00    +0.000 A 
ATOM     26  C   UNL     1      -5.739  12.076  18.445  0.00  0.00    +0.000 A 
ATOM     27 CL   UNL     1      -7.401  12.129  18.003  0.00  0.00    +0.000 Cl
ATOM     28  C   UNL     1      -5.301  12.822  19.535  0.00  0.00    +0.000 A 
ATOM     29  C   UNL     1      -3.964  12.764  19.915  0.00  0.00    +0.000 A 
ATOM     30  C   UNL     1      -3.067  11.951  19.212  0.00  0.00    +0.000 A 
ATOM     31  C   UNL     1      -1.744  11.853  19.639  0.00  0.00    +0.000 A 
ENDBRANCH  18  21
ENDBRANCH  17  18
ENDBRANCH   8  17
TORSDOF 3
ENDMDL
