MODEL 1
REMARK VINA RESULT:      -9.3      0.000      0.000
REMARK  Name = 
REMARK  5 active torsions:
REMARK  status: ('A' for Active; 'I' for Inactive)
REMARK    1  A    between atoms: C_1  and  C_2
REMARK    2  A    between atoms: C_4  and  N_5
REMARK    3  A    between atoms: C_10  and  N_11
REMARK    4  A    between atoms: C_15  and  C_16
REMARK    5  A    between atoms: C_24  and  C_25
REMARK                            x       y       z     vdW  Elec       q    Type
REMARK                         _______ _______ _______ _____ _____    ______ ____
ROOT
ATOM      1  N   UNL     1       1.258  10.193  17.948  0.00  0.00    +0.000 N 
ATOM      2  C   UNL     1       1.799   9.031  18.489  0.00  0.00    +0.000 A 
ATOM      3  N   UNL     1       1.491   8.696  19.747  0.00  0.00    +0.000 NA
ATOM      4  C   UNL     1       1.963   7.536  20.230  0.00  0.00    +0.000 A 
ATOM      5  C   UNL     1       2.716   6.670  19.485  0.00  0.00    +0.000 A 
ATOM      6  C   UNL     1       3.035   7.108  18.218  0.00  0.00    +0.000 A 
ATOM      7  N   UNL     1       2.601   8.290  17.718  0.00  0.00    +0.000 NA
ATOM      8  H   UNL     1       1.965  10.776  17.519  0.00  0.00    +0.000 HD
ENDROOT
BRANCH   1  12
ATOM      9  C   UNL     1      -1.515  13.607  20.263  0.00  0.00    +0.000 C 
ATOM     10  C   UNL     1      -1.377  12.404  19.377  0.00  0.00    +0.000 A 
ATOM     11  C   UNL     1      -0.113  11.882  19.056  0.00  0.00    +0.000 A 
ATOM     12  C   UNL     1       0.008  10.751  18.243  0.00  0.00    +0.000 A 
ATOM     13  C   UNL     1      -1.162  10.179  17.723  0.00  0.00    +0.000 A 
ATOM     14  C   UNL     1      -2.434  10.672  18.030  0.00  0.00    +0.000 A 
ATOM     15  C   UNL     1      -2.530  11.790  18.864  0.00  0.00    +0.000 A 
BRANCH  14  16
ATOM     16  C   UNL     1      -3.661  10.001  17.472  0.00  0.00    +0.000 C 
ATOM     17  F   UNL     1      -4.808  10.723  17.635  0.00  0.00    +0.000 F 
ATOM     18  F   UNL     1      -3.565   9.765  16.133  0.00  0.00    +0.000 F 
ATOM     19  F   UNL     1      -3.903   8.792  18.048  0.00  0.00    +0.000 F 
ENDBRANCH  14  16
ENDBRANCH   1  12
BRANCH   6  20
ATOM     20  N   UNL     1       3.907   6.321  17.415  0.00  0.00    +0.000 N 
ATOM     21  C   UNL     1       4.782   6.813  16.465  0.00  0.00    +0.000 A 
ATOM     22  C   UNL     1       5.501   5.735  16.019  0.00  0.00    +0.000 A 
ATOM     23  N   UNL     1       5.062   4.589  16.614  0.00  0.00    +0.000 NA
ATOM     24  C   UNL     1       4.062   4.931  17.418  0.00  0.00    +0.000 A 
BRANCH  24  25
ATOM     25  C   UNL     1       3.218   3.947  18.122  0.00  0.00    +0.000 A 
ATOM     26  C   UNL     1       3.758   3.217  19.190  0.00  0.00    +0.000 A 
ATOM     27  C   UNL     1       2.980   2.293  19.895  0.00  0.00    +0.000 A 
ATOM     28  C   UNL     1       1.646   2.093  19.548  0.00  0.00    +0.000 A 
ATOM     29  C   UNL     1       1.101   2.779  18.470  0.00  0.00    +0.000 A 
ATOM     30  C   UNL     1       1.896   3.666  17.739  0.00  0.00    +0.000 A 
ENDBRANCH  24  25
ENDBRANCH   6  20
TORSDOF 4
ENDMDL
MODEL 2
REMARK VINA RESULT:      -9.2      1.621      3.058
REMARK  Name = 
REMARK  5 active torsions:
REMARK  status: ('A' for Active; 'I' for Inactive)
REMARK    1  A    between atoms: C_1  and  C_2
REMARK    2  A    between atoms: C_4  and  N_5
REMARK    3  A    between atoms: C_10  and  N_11
REMARK    4  A    between atoms: C_15  and  C_16
REMARK    5  A    between atoms: C_24  and  C_25
REMARK                            x       y       z     vdW  Elec       q    Type
REMARK                         _______ _______ _______ _____ _____    ______ ____
ROOT
ATOM      1  N   UNL     1       1.826   9.203  18.032  0.00  0.00    +0.000 N 
ATOM      2  C   UNL     1       1.991   8.062  18.810  0.00  0.00    +0.000 A 
ATOM      3  N   UNL     1       1.698   8.118  20.114  0.00  0.00    +0.000 NA
ATOM      4  C   UNL     1       1.795   6.990  20.837  0.00  0.00    +0.000 A 
ATOM      5  C   UNL     1       2.148   5.785  20.293  0.00  0.00    +0.000 A 
ATOM      6  C   UNL     1       2.486   5.819  18.958  0.00  0.00    +0.000 A 
ATOM      7  N   UNL     1       2.431   6.949  18.214  0.00  0.00    +0.000 NA
ATOM      8  H   UNL     1       2.648   9.406  17.477  0.00  0.00    +0.000 HD
ENDROOT
BRANCH   1  12
ATOM      9  C   UNL     1       0.571  13.774  19.525  0.00  0.00    +0.000 C 
ATOM     10  C   UNL     1       0.218  12.436  18.945  0.00  0.00    +0.000 A 
ATOM     11  C   UNL     1       1.202  11.456  18.734  0.00  0.00    +0.000 A 
ATOM     12  C   UNL     1       0.865  10.206  18.209  0.00  0.00    +0.000 A 
ATOM     13  C   UNL     1      -0.474   9.971  17.858  0.00  0.00    +0.000 A 
ATOM     14  C   UNL     1      -1.475  10.925  18.063  0.00  0.00    +0.000 A 
ATOM     15  C   UNL     1      -1.117  12.159  18.612  0.00  0.00    +0.000 A 
BRANCH  14  16
ATOM     16  C   UNL     1      -2.904  10.612  17.701  0.00  0.00    +0.000 C 
ATOM     17  F   UNL     1      -3.208  10.857  16.394  0.00  0.00    +0.000 F 
ATOM     18  F   UNL     1      -3.222   9.304  17.912  0.00  0.00    +0.000 F 
ATOM     19  F   UNL     1      -3.797  11.337  18.429  0.00  0.00    +0.000 F 
ENDBRANCH  14  16
ENDBRANCH   1  12
BRANCH   6  20
ATOM     20  N   UNL     1       2.973   4.633  18.339  0.00  0.00    +0.000 N 
ATOM     21  C   UNL     1       2.236   3.483  18.124  0.00  0.00    +0.000 A 
ATOM     22  C   UNL     1       3.049   2.644  17.406  0.00  0.00    +0.000 A 
ATOM     23  N   UNL     1       4.276   3.208  17.223  0.00  0.00    +0.000 NA
ATOM     24  C   UNL     1       4.252   4.388  17.832  0.00  0.00    +0.000 A 
BRANCH  24  25
ATOM     25  C   UNL     1       5.448   5.238  17.995  0.00  0.00    +0.000 A 
ATOM     26  C   UNL     1       6.297   5.027  19.089  0.00  0.00    +0.000 A 
ATOM     27  C   UNL     1       7.451   5.798  19.262  0.00  0.00    +0.000 A 
ATOM     28  C   UNL     1       7.778   6.785  18.334  0.00  0.00    +0.000 A 
ATOM     29  C   UNL     1       6.930   7.036  17.263  0.00  0.00    +0.000 A 
ATOM     30  C   UNL     1       5.754   6.295  17.121  0.00  0.00    +0.000 A 
ENDBRANCH  24  25
ENDBRANCH   6  20
TORSDOF 4
ENDMDL
MODEL 3
REMARK VINA RESULT:      -8.8      2.870      4.169
REMARK  Name = 
REMARK  5 active torsions:
REMARK  status: ('A' for Active; 'I' for Inactive)
REMARK    1  A    between atoms: C_1  and  C_2
REMARK    2  A    between atoms: C_4  and  N_5
REMARK    3  A    between atoms: C_10  and  N_11
REMARK    4  A    between atoms: C_15  and  C_16
REMARK    5  A    between atoms: C_24  and  C_25
REMARK                            x       y       z     vdW  Elec       q    Type
REMARK                         _______ _______ _______ _____ _____    ______ ____
ROOT
ATOM      1  N   UNL     1       1.945   9.286  18.110  0.00  0.00    +0.000 N 
ATOM      2  C   UNL     1       2.034   8.124  18.871  0.00  0.00    +0.000 A 
ATOM      3  N   UNL     1       1.699   8.169  20.165  0.00  0.00    +0.000 NA
ATOM      4  C   UNL     1       1.723   7.025  20.868  0.00  0.00    +0.000 A 
ATOM      5  C   UNL     1       2.042   5.816  20.313  0.00  0.00    +0.000 A 
ATOM      6  C   UNL     1       2.425   5.859  18.990  0.00  0.00    +0.000 A 
ATOM      7  N   UNL     1       2.445   7.005  18.267  0.00  0.00    +0.000 NA
ATOM      8  H   UNL     1       2.793   9.462  17.587  0.00  0.00    +0.000 HD
ENDROOT
BRANCH   1  12
ATOM      9  C   UNL     1      -2.737  10.955  18.113  0.00  0.00    +0.000 C 
ATOM     10  C   UNL     1      -1.261  11.176  18.271  0.00  0.00    +0.000 A 
ATOM     11  C   UNL     1      -0.352  10.112  18.143  0.00  0.00    +0.000 A 
ATOM     12  C   UNL     1       1.023  10.326  18.276  0.00  0.00    +0.000 A 
ATOM     13  C   UNL     1       1.467  11.622  18.581  0.00  0.00    +0.000 A 
ATOM     14  C   UNL     1       0.586  12.701  18.708  0.00  0.00    +0.000 A 
ATOM     15  C   UNL     1      -0.782  12.466  18.547  0.00  0.00    +0.000 A 
BRANCH  14  16
ATOM     16  C   UNL     1       1.116  14.080  19.003  0.00  0.00    +0.000 C 
ATOM     17  F   UNL     1       2.274  14.379  18.348  0.00  0.00    +0.000 F 
ATOM     18  F   UNL     1       0.236  15.062  18.660  0.00  0.00    +0.000 F 
ATOM     19  F   UNL     1       1.384  14.263  20.325  0.00  0.00    +0.000 F 
ENDBRANCH  14  16
ENDBRANCH   1  12
BRANCH   6  20
ATOM     20  N   UNL     1       2.881   4.665  18.364  0.00  0.00    +0.000 N 
ATOM     21  C   UNL     1       2.117   3.532  18.151  0.00  0.00    +0.000 A 
ATOM     22  C   UNL     1       2.905   2.678  17.425  0.00  0.00    +0.000 A 
ATOM     23  N   UNL     1       4.144   3.215  17.234  0.00  0.00    +0.000 NA
ATOM     24  C   UNL     1       4.151   4.393  17.847  0.00  0.00    +0.000 A 
BRANCH  24  25
ATOM     25  C   UNL     1       5.366   5.215  18.003  0.00  0.00    +0.000 A 
ATOM     26  C   UNL     1       6.184   5.028  19.126  0.00  0.00    +0.000 A 
ATOM     27  C   UNL     1       7.355   5.773  19.294  0.00  0.00    +0.000 A 
ATOM     28  C   UNL     1       7.732   6.710  18.335  0.00  0.00    +0.000 A 
ATOM     29  C   UNL     1       6.916   6.938  17.233  0.00  0.00    +0.000 A 
ATOM     30  C   UNL     1       5.724   6.226  17.094  0.00  0.00    +0.000 A 
ENDBRANCH  24  25
ENDBRANCH   6  20
TORSDOF 4
ENDMDL
MODEL 4
REMARK VINA RESULT:      -8.8      4.085      8.936
REMARK  Name = 
REMARK  5 active torsions:
REMARK  status: ('A' for Active; 'I' for Inactive)
REMARK    1  A    between atoms: C_1  and  C_2
REMARK    2  A    between atoms: C_4  and  N_5
REMARK    3  A    between atoms: C_10  and  N_11
REMARK    4  A    between atoms: C_15  and  C_16
REMARK    5  A    between atoms: C_24  and  C_25
REMARK                            x       y       z     vdW  Elec       q    Type
REMARK                         _______ _______ _______ _____ _____    ______ ____
ROOT
ATOM      1  N   UNL     1       3.062   6.656  19.640  0.00  0.00    +0.000 N 
ATOM      2  C   UNL     1       2.260   7.766  19.395  0.00  0.00    +0.000 A 
ATOM      3  N   UNL     1       2.115   8.198  18.138  0.00  0.00    +0.000 NA
ATOM      4  C   UNL     1       1.283   9.226  17.910  0.00  0.00    +0.000 A 
ATOM      5  C   UNL     1       0.554   9.828  18.899  0.00  0.00    +0.000 A 
ATOM      6  C   UNL     1       0.797   9.363  20.174  0.00  0.00    +0.000 A 
ATOM      7  N   UNL     1       1.658   8.351  20.435  0.00  0.00    +0.000 NA
ATOM      8  H   UNL     1       3.731   6.827  20.379  0.00  0.00    +0.000 HD
ENDROOT
BRANCH   1  12
ATOM      9  C   UNL     1       1.898   2.049  18.180  0.00  0.00    +0.000 C 
ATOM     10  C   UNL     1       2.719   3.300  18.060  0.00  0.00    +0.000 A 
ATOM     11  C   UNL     1       2.480   4.405  18.894  0.00  0.00    +0.000 A 
ATOM     12  C   UNL     1       3.259   5.561  18.789  0.00  0.00    +0.000 A 
ATOM     13  C   UNL     1       4.254   5.605  17.800  0.00  0.00    +0.000 A 
ATOM     14  C   UNL     1       4.519   4.518  16.961  0.00  0.00    +0.000 A 
ATOM     15  C   UNL     1       3.743   3.364  17.102  0.00  0.00    +0.000 A 
BRANCH  14  16
ATOM     16  C   UNL     1       5.621   4.602  15.938  0.00  0.00    +0.000 C 
ATOM     17  F   UNL     1       5.322   5.393  14.868  0.00  0.00    +0.000 F 
ATOM     18  F   UNL     1       6.776   5.107  16.456  0.00  0.00    +0.000 F 
ATOM     19  F   UNL     1       5.944   3.387  15.418  0.00  0.00    +0.000 F 
ENDBRANCH  14  16
ENDBRANCH   1  12
BRANCH   6  20
ATOM     20  N   UNL     1       0.166  10.008  21.275  0.00  0.00    +0.000 N 
ATOM     21  C   UNL     1      -0.483   9.366  22.313  0.00  0.00    +0.000 A 
ATOM     22  C   UNL     1      -0.835  10.348  23.202  0.00  0.00    +0.000 A 
ATOM     23  N   UNL     1      -0.481  11.575  22.724  0.00  0.00    +0.000 NA
ATOM     24  C   UNL     1       0.076  11.378  21.535  0.00  0.00    +0.000 A 
BRANCH  24  25
ATOM     25  C   UNL     1       0.449  12.479  20.626  0.00  0.00    +0.000 A 
ATOM     26  C   UNL     1       1.780  12.917  20.587  0.00  0.00    +0.000 A 
ATOM     27  C   UNL     1       2.174  13.942  19.721  0.00  0.00    +0.000 A 
ATOM     28  C   UNL     1       1.244  14.537  18.872  0.00  0.00    +0.000 A 
ATOM     29  C   UNL     1      -0.088  14.144  18.922  0.00  0.00    +0.000 A 
ATOM     30  C   UNL     1      -0.486  13.154  19.822  0.00  0.00    +0.000 A 
ENDBRANCH  24  25
ENDBRANCH   6  20
TORSDOF 4
ENDMDL
MODEL 5
REMARK VINA RESULT:      -8.8      2.887      4.245
REMARK  Name = 
REMARK  5 active torsions:
REMARK  status: ('A' for Active; 'I' for Inactive)
REMARK    1  A    between atoms: C_1  and  C_2
REMARK    2  A    between atoms: C_4  and  N_5
REMARK    3  A    between atoms: C_10  and  N_11
REMARK    4  A    between atoms: C_15  and  C_16
REMARK    5  A    between atoms: C_24  and  C_25
REMARK                            x       y       z     vdW  Elec       q    Type
REMARK                         _______ _______ _______ _____ _____    ______ ____
ROOT
ATOM      1  N   UNL     1       1.962   9.242  18.102  0.00  0.00    +0.000 N 
ATOM      2  C   UNL     1       2.044   8.085  18.870  0.00  0.00    +0.000 A 
ATOM      3  N   UNL     1       1.730   8.145  20.169  0.00  0.00    +0.000 NA
ATOM      4  C   UNL     1       1.746   7.006  20.881  0.00  0.00    +0.000 A 
ATOM      5  C   UNL     1       2.036   5.788  20.330  0.00  0.00    +0.000 A 
ATOM      6  C   UNL     1       2.400   5.815  19.001  0.00  0.00    +0.000 A 
ATOM      7  N   UNL     1       2.426   6.955  18.269  0.00  0.00    +0.000 NA
ATOM      8  H   UNL     1       2.804   9.401  17.565  0.00  0.00    +0.000 HD
ENDROOT
BRANCH   1  12
ATOM      9  C   UNL     1      -2.690  10.994  18.144  0.00  0.00    +0.000 C 
ATOM     10  C   UNL     1      -1.209  11.189  18.288  0.00  0.00    +0.000 A 
ATOM     11  C   UNL     1      -0.320  10.109  18.155  0.00  0.00    +0.000 A 
ATOM     12  C   UNL     1       1.059  10.299  18.274  0.00  0.00    +0.000 A 
ATOM     13  C   UNL     1       1.529  11.588  18.573  0.00  0.00    +0.000 A 
ATOM     14  C   UNL     1       0.669  12.682  18.706  0.00  0.00    +0.000 A 
ATOM     15  C   UNL     1      -0.705  12.470  18.557  0.00  0.00    +0.000 A 
BRANCH  14  16
ATOM     16  C   UNL     1       1.225  14.052  18.994  0.00  0.00    +0.000 C 
ATOM     17  F   UNL     1       1.806  14.164  20.223  0.00  0.00    +0.000 F 
ATOM     18  F   UNL     1       2.184  14.425  18.100  0.00  0.00    +0.000 F 
ATOM     19  F   UNL     1       0.272  15.023  18.947  0.00  0.00    +0.000 F 
ENDBRANCH  14  16
ENDBRANCH   1  12
BRANCH   6  20
ATOM     20  N   UNL     1       2.826   4.609  18.377  0.00  0.00    +0.000 N 
ATOM     21  C   UNL     1       2.033   3.497  18.162  0.00  0.00    +0.000 A 
ATOM     22  C   UNL     1       2.801   2.621  17.439  0.00  0.00    +0.000 A 
ATOM     23  N   UNL     1       4.054   3.125  17.252  0.00  0.00    +0.000 NA
ATOM     24  C   UNL     1       4.090   4.303  17.864  0.00  0.00    +0.000 A 
BRANCH  24  25
ATOM     25  C   UNL     1       5.326   5.094  18.023  0.00  0.00    +0.000 A 
ATOM     26  C   UNL     1       5.697   5.999  17.020  0.00  0.00    +0.000 A 
ATOM     27  C   UNL     1       6.849   6.781  17.148  0.00  0.00    +0.000 A 
ATOM     28  C   UNL     1       7.642   6.677  18.289  0.00  0.00    +0.000 A 
ATOM     29  C   UNL     1       7.312   5.759  19.279  0.00  0.00    +0.000 A 
ATOM     30  C   UNL     1       6.187   4.947  19.124  0.00  0.00    +0.000 A 
ENDBRANCH  24  25
ENDBRANCH   6  20
TORSDOF 4
ENDMDL
MODEL 6
REMARK VINA RESULT:      -8.7      1.834      2.568
REMARK  Name = 
REMARK  5 active torsions:
REMARK  status: ('A' for Active; 'I' for Inactive)
REMARK    1  A    between atoms: C_1  and  C_2
REMARK    2  A    between atoms: C_4  and  N_5
REMARK    3  A    between atoms: C_10  and  N_11
REMARK    4  A    between atoms: C_15  and  C_16
REMARK    5  A    between atoms: C_24  and  C_25
REMARK                            x       y       z     vdW  Elec       q    Type
REMARK                         _______ _______ _______ _____ _____    ______ ____
ROOT
ATOM      1  N   UNL     1       1.173  10.164  17.919  0.00  0.00    +0.000 N 
ATOM      2  C   UNL     1       1.743   9.021  18.469  0.00  0.00    +0.000 A 
ATOM      3  N   UNL     1       1.464   8.702  19.737  0.00  0.00    +0.000 NA
ATOM      4  C   UNL     1       1.965   7.558  20.231  0.00  0.00    +0.000 A 
ATOM      5  C   UNL     1       2.719   6.693  19.487  0.00  0.00    +0.000 A 
ATOM      6  C   UNL     1       3.008   7.116  18.207  0.00  0.00    +0.000 A 
ATOM      7  N   UNL     1       2.545   8.281  17.696  0.00  0.00    +0.000 NA
ATOM      8  H   UNL     1       1.861  10.752  17.468  0.00  0.00    +0.000 HD
ENDROOT
BRANCH   1  12
ATOM      9  C   UNL     1      -3.783  10.081  17.547  0.00  0.00    +0.000 C 
ATOM     10  C   UNL     1      -2.512  10.698  18.052  0.00  0.00    +0.000 A 
ATOM     11  C   UNL     1      -1.263  10.118  17.768  0.00  0.00    +0.000 A 
ATOM     12  C   UNL     1      -0.081  10.705  18.227  0.00  0.00    +0.000 A 
ATOM     13  C   UNL     1      -0.177  11.864  19.014  0.00  0.00    +0.000 A 
ATOM     14  C   UNL     1      -1.404  12.467  19.306  0.00  0.00    +0.000 A 
ATOM     15  C   UNL     1      -2.571  11.874  18.815  0.00  0.00    +0.000 A 
BRANCH  14  16
ATOM     16  C   UNL     1      -1.451  13.729  20.126  0.00  0.00    +0.000 C 
ATOM     17  F   UNL     1      -0.693  13.680  21.259  0.00  0.00    +0.000 F 
ATOM     18  F   UNL     1      -1.008  14.818  19.436  0.00  0.00    +0.000 F 
ATOM     19  F   UNL     1      -2.711  14.036  20.540  0.00  0.00    +0.000 F 
ENDBRANCH  14  16
ENDBRANCH   1  12
BRANCH   6  20
ATOM     20  N   UNL     1       3.880   6.330  17.401  0.00  0.00    +0.000 N 
ATOM     21  C   UNL     1       4.753   6.825  16.451  0.00  0.00    +0.000 A 
ATOM     22  C   UNL     1       5.472   5.748  16.002  0.00  0.00    +0.000 A 
ATOM     23  N   UNL     1       5.035   4.600  16.596  0.00  0.00    +0.000 NA
ATOM     24  C   UNL     1       4.036   4.941  17.402  0.00  0.00    +0.000 A 
BRANCH  24  25
ATOM     25  C   UNL     1       3.194   3.955  18.107  0.00  0.00    +0.000 A 
ATOM     26  C   UNL     1       3.743   3.210  19.159  0.00  0.00    +0.000 A 
ATOM     27  C   UNL     1       2.968   2.283  19.864  0.00  0.00    +0.000 A 
ATOM     28  C   UNL     1       1.627   2.097  19.533  0.00  0.00    +0.000 A 
ATOM     29  C   UNL     1       1.074   2.798  18.468  0.00  0.00    +0.000 A 
ATOM     30  C   UNL     1       1.865   3.687  17.738  0.00  0.00    +0.000 A 
ENDBRANCH  24  25
ENDBRANCH   6  20
TORSDOF 4
ENDMDL
MODEL 7
REMARK VINA RESULT:      -8.7      4.098      9.014
REMARK  Name = 
REMARK  5 active torsions:
REMARK  status: ('A' for Active; 'I' for Inactive)
REMARK    1  A    between atoms: C_1  and  C_2
REMARK    2  A    between atoms: C_4  and  N_5
REMARK    3  A    between atoms: C_10  and  N_11
REMARK    4  A    between atoms: C_15  and  C_16
REMARK    5  A    between atoms: C_24  and  C_25
REMARK                            x       y       z     vdW  Elec       q    Type
REMARK                         _______ _______ _______ _____ _____    ______ ____
ROOT
ATOM      1  N   UNL     1       2.869   6.723  19.820  0.00  0.00    +0.000 N 
ATOM      2  C   UNL     1       2.122   7.859  19.527  0.00  0.00    +0.000 A 
ATOM      3  N   UNL     1       2.028   8.264  18.256  0.00  0.00    +0.000 NA
ATOM      4  C   UNL     1       1.246   9.321  17.981  0.00  0.00    +0.000 A 
ATOM      5  C   UNL     1       0.519   9.978  18.936  0.00  0.00    +0.000 A 
ATOM      6  C   UNL     1       0.709   9.536  20.228  0.00  0.00    +0.000 A 
ATOM      7  N   UNL     1       1.519   8.495  20.537  0.00  0.00    +0.000 NA
ATOM      8  H   UNL     1       3.526   6.884  20.572  0.00  0.00    +0.000 HD
ENDROOT
BRANCH   1  12
ATOM      9  C   UNL     1       1.485   2.172  18.377  0.00  0.00    +0.000 C 
ATOM     10  C   UNL     1       2.393   3.363  18.283  0.00  0.00    +0.000 A 
ATOM     11  C   UNL     1       2.182   4.500  19.082  0.00  0.00    +0.000 A 
ATOM     12  C   UNL     1       3.040   5.600  19.001  0.00  0.00    +0.000 A 
ATOM     13  C   UNL     1       4.091   5.556  18.072  0.00  0.00    +0.000 A 
ATOM     14  C   UNL     1       4.329   4.436  17.269  0.00  0.00    +0.000 A 
ATOM     15  C   UNL     1       3.471   3.339  17.386  0.00  0.00    +0.000 A 
BRANCH  14  16
ATOM     16  C   UNL     1       5.491   4.426  16.311  0.00  0.00    +0.000 C 
ATOM     17  F   UNL     1       6.699   4.647  16.905  0.00  0.00    +0.000 F 
ATOM     18  F   UNL     1       5.618   3.237  15.656  0.00  0.00    +0.000 F 
ATOM     19  F   UNL     1       5.378   5.376  15.343  0.00  0.00    +0.000 F 
ENDBRANCH  14  16
ENDBRANCH   1  12
BRANCH   6  20
ATOM     20  N   UNL     1       0.079  10.235  21.296  0.00  0.00    +0.000 N 
ATOM     21  C   UNL     1      -0.628   9.648  22.328  0.00  0.00    +0.000 A 
ATOM     22  C   UNL     1      -0.959  10.665  23.185  0.00  0.00    +0.000 A 
ATOM     23  N   UNL     1      -0.534  11.863  22.691  0.00  0.00    +0.000 NA
ATOM     24  C   UNL     1       0.046  11.614  21.522  0.00  0.00    +0.000 A 
BRANCH  24  25
ATOM     25  C   UNL     1       0.496  12.675  20.601  0.00  0.00    +0.000 A 
ATOM     26  C   UNL     1      -0.445  13.335  19.801  0.00  0.00    +0.000 A 
ATOM     27  C   UNL     1      -0.057  14.362  18.934  0.00  0.00    +0.000 A 
ATOM     28  C   UNL     1       1.279  14.750  18.863  0.00  0.00    +0.000 A 
ATOM     29  C   UNL     1       2.234  14.083  19.620  0.00  0.00    +0.000 A 
ATOM     30  C   UNL     1       1.848  13.027  20.448  0.00  0.00    +0.000 A 
ENDBRANCH  24  25
ENDBRANCH   6  20
TORSDOF 4
ENDMDL
MODEL 8
REMARK VINA RESULT:      -8.7      4.184      8.637
REMARK  Name = 
REMARK  5 active torsions:
REMARK  status: ('A' for Active; 'I' for Inactive)
REMARK    1  A    between atoms: C_1  and  C_2
REMARK    2  A    between atoms: C_4  and  N_5
REMARK    3  A    between atoms: C_10  and  N_11
REMARK    4  A    between atoms: C_15  and  C_16
REMARK    5  A    between atoms: C_24  and  C_25
REMARK                            x       y       z     vdW  Elec       q    Type
REMARK                         _______ _______ _______ _____ _____    ______ ____
ROOT
ATOM      1  N   UNL     1       2.632   7.408  17.857  0.00  0.00    +0.000 N 
ATOM      2  C   UNL     1       2.007   8.200  18.815  0.00  0.00    +0.000 A 
ATOM      3  N   UNL     1       1.682   7.657  19.993  0.00  0.00    +0.000 NA
ATOM      4  C   UNL     1       1.144   8.452  20.933  0.00  0.00    +0.000 A 
ATOM      5  C   UNL     1       0.946   9.793  20.749  0.00  0.00    +0.000 A 
ATOM      6  C   UNL     1       1.256  10.267  19.493  0.00  0.00    +0.000 A 
ATOM      7  N   UNL     1       1.767   9.480  18.516  0.00  0.00    +0.000 NA
ATOM      8  H   UNL     1       2.179   7.476  16.955  0.00  0.00    +0.000 HD
ENDROOT
BRANCH   1  12
ATOM      9  C   UNL     1       3.454   2.685  19.171  0.00  0.00    +0.000 C 
ATOM     10  C   UNL     1       3.946   4.038  18.748  0.00  0.00    +0.000 A 
ATOM     11  C   UNL     1       3.047   5.082  18.473  0.00  0.00    +0.000 A 
ATOM     12  C   UNL     1       3.512   6.345  18.094  0.00  0.00    +0.000 A 
ATOM     13  C   UNL     1       4.896   6.528  17.954  0.00  0.00    +0.000 A 
ATOM     14  C   UNL     1       5.815   5.510  18.227  0.00  0.00    +0.000 A 
ATOM     15  C   UNL     1       5.326   4.263  18.628  0.00  0.00    +0.000 A 
BRANCH  14  16
ATOM     16  C   UNL     1       7.293   5.768  18.094  0.00  0.00    +0.000 C 
ATOM     17  F   UNL     1       7.901   6.112  19.266  0.00  0.00    +0.000 F 
ATOM     18  F   UNL     1       7.974   4.681  17.633  0.00  0.00    +0.000 F 
ATOM     19  F   UNL     1       7.570   6.779  17.226  0.00  0.00    +0.000 F 
ENDBRANCH  14  16
ENDBRANCH   1  12
BRANCH   6  20
ATOM     20  N   UNL     1       0.976  11.627  19.180  0.00  0.00    +0.000 N 
ATOM     21  C   UNL     1       1.808  12.697  19.448  0.00  0.00    +0.000 A 
ATOM     22  C   UNL     1       1.208  13.792  18.882  0.00  0.00    +0.000 A 
ATOM     23  N   UNL     1       0.010  13.448  18.328  0.00  0.00    +0.000 NA
ATOM     24  C   UNL     1      -0.159  12.150  18.553  0.00  0.00    +0.000 A 
BRANCH  24  25
ATOM     25  C   UNL     1      -1.412  11.434  18.245  0.00  0.00    +0.000 A 
ATOM     26  C   UNL     1      -2.618  11.892  18.791  0.00  0.00    +0.000 A 
ATOM     27  C   UNL     1      -3.827  11.251  18.501  0.00  0.00    +0.000 A 
ATOM     28  C   UNL     1      -3.848  10.148  17.650  0.00  0.00    +0.000 A 
ATOM     29  C   UNL     1      -2.658   9.655  17.128  0.00  0.00    +0.000 A 
ATOM     30  C   UNL     1      -1.449  10.270  17.459  0.00  0.00    +0.000 A 
ENDBRANCH  24  25
ENDBRANCH   6  20
TORSDOF 4
ENDMDL
MODEL 9
REMARK VINA RESULT:      -8.7      3.503      8.750
REMARK  Name = 
REMARK  5 active torsions:
REMARK  status: ('A' for Active; 'I' for Inactive)
REMARK    1  A    between atoms: C_1  and  C_2
REMARK    2  A    between atoms: C_4  and  N_5
REMARK    3  A    between atoms: C_10  and  N_11
REMARK    4  A    between atoms: C_15  and  C_16
REMARK    5  A    between atoms: C_24  and  C_25
REMARK                            x       y       z     vdW  Elec       q    Type
REMARK                         _______ _______ _______ _____ _____    ______ ____
ROOT
ATOM      1  N   UNL     1       2.659   7.190  19.979  0.00  0.00    +0.000 N 
ATOM      2  C   UNL     1       1.885   8.283  19.603  0.00  0.00    +0.000 A 
ATOM      3  N   UNL     1       1.712   8.540  18.302  0.00  0.00    +0.000 NA
ATOM      4  C   UNL     1       0.906   9.556  17.956  0.00  0.00    +0.000 A 
ATOM      5  C   UNL     1       0.230  10.316  18.871  0.00  0.00    +0.000 A 
ATOM      6  C   UNL     1       0.501  10.026  20.191  0.00  0.00    +0.000 A 
ATOM      7  N   UNL     1       1.337   9.029  20.568  0.00  0.00    +0.000 NA
ATOM      8  H   UNL     1       3.358   7.438  20.667  0.00  0.00    +0.000 HD
ENDROOT
BRANCH   1  12
ATOM      9  C   UNL     1       4.753   4.477  16.378  0.00  0.00    +0.000 C 
ATOM     10  C   UNL     1       3.791   4.631  17.520  0.00  0.00    +0.000 A 
ATOM     11  C   UNL     1       3.701   5.838  18.233  0.00  0.00    +0.000 A 
ATOM     12  C   UNL     1       2.792   5.981  19.285  0.00  0.00    +0.000 A 
ATOM     13  C   UNL     1       2.004   4.874  19.637  0.00  0.00    +0.000 A 
ATOM     14  C   UNL     1       2.068   3.662  18.942  0.00  0.00    +0.000 A 
ATOM     15  C   UNL     1       2.968   3.553  17.878  0.00  0.00    +0.000 A 
BRANCH  14  16
ATOM     16  C   UNL     1       1.177   2.514  19.338  0.00  0.00    +0.000 C 
ATOM     17  F   UNL     1       0.118   2.322  18.499  0.00  0.00    +0.000 F 
ATOM     18  F   UNL     1       1.841   1.324  19.369  0.00  0.00    +0.000 F 
ATOM     19  F   UNL     1       0.639   2.675  20.578  0.00  0.00    +0.000 F 
ENDBRANCH  14  16
ENDBRANCH   1  12
BRANCH   6  20
ATOM     20  N   UNL     1      -0.071  10.840  21.208  0.00  0.00    +0.000 N 
ATOM     21  C   UNL     1      -0.926  10.398  22.201  0.00  0.00    +0.000 A 
ATOM     22  C   UNL     1      -1.139  11.475  23.022  0.00  0.00    +0.000 A 
ATOM     23  N   UNL     1      -0.496  12.578  22.541  0.00  0.00    +0.000 NA
ATOM     24  C   UNL     1       0.106  12.212  21.415  0.00  0.00    +0.000 A 
BRANCH  24  25
ATOM     25  C   UNL     1       0.777  13.165  20.511  0.00  0.00    +0.000 A 
ATOM     26  C   UNL     1       0.002  13.989  19.684  0.00  0.00    +0.000 A 
ATOM     27  C   UNL     1       0.604  14.921  18.832  0.00  0.00    +0.000 A 
ATOM     28  C   UNL     1       1.992  15.050  18.804  0.00  0.00    +0.000 A 
ATOM     29  C   UNL     1       2.779  14.216  19.589  0.00  0.00    +0.000 A 
ATOM     30  C   UNL     1       2.175  13.255  20.402  0.00  0.00    +0.000 A 
ENDBRANCH  24  25
ENDBRANCH   6  20
TORSDOF 4
ENDMDL
