MODEL 1
REMARK VINA RESULT:      -7.1      0.000      0.000
REMARK  Name = 
REMARK  7 active torsions:
REMARK  status: ('A' for Active; 'I' for Inactive)
REMARK    1  A    between atoms: C_2  and  C_14
REMARK    2  A    between atoms: N_3  and  C_4
REMARK    3  A    between atoms: C_4  and  C_5
REMARK    4  A    between atoms: C_5  and  C_6
REMARK    5  A    between atoms: C_6  and  S_7
REMARK    6  A    between atoms: S_7  and  C_8
REMARK    7  A    between atoms: C_17  and  O_18
REMARK                            x       y       z     vdW  Elec       q    Type
REMARK                         _______ _______ _______ _____ _____    ______ ____
ROOT
ATOM      1  O   UNL     1       5.793   4.563  19.335  0.00  0.00    +0.000 OA
ATOM      2  C   UNL     1       5.396   4.002  18.321  0.00  0.00    +0.000 C 
ATOM      3  N   UNL     1       4.461   2.985  18.328  0.00  0.00    +0.000 N 
ATOM      4  H   UNL     1       4.296   2.440  17.491  0.00  0.00    +0.000 HD
ENDROOT
BRANCH   2   5
ATOM      5  C   UNL     1       5.960   4.387  17.011  0.00  0.00    +0.000 A 
ATOM      6  C   UNL     1       5.599   3.674  15.865  0.00  0.00    +0.000 A 
ATOM      7  C   UNL     1       6.153   4.026  14.632  0.00  0.00    +0.000 A 
ATOM      8  C   UNL     1       7.053   5.076  14.602  0.00  0.00    +0.000 A 
ATOM      9  N   UNL     1       7.435   5.775  15.687  0.00  0.00    +0.000 NA
ATOM     10  C   UNL     1       6.888   5.408  16.872  0.00  0.00    +0.000 A 
BRANCH   8  11
ATOM     11  O   UNL     1       7.632   5.476  13.434  0.00  0.00    +0.000 OA
ATOM     12  H   UNL     1       8.578   5.610  13.595  0.00  0.00    +0.000 HD
ENDBRANCH   8  11
ENDBRANCH   2   5
BRANCH   3  13
ATOM     13  C   UNL     1       3.869   2.520  19.572  0.00  0.00    +0.000 C 
BRANCH  13  14
ATOM     14  C   UNL     1       2.344   2.639  19.584  0.00  0.00    +0.000 C 
BRANCH  14  15
ATOM     15  C   UNL     1       1.861   4.047  19.230  0.00  0.00    +0.000 C 
BRANCH  15  16
ATOM     16  S   UNL     1       2.335   5.209  20.563  0.00  0.00    +0.000 S 
BRANCH  16  17
ATOM     17  C   UNL     1       2.200   6.769  19.709  0.00  0.00    +0.000 A 
ATOM     18  C   UNL     1       2.685   6.888  18.401  0.00  0.00    +0.000 A 
ATOM     19  C   UNL     1       2.549   8.092  17.702  0.00  0.00    +0.000 A 
ATOM     20  C   UNL     1       1.911   9.177  18.300  0.00  0.00    +0.000 A 
ATOM     21  C   UNL     1       1.405   9.059  19.593  0.00  0.00    +0.000 A 
ATOM     22  C   UNL     1       1.549   7.859  20.294  0.00  0.00    +0.000 A 
ENDBRANCH  16  17
ENDBRANCH  15  16
ENDBRANCH  14  15
ENDBRANCH  13  14
ENDBRANCH   3  13
TORSDOF 7
ENDMDL
MODEL 2
REMARK VINA RESULT:      -6.8      1.117      1.489
REMARK  Name = 
REMARK  7 active torsions:
REMARK  status: ('A' for Active; 'I' for Inactive)
REMARK    1  A    between atoms: C_2  and  C_14
REMARK    2  A    between atoms: N_3  and  C_4
REMARK    3  A    between atoms: C_4  and  C_5
REMARK    4  A    between atoms: C_5  and  C_6
REMARK    5  A    between atoms: C_6  and  S_7
REMARK    6  A    between atoms: S_7  and  C_8
REMARK    7  A    between atoms: C_17  and  O_18
REMARK                            x       y       z     vdW  Elec       q    Type
REMARK                         _______ _______ _______ _____ _____    ______ ____
ROOT
ATOM      1  O   UNL     1       5.742   5.557  18.873  0.00  0.00    +0.000 OA
ATOM      2  C   UNL     1       5.704   4.559  18.164  0.00  0.00    +0.000 C 
ATOM      3  N   UNL     1       5.320   3.313  18.621  0.00  0.00    +0.000 N 
ATOM      4  H   UNL     1       5.471   2.493  18.047  0.00  0.00    +0.000 HD
ENDROOT
BRANCH   2   5
ATOM      5  C   UNL     1       6.125   4.658  16.751  0.00  0.00    +0.000 A 
ATOM      6  C   UNL     1       5.418   3.960  15.768  0.00  0.00    +0.000 A 
ATOM      7  C   UNL     1       5.834   4.037  14.437  0.00  0.00    +0.000 A 
ATOM      8  C   UNL     1       6.947   4.805  14.149  0.00  0.00    +0.000 A 
ATOM      9  N   UNL     1       7.660   5.478  15.071  0.00  0.00    +0.000 NA
ATOM     10  C   UNL     1       7.240   5.381  16.356  0.00  0.00    +0.000 A 
BRANCH   8  11
ATOM     11  O   UNL     1       7.409   4.927  12.872  0.00  0.00    +0.000 OA
ATOM     12  H   UNL     1       7.431   4.045  12.472  0.00  0.00    +0.000 HD
ENDBRANCH   8  11
ENDBRANCH   2   5
BRANCH   3  13
ATOM     13  C   UNL     1       4.914   3.113  20.002  0.00  0.00    +0.000 C 
BRANCH  13  14
ATOM     14  C   UNL     1       3.705   2.184  20.137  0.00  0.00    +0.000 C 
BRANCH  14  15
ATOM     15  C   UNL     1       2.702   2.673  21.185  0.00  0.00    +0.000 C 
BRANCH  15  16
ATOM     16  S   UNL     1       1.184   3.262  20.349  0.00  0.00    +0.000 S 
BRANCH  16  17
ATOM     17  C   UNL     1       1.744   4.826  19.701  0.00  0.00    +0.000 A 
ATOM     18  C   UNL     1       2.043   4.945  18.339  0.00  0.00    +0.000 A 
ATOM     19  C   UNL     1       2.443   6.175  17.807  0.00  0.00    +0.000 A 
ATOM     20  C   UNL     1       2.529   7.297  18.629  0.00  0.00    +0.000 A 
ATOM     21  C   UNL     1       2.211   7.191  19.982  0.00  0.00    +0.000 A 
ATOM     22  C   UNL     1       1.819   5.961  20.515  0.00  0.00    +0.000 A 
ENDBRANCH  16  17
ENDBRANCH  15  16
ENDBRANCH  14  15
ENDBRANCH  13  14
ENDBRANCH   3  13
TORSDOF 7
ENDMDL
MODEL 3
REMARK VINA RESULT:      -6.4      4.486      5.959
REMARK  Name = 
REMARK  7 active torsions:
REMARK  status: ('A' for Active; 'I' for Inactive)
REMARK    1  A    between atoms: C_2  and  C_14
REMARK    2  A    between atoms: N_3  and  C_4
REMARK    3  A    between atoms: C_4  and  C_5
REMARK    4  A    between atoms: C_5  and  C_6
REMARK    5  A    between atoms: C_6  and  S_7
REMARK    6  A    between atoms: S_7  and  C_8
REMARK    7  A    between atoms: C_17  and  O_18
REMARK                            x       y       z     vdW  Elec       q    Type
REMARK                         _______ _______ _______ _____ _____    ______ ____
ROOT
ATOM      1  O   UNL     1       7.492   8.028  16.940  0.00  0.00    +0.000 OA
ATOM      2  C   UNL     1       8.101   8.218  17.986  0.00  0.00    +0.000 C 
ATOM      3  N   UNL     1       8.349   7.227  18.916  0.00  0.00    +0.000 N 
ATOM      4  H   UNL     1       8.699   7.468  19.834  0.00  0.00    +0.000 HD
ENDROOT
BRANCH   2   5
ATOM      5  C   UNL     1       8.572   9.580  18.313  0.00  0.00    +0.000 A 
ATOM      6  C   UNL     1       9.286   9.801  19.494  0.00  0.00    +0.000 A 
ATOM      7  C   UNL     1       9.709  11.094  19.811  0.00  0.00    +0.000 A 
ATOM      8  C   UNL     1       9.389  12.113  18.933  0.00  0.00    +0.000 A 
ATOM      9  N   UNL     1       8.691  11.940  17.796  0.00  0.00    +0.000 NA
ATOM     10  C   UNL     1       8.287  10.677  17.516  0.00  0.00    +0.000 A 
BRANCH   8  11
ATOM     11  O   UNL     1       9.770  13.400  19.178  0.00  0.00    +0.000 OA
ATOM     12  H   UNL     1      10.720  13.473  18.998  0.00  0.00    +0.000 HD
ENDBRANCH   8  11
ENDBRANCH   2   5
BRANCH   3  13
ATOM     13  C   UNL     1       7.901   5.862  18.694  0.00  0.00    +0.000 C 
BRANCH  13  14
ATOM     14  C   UNL     1       6.546   5.568  19.341  0.00  0.00    +0.000 C 
BRANCH  14  15
ATOM     15  C   UNL     1       5.674   4.645  18.487  0.00  0.00    +0.000 C 
BRANCH  15  16
ATOM     16  S   UNL     1       4.242   5.585  17.840  0.00  0.00    +0.000 S 
BRANCH  16  17
ATOM     17  C   UNL     1       2.902   4.792  18.712  0.00  0.00    +0.000 A 
ATOM     18  C   UNL     1       2.090   3.870  18.043  0.00  0.00    +0.000 A 
ATOM     19  C   UNL     1       1.062   3.208  18.723  0.00  0.00    +0.000 A 
ATOM     20  C   UNL     1       0.853   3.451  20.079  0.00  0.00    +0.000 A 
ATOM     21  C   UNL     1       1.673   4.351  20.757  0.00  0.00    +0.000 A 
ATOM     22  C   UNL     1       2.694   5.018  20.076  0.00  0.00    +0.000 A 
ENDBRANCH  16  17
ENDBRANCH  15  16
ENDBRANCH  14  15
ENDBRANCH  13  14
ENDBRANCH   3  13
TORSDOF 7
ENDMDL
MODEL 4
REMARK VINA RESULT:      -6.3      3.045      5.248
REMARK  Name = 
REMARK  7 active torsions:
REMARK  status: ('A' for Active; 'I' for Inactive)
REMARK    1  A    between atoms: C_2  and  C_14
REMARK    2  A    between atoms: N_3  and  C_4
REMARK    3  A    between atoms: C_4  and  C_5
REMARK    4  A    between atoms: C_5  and  C_6
REMARK    5  A    between atoms: C_6  and  S_7
REMARK    6  A    between atoms: S_7  and  C_8
REMARK    7  A    between atoms: C_17  and  O_18
REMARK                            x       y       z     vdW  Elec       q    Type
REMARK                         _______ _______ _______ _____ _____    ______ ____
ROOT
ATOM      1  O   UNL     1       2.429   5.487  21.313  0.00  0.00    +0.000 OA
ATOM      2  C   UNL     1       2.033   5.532  20.154  0.00  0.00    +0.000 C 
ATOM      3  N   UNL     1       1.631   4.420  19.441  0.00  0.00    +0.000 N 
ATOM      4  H   UNL     1       1.479   4.484  18.443  0.00  0.00    +0.000 HD
ENDROOT
BRANCH   2   5
ATOM      5  C   UNL     1       2.012   6.829  19.447  0.00  0.00    +0.000 A 
ATOM      6  C   UNL     1       2.544   6.922  18.157  0.00  0.00    +0.000 A 
ATOM      7  C   UNL     1       2.545   8.155  17.500  0.00  0.00    +0.000 A 
ATOM      8  C   UNL     1       2.019   9.245  18.169  0.00  0.00    +0.000 A 
ATOM      9  N   UNL     1       1.512   9.196  19.415  0.00  0.00    +0.000 NA
ATOM     10  C   UNL     1       1.531   7.989  20.032  0.00  0.00    +0.000 A 
BRANCH   8  11
ATOM     11  O   UNL     1       1.985  10.479  17.589  0.00  0.00    +0.000 OA
ATOM     12  H   UNL     1       1.073  10.806  17.626  0.00  0.00    +0.000 HD
ENDBRANCH   8  11
ENDBRANCH   2   5
BRANCH   3  13
ATOM     13  C   UNL     1       1.641   3.098  20.045  0.00  0.00    +0.000 C 
BRANCH  13  14
ATOM     14  C   UNL     1       1.729   1.973  19.012  0.00  0.00    +0.000 C 
BRANCH  14  15
ATOM     15  C   UNL     1       3.168   1.681  18.581  0.00  0.00    +0.000 C 
BRANCH  15  16
ATOM     16  S   UNL     1       4.326   2.613  19.650  0.00  0.00    +0.000 S 
BRANCH  16  17
ATOM     17  C   UNL     1       4.867   3.887  18.524  0.00  0.00    +0.000 A 
ATOM     18  C   UNL     1       5.676   4.929  18.993  0.00  0.00    +0.000 A 
ATOM     19  C   UNL     1       6.144   5.912  18.115  0.00  0.00    +0.000 A 
ATOM     20  C   UNL     1       5.821   5.849  16.761  0.00  0.00    +0.000 A 
ATOM     21  C   UNL     1       5.036   4.801  16.282  0.00  0.00    +0.000 A 
ATOM     22  C   UNL     1       4.562   3.824  17.161  0.00  0.00    +0.000 A 
ENDBRANCH  16  17
ENDBRANCH  15  16
ENDBRANCH  14  15
ENDBRANCH  13  14
ENDBRANCH   3  13
TORSDOF 7
ENDMDL
MODEL 5
REMARK VINA RESULT:      -6.3      1.065      1.670
REMARK  Name = 
REMARK  7 active torsions:
REMARK  status: ('A' for Active; 'I' for Inactive)
REMARK    1  A    between atoms: C_2  and  C_14
REMARK    2  A    between atoms: N_3  and  C_4
REMARK    3  A    between atoms: C_4  and  C_5
REMARK    4  A    between atoms: C_5  and  C_6
REMARK    5  A    between atoms: C_6  and  S_7
REMARK    6  A    between atoms: S_7  and  C_8
REMARK    7  A    between atoms: C_17  and  O_18
REMARK                            x       y       z     vdW  Elec       q    Type
REMARK                         _______ _______ _______ _____ _____    ______ ____
ROOT
ATOM      1  O   UNL     1       6.034   4.343  18.724  0.00  0.00    +0.000 OA
ATOM      2  C   UNL     1       5.421   4.108  17.690  0.00  0.00    +0.000 C 
ATOM      3  N   UNL     1       4.171   3.521  17.660  0.00  0.00    +0.000 N 
ATOM      4  H   UNL     1       3.785   3.192  16.785  0.00  0.00    +0.000 HD
ENDROOT
BRANCH   2   5
ATOM      5  C   UNL     1       6.048   4.423  16.389  0.00  0.00    +0.000 A 
ATOM      6  C   UNL     1       5.665   3.714  15.247  0.00  0.00    +0.000 A 
ATOM      7  C   UNL     1       6.276   3.997  14.023  0.00  0.00    +0.000 A 
ATOM      8  C   UNL     1       7.253   4.977  13.999  0.00  0.00    +0.000 A 
ATOM      9  N   UNL     1       7.657   5.668  15.080  0.00  0.00    +0.000 NA
ATOM     10  C   UNL     1       7.052   5.368  16.256  0.00  0.00    +0.000 A 
BRANCH   8  11
ATOM     11  O   UNL     1       7.891   5.307  12.841  0.00  0.00    +0.000 OA
ATOM     12  H   UNL     1       8.574   4.641  12.670  0.00  0.00    +0.000 HD
ENDBRANCH   8  11
ENDBRANCH   2   5
BRANCH   3  13
ATOM     13  C   UNL     1       3.487   3.152  18.888  0.00  0.00    +0.000 C 
BRANCH  13  14
ATOM     14  C   UNL     1       2.257   4.019  19.166  0.00  0.00    +0.000 C 
BRANCH  14  15
ATOM     15  C   UNL     1       2.613   5.346  19.841  0.00  0.00    +0.000 C 
BRANCH  15  16
ATOM     16  S   UNL     1       2.834   6.640  18.565  0.00  0.00    +0.000 S 
BRANCH  16  17
ATOM     17  C   UNL     1       1.913   7.985  19.290  0.00  0.00    +0.000 A 
ATOM     18  C   UNL     1       1.534   7.918  20.636  0.00  0.00    +0.000 A 
ATOM     19  C   UNL     1       0.849   8.982  21.231  0.00  0.00    +0.000 A 
ATOM     20  C   UNL     1       0.556  10.125  20.490  0.00  0.00    +0.000 A 
ATOM     21  C   UNL     1       0.951  10.209  19.156  0.00  0.00    +0.000 A 
ATOM     22  C   UNL     1       1.628   9.142  18.560  0.00  0.00    +0.000 A 
ENDBRANCH  16  17
ENDBRANCH  15  16
ENDBRANCH  14  15
ENDBRANCH  13  14
ENDBRANCH   3  13
TORSDOF 7
ENDMDL
MODEL 6
REMARK VINA RESULT:      -6.3      3.199      5.988
REMARK  Name = 
REMARK  7 active torsions:
REMARK  status: ('A' for Active; 'I' for Inactive)
REMARK    1  A    between atoms: C_2  and  C_14
REMARK    2  A    between atoms: N_3  and  C_4
REMARK    3  A    between atoms: C_4  and  C_5
REMARK    4  A    between atoms: C_5  and  C_6
REMARK    5  A    between atoms: C_6  and  S_7
REMARK    6  A    between atoms: S_7  and  C_8
REMARK    7  A    between atoms: C_17  and  O_18
REMARK                            x       y       z     vdW  Elec       q    Type
REMARK                         _______ _______ _______ _____ _____    ______ ____
ROOT
ATOM      1  O   UNL     1       3.948   5.978  19.467  0.00  0.00    +0.000 OA
ATOM      2  C   UNL     1       2.783   6.148  19.128  0.00  0.00    +0.000 C 
ATOM      3  N   UNL     1       1.943   5.122  18.742  0.00  0.00    +0.000 N 
ATOM      4  H   UNL     1       1.053   5.331  18.308  0.00  0.00    +0.000 HD
ENDROOT
BRANCH   2   5
ATOM      5  C   UNL     1       2.236   7.520  19.083  0.00  0.00    +0.000 A 
ATOM      6  C   UNL     1       2.379   8.284  17.921  0.00  0.00    +0.000 A 
ATOM      7  C   UNL     1       1.881   9.589  17.890  0.00  0.00    +0.000 A 
ATOM      8  C   UNL     1       1.266  10.075  19.030  0.00  0.00    +0.000 A 
ATOM      9  N   UNL     1       1.124   9.374  20.169  0.00  0.00    +0.000 NA
ATOM     10  C   UNL     1       1.623   8.113  20.175  0.00  0.00    +0.000 A 
BRANCH   8  11
ATOM     11  O   UNL     1       0.756  11.339  19.071  0.00  0.00    +0.000 OA
ATOM     12  H   UNL     1       0.664  11.598  20.000  0.00  0.00    +0.000 HD
ENDBRANCH   8  11
ENDBRANCH   2   5
BRANCH   3  13
ATOM     13  C   UNL     1       2.401   3.743  18.729  0.00  0.00    +0.000 C 
BRANCH  13  14
ATOM     14  C   UNL     1       2.954   3.313  17.369  0.00  0.00    +0.000 C 
BRANCH  14  15
ATOM     15  C   UNL     1       4.477   3.165  17.374  0.00  0.00    +0.000 C 
BRANCH  15  16
ATOM     16  S   UNL     1       5.197   4.211  16.055  0.00  0.00    +0.000 S 
BRANCH  16  17
ATOM     17  C   UNL     1       6.234   5.297  17.019  0.00  0.00    +0.000 A 
ATOM     18  C   UNL     1       7.030   4.767  18.041  0.00  0.00    +0.000 A 
ATOM     19  C   UNL     1       7.880   5.598  18.778  0.00  0.00    +0.000 A 
ATOM     20  C   UNL     1       7.953   6.958  18.486  0.00  0.00    +0.000 A 
ATOM     21  C   UNL     1       7.181   7.489  17.454  0.00  0.00    +0.000 A 
ATOM     22  C   UNL     1       6.326   6.660  16.723  0.00  0.00    +0.000 A 
ENDBRANCH  16  17
ENDBRANCH  15  16
ENDBRANCH  14  15
ENDBRANCH  13  14
ENDBRANCH   3  13
TORSDOF 7
ENDMDL
MODEL 7
REMARK VINA RESULT:      -6.2      1.985      2.675
REMARK  Name = 
REMARK  7 active torsions:
REMARK  status: ('A' for Active; 'I' for Inactive)
REMARK    1  A    between atoms: C_2  and  C_14
REMARK    2  A    between atoms: N_3  and  C_4
REMARK    3  A    between atoms: C_4  and  C_5
REMARK    4  A    between atoms: C_5  and  C_6
REMARK    5  A    between atoms: C_6  and  S_7
REMARK    6  A    between atoms: S_7  and  C_8
REMARK    7  A    between atoms: C_17  and  O_18
REMARK                            x       y       z     vdW  Elec       q    Type
REMARK                         _______ _______ _______ _____ _____    ______ ____
ROOT
ATOM      1  O   UNL     1       5.477   3.574  19.910  0.00  0.00    +0.000 OA
ATOM      2  C   UNL     1       5.351   3.996  18.767  0.00  0.00    +0.000 C 
ATOM      3  N   UNL     1       4.534   3.406  17.822  0.00  0.00    +0.000 N 
ATOM      4  H   UNL     1       4.597   3.685  16.851  0.00  0.00    +0.000 HD
ENDROOT
BRANCH   2   5
ATOM      5  C   UNL     1       6.135   5.172  18.339  0.00  0.00    +0.000 A 
ATOM      6  C   UNL     1       7.263   5.556  19.070  0.00  0.00    +0.000 A 
ATOM      7  C   UNL     1       7.988   6.683  18.677  0.00  0.00    +0.000 A 
ATOM      8  C   UNL     1       7.546   7.383  17.569  0.00  0.00    +0.000 A 
ATOM      9  N   UNL     1       6.458   7.052  16.850  0.00  0.00    +0.000 NA
ATOM     10  C   UNL     1       5.768   5.958  17.258  0.00  0.00    +0.000 A 
BRANCH   8  11
ATOM     11  O   UNL     1       8.205   8.491  17.126  0.00  0.00    +0.000 OA
ATOM     12  H   UNL     1       7.991   9.228  17.719  0.00  0.00    +0.000 HD
ENDBRANCH   8  11
ENDBRANCH   2   5
BRANCH   3  13
ATOM     13  C   UNL     1       3.744   2.229  18.143  0.00  0.00    +0.000 C 
BRANCH  13  14
ATOM     14  C   UNL     1       2.372   2.232  17.466  0.00  0.00    +0.000 C 
BRANCH  14  15
ATOM     15  C   UNL     1       1.250   2.670  18.410  0.00  0.00    +0.000 C 
BRANCH  15  16
ATOM     16  S   UNL     1       1.976   3.297  19.970  0.00  0.00    +0.000 S 
BRANCH  16  17
ATOM     17  C   UNL     1       1.969   5.054  19.659  0.00  0.00    +0.000 A 
ATOM     18  C   UNL     1       1.800   5.945  20.724  0.00  0.00    +0.000 A 
ATOM     19  C   UNL     1       1.836   7.326  20.504  0.00  0.00    +0.000 A 
ATOM     20  C   UNL     1       2.057   7.822  19.221  0.00  0.00    +0.000 A 
ATOM     21  C   UNL     1       2.250   6.940  18.158  0.00  0.00    +0.000 A 
ATOM     22  C   UNL     1       2.207   5.561  18.378  0.00  0.00    +0.000 A 
ENDBRANCH  16  17
ENDBRANCH  15  16
ENDBRANCH  14  15
ENDBRANCH  13  14
ENDBRANCH   3  13
TORSDOF 7
ENDMDL
MODEL 8
REMARK VINA RESULT:      -6.2      1.522      2.070
REMARK  Name = 
REMARK  7 active torsions:
REMARK  status: ('A' for Active; 'I' for Inactive)
REMARK    1  A    between atoms: C_2  and  C_14
REMARK    2  A    between atoms: N_3  and  C_4
REMARK    3  A    between atoms: C_4  and  C_5
REMARK    4  A    between atoms: C_5  and  C_6
REMARK    5  A    between atoms: C_6  and  S_7
REMARK    6  A    between atoms: S_7  and  C_8
REMARK    7  A    between atoms: C_17  and  O_18
REMARK                            x       y       z     vdW  Elec       q    Type
REMARK                         _______ _______ _______ _____ _____    ______ ____
ROOT
ATOM      1  O   UNL     1       3.572   2.299  17.599  0.00  0.00    +0.000 OA
ATOM      2  C   UNL     1       4.566   2.904  17.982  0.00  0.00    +0.000 C 
ATOM      3  N   UNL     1       4.955   2.972  19.306  0.00  0.00    +0.000 N 
ATOM      4  H   UNL     1       5.677   3.623  19.590  0.00  0.00    +0.000 HD
ENDROOT
BRANCH   2   5
ATOM      5  C   UNL     1       5.386   3.643  17.000  0.00  0.00    +0.000 A 
ATOM      6  C   UNL     1       4.911   3.825  15.699  0.00  0.00    +0.000 A 
ATOM      7  C   UNL     1       5.699   4.504  14.766  0.00  0.00    +0.000 A 
ATOM      8  C   UNL     1       6.937   4.965  15.178  0.00  0.00    +0.000 A 
ATOM      9  N   UNL     1       7.432   4.795  16.418  0.00  0.00    +0.000 NA
ATOM     10  C   UNL     1       6.650   4.127  17.301  0.00  0.00    +0.000 A 
BRANCH   8  11
ATOM     11  O   UNL     1       7.759   5.637  14.323  0.00  0.00    +0.000 OA
ATOM     12  H   UNL     1       8.311   6.240  14.844  0.00  0.00    +0.000 HD
ENDBRANCH   8  11
ENDBRANCH   2   5
BRANCH   3  13
ATOM     13  C   UNL     1       4.195   2.299  20.346  0.00  0.00    +0.000 C 
BRANCH  13  14
ATOM     14  C   UNL     1       3.230   3.235  21.076  0.00  0.00    +0.000 C 
BRANCH  14  15
ATOM     15  C   UNL     1       1.810   2.669  21.158  0.00  0.00    +0.000 C 
BRANCH  15  16
ATOM     16  S   UNL     1       0.873   3.152  19.661  0.00  0.00    +0.000 S 
BRANCH  16  17
ATOM     17  C   UNL     1       1.480   4.811  19.409  0.00  0.00    +0.000 A 
ATOM     18  C   UNL     1       1.487   5.716  20.476  0.00  0.00    +0.000 A 
ATOM     19  C   UNL     1       1.998   7.007  20.307  0.00  0.00    +0.000 A 
ATOM     20  C   UNL     1       2.522   7.393  19.075  0.00  0.00    +0.000 A 
ATOM     21  C   UNL     1       2.540   6.490  18.013  0.00  0.00    +0.000 A 
ATOM     22  C   UNL     1       2.021   5.203  18.181  0.00  0.00    +0.000 A 
ENDBRANCH  16  17
ENDBRANCH  15  16
ENDBRANCH  14  15
ENDBRANCH  13  14
ENDBRANCH   3  13
TORSDOF 7
ENDMDL
MODEL 9
REMARK VINA RESULT:      -6.1      4.314      7.772
REMARK  Name = 
REMARK  7 active torsions:
REMARK  status: ('A' for Active; 'I' for Inactive)
REMARK    1  A    between atoms: C_2  and  C_14
REMARK    2  A    between atoms: N_3  and  C_4
REMARK    3  A    between atoms: C_4  and  C_5
REMARK    4  A    between atoms: C_5  and  C_6
REMARK    5  A    between atoms: C_6  and  S_7
REMARK    6  A    between atoms: S_7  and  C_8
REMARK    7  A    between atoms: C_17  and  O_18
REMARK                            x       y       z     vdW  Elec       q    Type
REMARK                         _______ _______ _______ _____ _____    ______ ____
ROOT
ATOM      1  O   UNL     1       1.786   8.568  19.324  0.00  0.00    +0.000 OA
ATOM      2  C   UNL     1       1.393   8.315  20.457  0.00  0.00    +0.000 C 
ATOM      3  N   UNL     1       1.506   7.070  21.043  0.00  0.00    +0.000 N 
ATOM      4  H   UNL     1       1.015   6.867  21.905  0.00  0.00    +0.000 HD
ENDROOT
BRANCH   2   5
ATOM      5  C   UNL     1       0.722   9.371  21.243  0.00  0.00    +0.000 A 
ATOM      6  C   UNL     1      -0.127   9.016  22.295  0.00  0.00    +0.000 A 
ATOM      7  C   UNL     1      -0.778  10.016  23.021  0.00  0.00    +0.000 A 
ATOM      8  C   UNL     1      -0.555  11.332  22.656  0.00  0.00    +0.000 A 
ATOM      9  N   UNL     1       0.244  11.709  21.641  0.00  0.00    +0.000 NA
ATOM     10  C   UNL     1       0.858  10.719  20.948  0.00  0.00    +0.000 A 
BRANCH   8  11
ATOM     11  O   UNL     1      -1.155  12.360  23.321  0.00  0.00    +0.000 OA
ATOM     12  H   UNL     1      -0.500  12.763  23.910  0.00  0.00    +0.000 HD
ENDBRANCH   8  11
ENDBRANCH   2   5
BRANCH   3  13
ATOM     13  C   UNL     1       2.128   5.962  20.337  0.00  0.00    +0.000 C 
BRANCH  13  14
ATOM     14  C   UNL     1       1.381   4.641  20.530  0.00  0.00    +0.000 C 
BRANCH  14  15
ATOM     15  C   UNL     1       2.313   3.489  20.913  0.00  0.00    +0.000 C 
BRANCH  15  16
ATOM     16  S   UNL     1       2.542   2.383  19.472  0.00  0.00    +0.000 S 
BRANCH  16  17
ATOM     17  C   UNL     1       3.786   3.279  18.559  0.00  0.00    +0.000 A 
ATOM     18  C   UNL     1       3.592   3.541  17.198  0.00  0.00    +0.000 A 
ATOM     19  C   UNL     1       4.537   4.278  16.477  0.00  0.00    +0.000 A 
ATOM     20  C   UNL     1       5.672   4.773  17.117  0.00  0.00    +0.000 A 
ATOM     21  C   UNL     1       5.860   4.537  18.478  0.00  0.00    +0.000 A 
ATOM     22  C   UNL     1       4.920   3.793  19.195  0.00  0.00    +0.000 A 
ENDBRANCH  16  17
ENDBRANCH  15  16
ENDBRANCH  14  15
ENDBRANCH  13  14
ENDBRANCH   3  13
TORSDOF 7
ENDMDL
