MODEL 1
REMARK VINA RESULT:      -8.2      0.000      0.000
REMARK  Name = 
REMARK  5 active torsions:
REMARK  status: ('A' for Active; 'I' for Inactive)
REMARK    1  A    between atoms: C_5  and  C_6
REMARK    2  A    between atoms: C_6  and  C_7
REMARK    3  A    between atoms: C_7  and  N_8
REMARK    4  A    between atoms: C_9  and  C_11
REMARK    5  A    between atoms: C_22  and  O_23
REMARK                            x       y       z     vdW  Elec       q    Type
REMARK                         _______ _______ _______ _____ _____    ______ ____
ROOT
ATOM      1  N   UNL     1       3.077   6.006  18.385  0.00  0.00    +0.000 N 
ATOM      2  C   UNL     1       2.463   6.360  19.559  0.00  0.00    +0.000 C 
ATOM      3  O   UNL     1       2.275   5.679  20.548  0.00  0.00    +0.000 OA
ATOM      4  H   UNL     1       2.965   6.691  17.636  0.00  0.00    +0.000 HD
ENDROOT
BRANCH   2   5
ATOM      5  C   UNL     1       2.000   7.801  19.492  0.00  0.00    +0.000 C 
ATOM      6  N   UNL     1       1.335   8.295  20.488  0.00  0.00    +0.000 NA
ATOM      7  O   UNL     1       0.998   9.608  20.138  0.00  0.00    +0.000 OA
ATOM      8  C   UNL     1       1.275   9.810  18.737  0.00  0.00    +0.000 C 
ATOM      9  C   UNL     1      -0.056   9.778  18.032  0.00  0.00    +0.000 C 
ATOM     10  C   UNL     1      -0.936  10.787  18.108  0.00  0.00    +0.000 C 
ATOM     11 BR   UNL     1      -2.643  10.671  17.369  0.00  0.00    +0.000 Br
ATOM     12  C   UNL     1      -0.559  12.027  18.858  0.00  0.00    +0.000 C 
ATOM     13  O   UNL     1      -1.429  12.806  19.247  0.00  0.00    +0.000 OA
ATOM     14  C   UNL     1       0.923  12.332  19.033  0.00  0.00    +0.000 C 
ATOM     15 BR   UNL     1       1.214  12.823  20.911  0.00  0.00    +0.000 Br
ATOM     16  C   UNL     1       1.899  11.222  18.607  0.00  0.00    +0.000 C 
ATOM     17  C   UNL     1       2.219   8.677  18.325  0.00  0.00    +0.000 C 
BRANCH  16  18
ATOM     18  O   UNL     1       2.342  11.403  17.249  0.00  0.00    +0.000 OA
ATOM     19  H   UNL     1       2.674  12.311  17.119  0.00  0.00    +0.000 HD
ENDBRANCH  16  18
ENDBRANCH   2   5
BRANCH   1  20
ATOM     20  C   UNL     1       3.520   4.680  18.009  0.00  0.00    +0.000 C 
BRANCH  20  21
ATOM     21  C   UNL     1       4.801   4.780  17.172  0.00  0.00    +0.000 C 
BRANCH  21  26
ATOM     22  N   UNL     1       8.181   5.378  20.628  0.00  0.00    +0.000 NA
ATOM     23  C   UNL     1       7.533   5.565  19.541  0.00  0.00    +0.000 A 
ATOM     24  N   UNL     1       7.758   6.473  18.535  0.00  0.00    +0.000 N 
ATOM     25  C   UNL     1       6.837   6.341  17.524  0.00  0.00    +0.000 A 
ATOM     26  C   UNL     1       5.989   5.350  17.865  0.00  0.00    +0.000 A 
ATOM     27  N   UNL     1       6.421   4.885  19.100  0.00  0.00    +0.000 N 
ATOM     28  H   UNL     1       8.961   6.036  20.665  0.00  0.00    +0.000 HD
ATOM     29  H   UNL     1       8.517   7.140  18.504  0.00  0.00    +0.000 HD
ATOM     30  H   UNL     1       5.992   4.129  19.619  0.00  0.00    +0.000 HD
ENDBRANCH  21  26
ENDBRANCH  20  21
ENDBRANCH   1  20
TORSDOF 5
ENDMDL
MODEL 2
REMARK VINA RESULT:      -8.1      2.243      3.243
REMARK  Name = 
REMARK  5 active torsions:
REMARK  status: ('A' for Active; 'I' for Inactive)
REMARK    1  A    between atoms: C_5  and  C_6
REMARK    2  A    between atoms: C_6  and  C_7
REMARK    3  A    between atoms: C_7  and  N_8
REMARK    4  A    between atoms: C_9  and  C_11
REMARK    5  A    between atoms: C_22  and  O_23
REMARK                            x       y       z     vdW  Elec       q    Type
REMARK                         _______ _______ _______ _____ _____    ______ ____
ROOT
ATOM      1  N   UNL     1       3.133   5.668  17.648  0.00  0.00    +0.000 N 
ATOM      2  C   UNL     1       3.270   6.194  18.907  0.00  0.00    +0.000 C 
ATOM      3  O   UNL     1       3.846   5.719  19.866  0.00  0.00    +0.000 OA
ATOM      4  H   UNL     1       2.463   6.167  17.061  0.00  0.00    +0.000 HD
ENDROOT
BRANCH   2   5
ATOM      5  C   UNL     1       2.570   7.535  18.991  0.00  0.00    +0.000 C 
ATOM      6  N   UNL     1       1.790   7.775  19.997  0.00  0.00    +0.000 NA
ATOM      7  O   UNL     1       1.247   9.050  19.792  0.00  0.00    +0.000 OA
ATOM      8  C   UNL     1       1.542   9.479  18.448  0.00  0.00    +0.000 C 
ATOM      9  C   UNL     1       0.266   9.323  17.662  0.00  0.00    +0.000 C 
ATOM     10  C   UNL     1      -0.776  10.153  17.808  0.00  0.00    +0.000 C 
ATOM     11 BR   UNL     1      -2.407   9.856  16.955  0.00  0.00    +0.000 Br
ATOM     12  C   UNL     1      -0.649  11.327  18.729  0.00  0.00    +0.000 C 
ATOM     13  O   UNL     1      -1.655  11.893  19.157  0.00  0.00    +0.000 OA
ATOM     14  C   UNL     1       0.750  11.847  19.033  0.00  0.00    +0.000 C 
ATOM     15 BR   UNL     1       0.876  12.124  20.971  0.00  0.00    +0.000 Br
ATOM     16  C   UNL     1       1.919  10.979  18.533  0.00  0.00    +0.000 C 
ATOM     17  C   UNL     1       2.683   8.582  17.958  0.00  0.00    +0.000 C 
BRANCH  16  18
ATOM     18  O   UNL     1       2.379  11.411  17.239  0.00  0.00    +0.000 OA
ATOM     19  H   UNL     1       1.672  11.891  16.771  0.00  0.00    +0.000 HD
ENDBRANCH  16  18
ENDBRANCH   2   5
BRANCH   1  20
ATOM     20  C   UNL     1       3.533   4.344  17.219  0.00  0.00    +0.000 C 
BRANCH  20  21
ATOM     21  C   UNL     1       2.355   3.374  17.370  0.00  0.00    +0.000 C 
BRANCH  21  26
ATOM     22  N   UNL     1       2.510   2.479  22.156  0.00  0.00    +0.000 NA
ATOM     23  C   UNL     1       2.024   2.730  20.999  0.00  0.00    +0.000 A 
ATOM     24  N   UNL     1       0.716   2.909  20.621  0.00  0.00    +0.000 N 
ATOM     25  C   UNL     1       0.614   3.177  19.277  0.00  0.00    +0.000 A 
ATOM     26  C   UNL     1       1.857   3.164  18.758  0.00  0.00    +0.000 A 
ATOM     27  N   UNL     1       2.711   2.887  19.817  0.00  0.00    +0.000 N 
ATOM     28  H   UNL     1       1.745   2.427  22.830  0.00  0.00    +0.000 HD
ATOM     29  H   UNL     1      -0.084   2.884  21.239  0.00  0.00    +0.000 HD
ATOM     30  H   UNL     1       3.719   2.820  19.749  0.00  0.00    +0.000 HD
ENDBRANCH  21  26
ENDBRANCH  20  21
ENDBRANCH   1  20
TORSDOF 5
ENDMDL
MODEL 3
REMARK VINA RESULT:      -8.1      1.305      1.574
REMARK  Name = 
REMARK  5 active torsions:
REMARK  status: ('A' for Active; 'I' for Inactive)
REMARK    1  A    between atoms: C_5  and  C_6
REMARK    2  A    between atoms: C_6  and  C_7
REMARK    3  A    between atoms: C_7  and  N_8
REMARK    4  A    between atoms: C_9  and  C_11
REMARK    5  A    between atoms: C_22  and  O_23
REMARK                            x       y       z     vdW  Elec       q    Type
REMARK                         _______ _______ _______ _____ _____    ______ ____
ROOT
ATOM      1  N   UNL     1       2.247   5.235  18.508  0.00  0.00    +0.000 N 
ATOM      2  C   UNL     1       3.079   6.137  19.119  0.00  0.00    +0.000 C 
ATOM      3  O   UNL     1       4.180   5.947  19.596  0.00  0.00    +0.000 OA
ATOM      4  H   UNL     1       1.303   5.587  18.342  0.00  0.00    +0.000 HD
ENDROOT
BRANCH   2   5
ATOM      5  C   UNL     1       2.432   7.507  19.146  0.00  0.00    +0.000 C 
ATOM      6  N   UNL     1       1.654   7.816  20.136  0.00  0.00    +0.000 NA
ATOM      7  O   UNL     1       1.164   9.102  19.879  0.00  0.00    +0.000 OA
ATOM      8  C   UNL     1       1.485   9.468  18.522  0.00  0.00    +0.000 C 
ATOM      9  C   UNL     1       0.210   9.332  17.731  0.00  0.00    +0.000 C 
ATOM     10  C   UNL     1      -0.800  10.208  17.836  0.00  0.00    +0.000 C 
ATOM     11 BR   UNL     1      -2.434   9.943  16.980  0.00  0.00    +0.000 Br
ATOM     12  C   UNL     1      -0.633  11.410  18.714  0.00  0.00    +0.000 C 
ATOM     13  O   UNL     1      -1.619  12.031  19.110  0.00  0.00    +0.000 OA
ATOM     14  C   UNL     1       0.784  11.885  19.010  0.00  0.00    +0.000 C 
ATOM     15 BR   UNL     1       0.905  12.230  20.938  0.00  0.00    +0.000 Br
ATOM     16  C   UNL     1       1.921  10.954  18.555  0.00  0.00    +0.000 C 
ATOM     17  C   UNL     1       2.594   8.510  18.076  0.00  0.00    +0.000 C 
BRANCH  16  18
ATOM     18  O   UNL     1       2.408  11.318  17.249  0.00  0.00    +0.000 OA
ATOM     19  H   UNL     1       3.245  10.856  17.059  0.00  0.00    +0.000 HD
ENDBRANCH  16  18
ENDBRANCH   2   5
BRANCH   1  20
ATOM     20  C   UNL     1       2.444   3.803  18.421  0.00  0.00    +0.000 C 
BRANCH  20  21
ATOM     21  C   UNL     1       3.076   3.450  17.069  0.00  0.00    +0.000 C 
BRANCH  21  26
ATOM     22  N   UNL     1       7.752   4.369  18.077  0.00  0.00    +0.000 NA
ATOM     23  C   UNL     1       6.655   4.323  17.420  0.00  0.00    +0.000 A 
ATOM     24  N   UNL     1       6.381   4.753  16.146  0.00  0.00    +0.000 N 
ATOM     25  C   UNL     1       5.072   4.508  15.803  0.00  0.00    +0.000 A 
ATOM     26  C   UNL     1       4.472   3.923  16.858  0.00  0.00    +0.000 A 
ATOM     27  N   UNL     1       5.446   3.817  17.842  0.00  0.00    +0.000 N 
ATOM     28  H   UNL     1       8.470   4.795  17.489  0.00  0.00    +0.000 HD
ATOM     29  H   UNL     1       7.046   5.170  15.509  0.00  0.00    +0.000 HD
ATOM     30  H   UNL     1       5.306   3.408  18.758  0.00  0.00    +0.000 HD
ENDBRANCH  21  26
ENDBRANCH  20  21
ENDBRANCH   1  20
TORSDOF 5
ENDMDL
MODEL 4
REMARK VINA RESULT:      -8.1      4.233      8.603
REMARK  Name = 
REMARK  5 active torsions:
REMARK  status: ('A' for Active; 'I' for Inactive)
REMARK    1  A    between atoms: C_5  and  C_6
REMARK    2  A    between atoms: C_6  and  C_7
REMARK    3  A    between atoms: C_7  and  N_8
REMARK    4  A    between atoms: C_9  and  C_11
REMARK    5  A    between atoms: C_22  and  O_23
REMARK                            x       y       z     vdW  Elec       q    Type
REMARK                         _______ _______ _______ _____ _____    ______ ____
ROOT
ATOM      1  N   UNL     1       0.409   9.673  18.833  0.00  0.00    +0.000 N 
ATOM      2  C   UNL     1       1.619   9.367  18.264  0.00  0.00    +0.000 C 
ATOM      3  O   UNL     1       2.342  10.081  17.599  0.00  0.00    +0.000 OA
ATOM      4  H   UNL     1      -0.093   8.863  19.200  0.00  0.00    +0.000 HD
ENDROOT
BRANCH   2   5
ATOM      5  C   UNL     1       1.991   7.931  18.571  0.00  0.00    +0.000 C 
ATOM      6  N   UNL     1       2.467   7.641  19.741  0.00  0.00    +0.000 NA
ATOM      7  O   UNL     1       2.765   6.273  19.728  0.00  0.00    +0.000 OA
ATOM      8  C   UNL     1       2.688   5.784  18.373  0.00  0.00    +0.000 C 
ATOM      9  C   UNL     1       4.108   5.621  17.898  0.00  0.00    +0.000 C 
ATOM     10  C   UNL     1       4.899   4.624  18.321  0.00  0.00    +0.000 C 
ATOM     11 BR   UNL     1       6.701   4.524  17.856  0.00  0.00    +0.000 Br
ATOM     12  C   UNL     1       4.334   3.587  19.241  0.00  0.00    +0.000 C 
ATOM     13  O   UNL     1       5.084   2.881  19.916  0.00  0.00    +0.000 OA
ATOM     14  C   UNL     1       2.826   3.374  19.237  0.00  0.00    +0.000 C 
ATOM     15 BR   UNL     1       2.227   3.307  21.104  0.00  0.00    +0.000 Br
ATOM     16  C   UNL     1       1.999   4.399  18.440  0.00  0.00    +0.000 C 
ATOM     17  C   UNL     1       1.891   6.833  17.591  0.00  0.00    +0.000 C 
BRANCH  16  18
ATOM     18  O   UNL     1       1.752   3.945  17.096  0.00  0.00    +0.000 OA
ATOM     19  H   UNL     1       2.587   3.674  16.671  0.00  0.00    +0.000 HD
ENDBRANCH  16  18
ENDBRANCH   2   5
BRANCH   1  20
ATOM     20  C   UNL     1      -0.349  10.892  18.644  0.00  0.00    +0.000 C 
BRANCH  20  21
ATOM     21  C   UNL     1      -1.850  10.578  18.678  0.00  0.00    +0.000 C 
BRANCH  21  26
ATOM     22  N   UNL     1      -2.887  10.309  13.926  0.00  0.00    +0.000 NA
ATOM     23  C   UNL     1      -2.997  10.628  15.160  0.00  0.00    +0.000 A 
ATOM     24  N   UNL     1      -3.962  11.379  15.785  0.00  0.00    +0.000 N 
ATOM     25  C   UNL     1      -3.725  11.479  17.136  0.00  0.00    +0.000 A 
ATOM     26  C   UNL     1      -2.591  10.802  17.406  0.00  0.00    +0.000 A 
ATOM     27  N   UNL     1      -2.153  10.290  16.193  0.00  0.00    +0.000 N 
ATOM     28  H   UNL     1      -3.674  10.707  13.411  0.00  0.00    +0.000 HD
ATOM     29  H   UNL     1      -4.771  11.788  15.338  0.00  0.00    +0.000 HD
ATOM     30  H   UNL     1      -1.324   9.721  16.067  0.00  0.00    +0.000 HD
ENDBRANCH  21  26
ENDBRANCH  20  21
ENDBRANCH   1  20
TORSDOF 5
ENDMDL
MODEL 5
REMARK VINA RESULT:      -8.1      3.991      8.475
REMARK  Name = 
REMARK  5 active torsions:
REMARK  status: ('A' for Active; 'I' for Inactive)
REMARK    1  A    between atoms: C_5  and  C_6
REMARK    2  A    between atoms: C_6  and  C_7
REMARK    3  A    between atoms: C_7  and  N_8
REMARK    4  A    between atoms: C_9  and  C_11
REMARK    5  A    between atoms: C_22  and  O_23
REMARK                            x       y       z     vdW  Elec       q    Type
REMARK                         _______ _______ _______ _____ _____    ______ ____
ROOT
ATOM      1  N   UNL     1       1.199   9.776  19.694  0.00  0.00    +0.000 N 
ATOM      2  C   UNL     1       1.569   9.181  18.515  0.00  0.00    +0.000 C 
ATOM      3  O   UNL     1       1.585   9.661  17.400  0.00  0.00    +0.000 OA
ATOM      4  H   UNL     1       1.104   9.125  20.475  0.00  0.00    +0.000 HD
ENDROOT
BRANCH   2   5
ATOM      5  C   UNL     1       1.985   7.746  18.764  0.00  0.00    +0.000 C 
ATOM      6  N   UNL     1       2.438   7.416  19.933  0.00  0.00    +0.000 NA
ATOM      7  O   UNL     1       2.787   6.061  19.863  0.00  0.00    +0.000 OA
ATOM      8  C   UNL     1       2.766   5.637  18.486  0.00  0.00    +0.000 C 
ATOM      9  C   UNL     1       4.205   5.548  18.047  0.00  0.00    +0.000 C 
ATOM     10  C   UNL     1       5.019   4.561  18.445  0.00  0.00    +0.000 C 
ATOM     11 BR   UNL     1       6.837   4.548  18.030  0.00  0.00    +0.000 Br
ATOM     12  C   UNL     1       4.467   3.461  19.297  0.00  0.00    +0.000 C 
ATOM     13  O   UNL     1       5.224   2.750  19.960  0.00  0.00    +0.000 OA
ATOM     14  C   UNL     1       2.969   3.195  19.237  0.00  0.00    +0.000 C 
ATOM     15 BR   UNL     1       2.320   3.015  21.080  0.00  0.00    +0.000 Br
ATOM     16  C   UNL     1       2.128   4.226  18.465  0.00  0.00    +0.000 C 
ATOM     17  C   UNL     1       1.954   6.694  17.730  0.00  0.00    +0.000 C 
BRANCH  16  18
ATOM     18  O   UNL     1       1.936   3.830  17.094  0.00  0.00    +0.000 OA
ATOM     19  H   UNL     1       2.626   4.224  16.528  0.00  0.00    +0.000 HD
ENDBRANCH  16  18
ENDBRANCH   2   5
BRANCH   1  20
ATOM     20  C   UNL     1       0.604  11.087  19.848  0.00  0.00    +0.000 C 
BRANCH  20  21
ATOM     21  C   UNL     1      -0.901  10.945  20.105  0.00  0.00    +0.000 C 
BRANCH  21  26
ATOM     22  N   UNL     1      -2.431  11.096  15.483  0.00  0.00    +0.000 NA
ATOM     23  C   UNL     1      -2.428  11.274  16.750  0.00  0.00    +0.000 A 
ATOM     24  N   UNL     1      -3.367  11.875  17.551  0.00  0.00    +0.000 N 
ATOM     25  C   UNL     1      -2.991  11.851  18.873  0.00  0.00    +0.000 A 
ATOM     26  C   UNL     1      -1.791  11.242  18.949  0.00  0.00    +0.000 A 
ATOM     27  N   UNL     1      -1.454  10.896  17.647  0.00  0.00    +0.000 N 
ATOM     28  H   UNL     1      -3.295  11.482  15.099  0.00  0.00    +0.000 HD
ATOM     29  H   UNL     1      -4.246  12.264  17.237  0.00  0.00    +0.000 HD
ATOM     30  H   UNL     1      -0.608  10.412  17.374  0.00  0.00    +0.000 HD
ENDBRANCH  21  26
ENDBRANCH  20  21
ENDBRANCH   1  20
TORSDOF 5
ENDMDL
MODEL 6
REMARK VINA RESULT:      -8.1      1.494      1.939
REMARK  Name = 
REMARK  5 active torsions:
REMARK  status: ('A' for Active; 'I' for Inactive)
REMARK    1  A    between atoms: C_5  and  C_6
REMARK    2  A    between atoms: C_6  and  C_7
REMARK    3  A    between atoms: C_7  and  N_8
REMARK    4  A    between atoms: C_9  and  C_11
REMARK    5  A    between atoms: C_22  and  O_23
REMARK                            x       y       z     vdW  Elec       q    Type
REMARK                         _______ _______ _______ _____ _____    ______ ____
ROOT
ATOM      1  N   UNL     1       3.548   6.004  19.226  0.00  0.00    +0.000 N 
ATOM      2  C   UNL     1       2.439   6.235  19.999  0.00  0.00    +0.000 C 
ATOM      3  O   UNL     1       1.872   5.471  20.753  0.00  0.00    +0.000 OA
ATOM      4  H   UNL     1       3.740   6.740  18.545  0.00  0.00    +0.000 HD
ENDROOT
BRANCH   2   5
ATOM      5  C   UNL     1       1.950   7.655  19.796  0.00  0.00    +0.000 C 
ATOM      6  N   UNL     1       1.209   8.201  20.708  0.00  0.00    +0.000 NA
ATOM      7  O   UNL     1       0.867   9.476  20.241  0.00  0.00    +0.000 OA
ATOM      8  C   UNL     1       1.232   9.585  18.850  0.00  0.00    +0.000 C 
ATOM      9  C   UNL     1      -0.047   9.466  18.064  0.00  0.00    +0.000 C 
ATOM     10  C   UNL     1      -0.952  10.454  18.009  0.00  0.00    +0.000 C 
ATOM     11 BR   UNL     1      -2.603  10.239  17.170  0.00  0.00    +0.000 Br
ATOM     12  C   UNL     1      -0.654  11.754  18.689  0.00  0.00    +0.000 C 
ATOM     13  O   UNL     1      -1.565  12.535  18.963  0.00  0.00    +0.000 OA
ATOM     14  C   UNL     1       0.806  12.111  18.938  0.00  0.00    +0.000 C 
ATOM     15 BR   UNL     1       0.959  12.743  20.789  0.00  0.00    +0.000 Br
ATOM     16  C   UNL     1       1.832  11.000  18.658  0.00  0.00    +0.000 C 
ATOM     17  C   UNL     1       2.227   8.451  18.585  0.00  0.00    +0.000 C 
BRANCH  16  18
ATOM     18  O   UNL     1       2.362  11.095  17.322  0.00  0.00    +0.000 OA
ATOM     19  H   UNL     1       1.944  10.431  16.744  0.00  0.00    +0.000 HD
ENDBRANCH  16  18
ENDBRANCH   2   5
BRANCH   1  20
ATOM     20  C   UNL     1       4.214   4.732  19.033  0.00  0.00    +0.000 C 
BRANCH  20  21
ATOM     21  C   UNL     1       5.725   4.956  18.894  0.00  0.00    +0.000 C 
BRANCH  21  26
ATOM     22  N   UNL     1       6.398   3.603  14.263  0.00  0.00    +0.000 NA
ATOM     23  C   UNL     1       6.515   4.280  15.343  0.00  0.00    +0.000 A 
ATOM     24  N   UNL     1       7.265   5.403  15.592  0.00  0.00    +0.000 N 
ATOM     25  C   UNL     1       7.103   5.837  16.887  0.00  0.00    +0.000 A 
ATOM     26  C   UNL     1       6.253   4.992  17.502  0.00  0.00    +0.000 A 
ATOM     27  N   UNL     1       5.902   4.042  16.552  0.00  0.00    +0.000 N 
ATOM     28  H   UNL     1       6.974   4.035  13.539  0.00  0.00    +0.000 HD
ATOM     29  H   UNL     1       7.842   5.886  14.919  0.00  0.00    +0.000 HD
ATOM     30  H   UNL     1       5.263   3.272  16.707  0.00  0.00    +0.000 HD
ENDBRANCH  21  26
ENDBRANCH  20  21
ENDBRANCH   1  20
TORSDOF 5
ENDMDL
MODEL 7
REMARK VINA RESULT:      -8.0      1.681      2.087
REMARK  Name = 
REMARK  5 active torsions:
REMARK  status: ('A' for Active; 'I' for Inactive)
REMARK    1  A    between atoms: C_5  and  C_6
REMARK    2  A    between atoms: C_6  and  C_7
REMARK    3  A    between atoms: C_7  and  N_8
REMARK    4  A    between atoms: C_9  and  C_11
REMARK    5  A    between atoms: C_22  and  O_23
REMARK                            x       y       z     vdW  Elec       q    Type
REMARK                         _______ _______ _______ _____ _____    ______ ____
ROOT
ATOM      1  N   UNL     1       3.998   5.848  19.570  0.00  0.00    +0.000 N 
ATOM      2  C   UNL     1       3.230   6.175  18.482  0.00  0.00    +0.000 C 
ATOM      3  O   UNL     1       3.071   5.548  17.454  0.00  0.00    +0.000 OA
ATOM      4  H   UNL     1       4.112   6.609  20.241  0.00  0.00    +0.000 HD
ENDROOT
BRANCH   2   5
ATOM      5  C   UNL     1       2.548   7.509  18.708  0.00  0.00    +0.000 C 
ATOM      6  N   UNL     1       1.831   7.677  19.774  0.00  0.00    +0.000 NA
ATOM      7  O   UNL     1       1.288   8.965  19.698  0.00  0.00    +0.000 OA
ATOM      8  C   UNL     1       1.506   9.493  18.374  0.00  0.00    +0.000 C 
ATOM      9  C   UNL     1       0.185   9.402  17.657  0.00  0.00    +0.000 C 
ATOM     10  C   UNL     1      -0.839  10.224  17.926  0.00  0.00    +0.000 C 
ATOM     11 BR   UNL     1      -2.520   9.999  17.152  0.00  0.00    +0.000 Br
ATOM     12  C   UNL     1      -0.647  11.324  18.923  0.00  0.00    +0.000 C 
ATOM     13  O   UNL     1      -1.621  11.861  19.451  0.00  0.00    +0.000 OA
ATOM     14  C   UNL     1       0.772  11.813  19.181  0.00  0.00    +0.000 C 
ATOM     15 BR   UNL     1       1.014  11.943  21.124  0.00  0.00    +0.000 Br
ATOM     16  C   UNL     1       1.901  10.981  18.549  0.00  0.00    +0.000 C 
ATOM     17  C   UNL     1       2.609   8.631  17.751  0.00  0.00    +0.000 C 
BRANCH  16  18
ATOM     18  O   UNL     1       2.288  11.507  17.266  0.00  0.00    +0.000 OA
ATOM     19  H   UNL     1       1.502  11.797  16.768  0.00  0.00    +0.000 HD
ENDBRANCH  16  18
ENDBRANCH   2   5
BRANCH   1  20
ATOM     20  C   UNL     1       4.913   4.730  19.675  0.00  0.00    +0.000 C 
BRANCH  20  21
ATOM     21  C   UNL     1       6.318   5.171  19.248  0.00  0.00    +0.000 C 
BRANCH  21  26
ATOM     22  N   UNL     1       6.285   3.616  14.631  0.00  0.00    +0.000 NA
ATOM     23  C   UNL     1       6.525   4.363  15.643  0.00  0.00    +0.000 A 
ATOM     24  N   UNL     1       7.194   5.560  15.705  0.00  0.00    +0.000 N 
ATOM     25  C   UNL     1       7.224   6.053  16.988  0.00  0.00    +0.000 A 
ATOM     26  C   UNL     1       6.584   5.173  17.782  0.00  0.00    +0.000 A 
ATOM     27  N   UNL     1       6.164   4.142  16.952  0.00  0.00    +0.000 N 
ATOM     28  H   UNL     1       6.677   4.055  13.797  0.00  0.00    +0.000 HD
ATOM     29  H   UNL     1       7.592   6.053  14.917  0.00  0.00    +0.000 HD
ATOM     30  H   UNL     1       5.641   3.329  17.253  0.00  0.00    +0.000 HD
ENDBRANCH  21  26
ENDBRANCH  20  21
ENDBRANCH   1  20
TORSDOF 5
ENDMDL
MODEL 8
REMARK VINA RESULT:      -7.9      5.636      7.993
REMARK  Name = 
REMARK  5 active torsions:
REMARK  status: ('A' for Active; 'I' for Inactive)
REMARK    1  A    between atoms: C_5  and  C_6
REMARK    2  A    between atoms: C_6  and  C_7
REMARK    3  A    between atoms: C_7  and  N_8
REMARK    4  A    between atoms: C_9  and  C_11
REMARK    5  A    between atoms: C_22  and  O_23
REMARK                            x       y       z     vdW  Elec       q    Type
REMARK                         _______ _______ _______ _____ _____    ______ ____
ROOT
ATOM      1  N   UNL     1       6.453   4.551  15.206  0.00  0.00    +0.000 N 
ATOM      2  C   UNL     1       5.688   5.548  15.753  0.00  0.00    +0.000 C 
ATOM      3  O   UNL     1       5.677   6.731  15.475  0.00  0.00    +0.000 OA
ATOM      4  H   UNL     1       6.412   3.668  15.717  0.00  0.00    +0.000 HD
ENDROOT
BRANCH   2   5
ATOM      5  C   UNL     1       4.786   4.981  16.831  0.00  0.00    +0.000 C 
ATOM      6  N   UNL     1       4.661   5.624  17.949  0.00  0.00    +0.000 NA
ATOM      7  O   UNL     1       3.821   4.857  18.765  0.00  0.00    +0.000 OA
ATOM      8  C   UNL     1       3.643   3.555  18.170  0.00  0.00    +0.000 C 
ATOM      9  C   UNL     1       4.503   2.605  18.962  0.00  0.00    +0.000 C 
ATOM     10  C   UNL     1       4.176   2.197  20.197  0.00  0.00    +0.000 C 
ATOM     11 BR   UNL     1       5.324   1.153  21.231  0.00  0.00    +0.000 Br
ATOM     12  C   UNL     1       2.874   2.639  20.789  0.00  0.00    +0.000 C 
ATOM     13  O   UNL     1       2.698   2.590  22.007  0.00  0.00    +0.000 OA
ATOM     14  C   UNL     1       1.761   3.053  19.836  0.00  0.00    +0.000 C 
ATOM     15 BR   UNL     1       1.001   4.736  20.501  0.00  0.00    +0.000 Br
ATOM     16  C   UNL     1       2.151   3.183  18.354  0.00  0.00    +0.000 C 
ATOM     17  C   UNL     1       4.068   3.698  16.705  0.00  0.00    +0.000 C 
BRANCH  16  18
ATOM     18  O   UNL     1       1.890   1.965  17.631  0.00  0.00    +0.000 OA
ATOM     19  H   UNL     1       0.972   1.956  17.305  0.00  0.00    +0.000 HD
ENDBRANCH  16  18
ENDBRANCH   2   5
BRANCH   1  20
ATOM     20  C   UNL     1       7.535   4.717  14.257  0.00  0.00    +0.000 C 
BRANCH  20  21
ATOM     21  C   UNL     1       6.961   4.886  12.844  0.00  0.00    +0.000 C 
BRANCH  21  26
ATOM     22  N   UNL     1       6.394   0.396  11.040  0.00  0.00    +0.000 NA
ATOM     23  C   UNL     1       6.094   1.576  11.434  0.00  0.00    +0.000 A 
ATOM     24  N   UNL     1       4.872   2.204  11.460  0.00  0.00    +0.000 N 
ATOM     25  C   UNL     1       4.972   3.476  11.973  0.00  0.00    +0.000 A 
ATOM     26  C   UNL     1       6.266   3.697  12.277  0.00  0.00    +0.000 A 
ATOM     27  N   UNL     1       6.943   2.533  11.941  0.00  0.00    +0.000 N 
ATOM     28  H   UNL     1       5.544  -0.072  10.724  0.00  0.00    +0.000 HD
ATOM     29  H   UNL     1       3.994   1.793  11.175  0.00  0.00    +0.000 HD
ATOM     30  H   UNL     1       7.937   2.383  12.062  0.00  0.00    +0.000 HD
ENDBRANCH  21  26
ENDBRANCH  20  21
ENDBRANCH   1  20
TORSDOF 5
ENDMDL
MODEL 9
REMARK VINA RESULT:      -7.9      1.803      3.226
REMARK  Name = 
REMARK  5 active torsions:
REMARK  status: ('A' for Active; 'I' for Inactive)
REMARK    1  A    between atoms: C_5  and  C_6
REMARK    2  A    between atoms: C_6  and  C_7
REMARK    3  A    between atoms: C_7  and  N_8
REMARK    4  A    between atoms: C_9  and  C_11
REMARK    5  A    between atoms: C_22  and  O_23
REMARK                            x       y       z     vdW  Elec       q    Type
REMARK                         _______ _______ _______ _____ _____    ______ ____
ROOT
ATOM      1  N   UNL     1       3.893   6.424  18.274  0.00  0.00    +0.000 N 
ATOM      2  C   UNL     1       2.995   6.440  19.311  0.00  0.00    +0.000 C 
ATOM      3  O   UNL     1       2.762   5.565  20.121  0.00  0.00    +0.000 OA
ATOM      4  H   UNL     1       3.791   7.205  17.626  0.00  0.00    +0.000 HD
ENDROOT
BRANCH   2   5
ATOM      5  C   UNL     1       2.261   7.765  19.344  0.00  0.00    +0.000 C 
ATOM      6  N   UNL     1       1.407   7.987  20.292  0.00  0.00    +0.000 NA
ATOM      7  O   UNL     1       0.852   9.249  20.049  0.00  0.00    +0.000 OA
ATOM      8  C   UNL     1       1.231   9.686  18.728  0.00  0.00    +0.000 C 
ATOM      9  C   UNL     1       0.018   9.502  17.854  0.00  0.00    +0.000 C 
ATOM     10  C   UNL     1      -1.050  10.309  17.926  0.00  0.00    +0.000 C 
ATOM     11 BR   UNL     1      -2.609   9.976  16.959  0.00  0.00    +0.000 Br
ATOM     12  C   UNL     1      -1.014  11.484  18.852  0.00  0.00    +0.000 C 
ATOM     13  O   UNL     1      -2.061  12.027  19.207  0.00  0.00    +0.000 OA
ATOM     14  C   UNL     1       0.347  12.034  19.254  0.00  0.00    +0.000 C 
ATOM     15 BR   UNL     1       0.329  12.313  21.197  0.00  0.00    +0.000 Br
ATOM     16  C   UNL     1       1.568  11.194  18.840  0.00  0.00    +0.000 C 
ATOM     17  C   UNL     1       2.424   8.815  18.321  0.00  0.00    +0.000 C 
BRANCH  16  18
ATOM     18  O   UNL     1       2.109  11.637  17.581  0.00  0.00    +0.000 OA
ATOM     19  H   UNL     1       1.946  12.590  17.459  0.00  0.00    +0.000 HD
ENDBRANCH  16  18
ENDBRANCH   2   5
BRANCH   1  20
ATOM     20  C   UNL     1       4.673   5.288  17.827  0.00  0.00    +0.000 C 
BRANCH  20  21
ATOM     21  C   UNL     1       3.815   4.398  16.920  0.00  0.00    +0.000 C 
BRANCH  21  26
ATOM     22  N   UNL     1       0.090   2.251  19.210  0.00  0.00    +0.000 NA
ATOM     23  C   UNL     1       1.244   2.399  18.678  0.00  0.00    +0.000 A 
ATOM     24  N   UNL     1       2.271   1.496  18.553  0.00  0.00    +0.000 N 
ATOM     25  C   UNL     1       3.349   2.047  17.901  0.00  0.00    +0.000 A 
ATOM     26  C   UNL     1       3.040   3.325  17.603  0.00  0.00    +0.000 A 
ATOM     27  N   UNL     1       1.755   3.531  18.085  0.00  0.00    +0.000 N 
ATOM     28  H   UNL     1       0.008   1.295  19.558  0.00  0.00    +0.000 HD
ATOM     29  H   UNL     1       2.249   0.534  18.863  0.00  0.00    +0.000 HD
ATOM     30  H   UNL     1       1.235   4.397  18.004  0.00  0.00    +0.000 HD
ENDBRANCH  21  26
ENDBRANCH  20  21
ENDBRANCH   1  20
TORSDOF 5
ENDMDL
