MODEL 1
REMARK VINA RESULT:      -7.8      0.000      0.000
REMARK  Name = 
REMARK  6 active torsions:
REMARK  status: ('A' for Active; 'I' for Inactive)
REMARK    1  A    between atoms: C_1  and  C_2
REMARK    2  A    between atoms: C_2  and  C_3
REMARK    3  A    between atoms: C_2  and  C_4
REMARK    4  A    between atoms: C_2  and  C_5
REMARK    5  A    between atoms: C_8  and  C_9
REMARK    6  A    between atoms: N_11  and  C_12
REMARK                            x       y       z     vdW  Elec       q    Type
REMARK                         _______ _______ _______ _____ _____    ______ ____
ROOT
ATOM      1  C   UNL     1       8.046   8.378  18.145  0.00  0.00    +0.000 C 
ATOM      2  O   UNL     1       8.538   7.521  18.867  0.00  0.00    +0.000 OA
ATOM      3  N   UNL     1       7.085   8.026  17.227  0.00  0.00    +0.000 N 
ATOM      4  H   UNL     1       6.761   8.734  16.555  0.00  0.00    +0.000 HD
ENDROOT
BRANCH   3   5
ATOM      5  C   UNL     1       6.523   6.702  17.088  0.00  0.00    +0.000 A 
ATOM      6  C   UNL     1       7.189   5.654  16.375  0.00  0.00    +0.000 A 
ATOM      7  C   UNL     1       6.615   4.387  16.227  0.00  0.00    +0.000 A 
ATOM      8  C   UNL     1       5.380   4.170  16.802  0.00  0.00    +0.000 A 
ATOM      9  N   UNL     1       4.647   3.056  16.766  0.00  0.00    +0.000 N 
ATOM     10  C   UNL     1       3.537   3.369  17.468  0.00  0.00    +0.000 A 
ATOM     11  N   UNL     1       2.476   2.457  17.666  0.00  0.00    +0.000 N 
ATOM     12  N   UNL     1       3.543   4.639  17.954  0.00  0.00    +0.000 NA
ATOM     13  C   UNL     1       4.724   5.130  17.510  0.00  0.00    +0.000 A 
ATOM     14  C   UNL     1       5.265   6.413  17.691  0.00  0.00    +0.000 A 
ATOM     15  H   UNL     1       4.880   2.150  16.298  0.00  0.00    +0.000 HD
ATOM     16  H   UNL     1       2.533   1.510  17.259  0.00  0.00    +0.000 HD
ATOM     17  H   UNL     1       1.641   2.728  18.198  0.00  0.00    +0.000 HD
ENDBRANCH   3   5
BRANCH   1  21
ATOM     18  C   UNL     1       9.758  12.353  18.687  0.00  0.00    +0.000 A 
ATOM     19  C   UNL     1      10.141  11.250  19.474  0.00  0.00    +0.000 A 
ATOM     20  C   UNL     1       9.581   9.990  19.278  0.00  0.00    +0.000 A 
ATOM     21  C   UNL     1       8.593   9.766  18.300  0.00  0.00    +0.000 A 
ATOM     22  C   UNL     1       8.174  10.863  17.527  0.00  0.00    +0.000 A 
ATOM     23  C   UNL     1       8.749  12.130  17.714  0.00  0.00    +0.000 A 
BRANCH  18  25
ATOM     24  C   UNL     1      10.689  14.433  17.523  0.00  0.00    +0.000 C 
ATOM     25  C   UNL     1      10.439  13.735  18.884  0.00  0.00    +0.000 C 
ATOM     26  C   UNL     1      11.783  13.574  19.617  0.00  0.00    +0.000 C 
ATOM     27  C   UNL     1       9.553  14.689  19.708  0.00  0.00    +0.000 C 
ENDBRANCH  18  25
ENDBRANCH   1  21
TORSDOF 3
ENDMDL
MODEL 2
REMARK VINA RESULT:      -7.8      0.384      1.039
REMARK  Name = 
REMARK  6 active torsions:
REMARK  status: ('A' for Active; 'I' for Inactive)
REMARK    1  A    between atoms: C_1  and  C_2
REMARK    2  A    between atoms: C_2  and  C_3
REMARK    3  A    between atoms: C_2  and  C_4
REMARK    4  A    between atoms: C_2  and  C_5
REMARK    5  A    between atoms: C_8  and  C_9
REMARK    6  A    between atoms: N_11  and  C_12
REMARK                            x       y       z     vdW  Elec       q    Type
REMARK                         _______ _______ _______ _____ _____    ______ ____
ROOT
ATOM      1  C   UNL     1       8.112   8.360  18.210  0.00  0.00    +0.000 C 
ATOM      2  O   UNL     1       8.579   7.500  18.943  0.00  0.00    +0.000 OA
ATOM      3  N   UNL     1       7.191   8.009  17.250  0.00  0.00    +0.000 N 
ATOM      4  H   UNL     1       6.890   8.721  16.572  0.00  0.00    +0.000 HD
ENDROOT
BRANCH   3   5
ATOM      5  C   UNL     1       6.641   6.684  17.080  0.00  0.00    +0.000 A 
ATOM      6  C   UNL     1       7.259   5.697  16.246  0.00  0.00    +0.000 A 
ATOM      7  C   UNL     1       6.696   4.428  16.070  0.00  0.00    +0.000 A 
ATOM      8  C   UNL     1       5.523   4.147  16.739  0.00  0.00    +0.000 A 
ATOM      9  N   UNL     1       4.809   3.021  16.698  0.00  0.00    +0.000 N 
ATOM     10  C   UNL     1       3.763   3.264  17.515  0.00  0.00    +0.000 A 
ATOM     11  N   UNL     1       2.741   2.318  17.749  0.00  0.00    +0.000 N 
ATOM     12  N   UNL     1       3.790   4.502  18.077  0.00  0.00    +0.000 NA
ATOM     13  C   UNL     1       4.917   5.047  17.561  0.00  0.00    +0.000 A 
ATOM     14  C   UNL     1       5.449   6.329  17.773  0.00  0.00    +0.000 A 
ATOM     15  H   UNL     1       5.015   2.151  16.155  0.00  0.00    +0.000 HD
ATOM     16  H   UNL     1       2.777   1.399  17.280  0.00  0.00    +0.000 HD
ATOM     17  H   UNL     1       1.952   2.537  18.370  0.00  0.00    +0.000 HD
ENDBRANCH   3   5
BRANCH   1  21
ATOM     18  C   UNL     1       9.763  12.343  18.867  0.00  0.00    +0.000 A 
ATOM     19  C   UNL     1       9.986  11.274  19.757  0.00  0.00    +0.000 A 
ATOM     20  C   UNL     1       9.450  10.011  19.522  0.00  0.00    +0.000 A 
ATOM     21  C   UNL     1       8.645   9.749  18.396  0.00  0.00    +0.000 A 
ATOM     22  C   UNL     1       8.384  10.812  17.514  0.00  0.00    +0.000 A 
ATOM     23  C   UNL     1       8.937  12.082  17.743  0.00  0.00    +0.000 A 
BRANCH  18  25
ATOM     24  C   UNL     1      10.086  14.254  20.538  0.00  0.00    +0.000 C 
ATOM     25  C   UNL     1      10.421  13.727  19.119  0.00  0.00    +0.000 C 
ATOM     26  C   UNL     1       9.937  14.752  18.079  0.00  0.00    +0.000 C 
ATOM     27  C   UNL     1      11.957  13.646  19.035  0.00  0.00    +0.000 C 
ENDBRANCH  18  25
ENDBRANCH   1  21
TORSDOF 3
ENDMDL
MODEL 3
REMARK VINA RESULT:      -7.6      5.999      7.887
REMARK  Name = 
REMARK  6 active torsions:
REMARK  status: ('A' for Active; 'I' for Inactive)
REMARK    1  A    between atoms: C_1  and  C_2
REMARK    2  A    between atoms: C_2  and  C_3
REMARK    3  A    between atoms: C_2  and  C_4
REMARK    4  A    between atoms: C_2  and  C_5
REMARK    5  A    between atoms: C_8  and  C_9
REMARK    6  A    between atoms: N_11  and  C_12
REMARK                            x       y       z     vdW  Elec       q    Type
REMARK                         _______ _______ _______ _____ _____    ______ ____
ROOT
ATOM      1  C   UNL     1       1.844   8.536  18.571  0.00  0.00    +0.000 C 
ATOM      2  O   UNL     1       1.951   8.896  17.408  0.00  0.00    +0.000 OA
ATOM      3  N   UNL     1       2.397   7.340  18.967  0.00  0.00    +0.000 N 
ATOM      4  H   UNL     1       2.206   6.999  19.919  0.00  0.00    +0.000 HD
ENDROOT
BRANCH   3   5
ATOM      5  C   UNL     1       3.192   6.479  18.122  0.00  0.00    +0.000 A 
ATOM      6  C   UNL     1       2.920   5.081  17.976  0.00  0.00    +0.000 A 
ATOM      7  C   UNL     1       3.719   4.257  17.176  0.00  0.00    +0.000 A 
ATOM      8  C   UNL     1       4.781   4.838  16.516  0.00  0.00    +0.000 A 
ATOM      9  N   UNL     1       5.677   4.242  15.727  0.00  0.00    +0.000 N 
ATOM     10  C   UNL     1       6.498   5.244  15.346  0.00  0.00    +0.000 A 
ATOM     11  N   UNL     1       7.611   5.039  14.499  0.00  0.00    +0.000 N 
ATOM     12  N   UNL     1       6.152   6.454  15.859  0.00  0.00    +0.000 NA
ATOM     13  C   UNL     1       5.060   6.168  16.607  0.00  0.00    +0.000 A 
ATOM     14  C   UNL     1       4.281   7.033  17.391  0.00  0.00    +0.000 A 
ATOM     15  H   UNL     1       5.730   3.231  15.467  0.00  0.00    +0.000 HD
ATOM     16  H   UNL     1       7.822   4.090  14.153  0.00  0.00    +0.000 HD
ATOM     17  H   UNL     1       8.222   5.821  14.234  0.00  0.00    +0.000 HD
ENDBRANCH   3   5
BRANCH   1  21
ATOM     18  C   UNL     1      -0.502  11.241  21.061  0.00  0.00    +0.000 A 
ATOM     19  C   UNL     1      -0.140  11.553  19.737  0.00  0.00    +0.000 A 
ATOM     20  C   UNL     1       0.607  10.670  18.962  0.00  0.00    +0.000 A 
ATOM     21  C   UNL     1       1.052   9.435  19.473  0.00  0.00    +0.000 A 
ATOM     22  C   UNL     1       0.729   9.121  20.804  0.00  0.00    +0.000 A 
ATOM     23  C   UNL     1      -0.037  10.005  21.581  0.00  0.00    +0.000 A 
BRANCH  18  25
ATOM     24  C   UNL     1      -1.892  11.545  23.188  0.00  0.00    +0.000 C 
ATOM     25  C   UNL     1      -1.386  12.216  21.886  0.00  0.00    +0.000 C 
ATOM     26  C   UNL     1      -2.598  12.678  21.058  0.00  0.00    +0.000 C 
ATOM     27  C   UNL     1      -0.595  13.467  22.318  0.00  0.00    +0.000 C 
ENDBRANCH  18  25
ENDBRANCH   1  21
TORSDOF 3
ENDMDL
MODEL 4
REMARK VINA RESULT:      -7.6      0.479      1.268
REMARK  Name = 
REMARK  6 active torsions:
REMARK  status: ('A' for Active; 'I' for Inactive)
REMARK    1  A    between atoms: C_1  and  C_2
REMARK    2  A    between atoms: C_2  and  C_3
REMARK    3  A    between atoms: C_2  and  C_4
REMARK    4  A    between atoms: C_2  and  C_5
REMARK    5  A    between atoms: C_8  and  C_9
REMARK    6  A    between atoms: N_11  and  C_12
REMARK                            x       y       z     vdW  Elec       q    Type
REMARK                         _______ _______ _______ _____ _____    ______ ____
ROOT
ATOM      1  C   UNL     1       8.136   8.522  18.171  0.00  0.00    +0.000 C 
ATOM      2  O   UNL     1       8.601   7.680  18.926  0.00  0.00    +0.000 OA
ATOM      3  N   UNL     1       7.192   8.155  17.240  0.00  0.00    +0.000 N 
ATOM      4  H   UNL     1       6.891   8.849  16.542  0.00  0.00    +0.000 HD
ENDROOT
BRANCH   3   5
ATOM      5  C   UNL     1       6.618   6.834  17.123  0.00  0.00    +0.000 A 
ATOM      6  C   UNL     1       7.341   5.728  16.571  0.00  0.00    +0.000 A 
ATOM      7  C   UNL     1       6.759   4.463  16.439  0.00  0.00    +0.000 A 
ATOM      8  C   UNL     1       5.458   4.306  16.872  0.00  0.00    +0.000 A 
ATOM      9  N   UNL     1       4.708   3.204  16.821  0.00  0.00    +0.000 N 
ATOM     10  C   UNL     1       3.529   3.583  17.359  0.00  0.00    +0.000 A 
ATOM     11  N   UNL     1       2.431   2.704  17.486  0.00  0.00    +0.000 N 
ATOM     12  N   UNL     1       3.507   4.884  17.754  0.00  0.00    +0.000 NA
ATOM     13  C   UNL     1       4.744   5.324  17.427  0.00  0.00    +0.000 A 
ATOM     14  C   UNL     1       5.290   6.608  17.585  0.00  0.00    +0.000 A 
ATOM     15  H   UNL     1       4.974   2.264  16.448  0.00  0.00    +0.000 HD
ATOM     16  H   UNL     1       2.513   1.730  17.155  0.00  0.00    +0.000 HD
ATOM     17  H   UNL     1       1.544   3.026  17.892  0.00  0.00    +0.000 HD
ENDBRANCH   3   5
BRANCH   1  21
ATOM     18  C   UNL     1       9.623  12.611  18.470  0.00  0.00    +0.000 A 
ATOM     19  C   UNL     1       8.568  12.250  17.611  0.00  0.00    +0.000 A 
ATOM     20  C   UNL     1       8.110  10.938  17.537  0.00  0.00    +0.000 A 
ATOM     21  C   UNL     1       8.693   9.908  18.301  0.00  0.00    +0.000 A 
ATOM     22  C   UNL     1       9.770  10.244  19.140  0.00  0.00    +0.000 A 
ATOM     23  C   UNL     1      10.223  11.570  19.226  0.00  0.00    +0.000 A 
BRANCH  18  25
ATOM     24  C   UNL     1       8.864  15.055  18.523  0.00  0.00    +0.000 C 
ATOM     25  C   UNL     1      10.078  14.092  18.580  0.00  0.00    +0.000 C 
ATOM     26  C   UNL     1      11.049  14.444  17.439  0.00  0.00    +0.000 C 
ATOM     27  C   UNL     1      10.790  14.367  19.918  0.00  0.00    +0.000 C 
ENDBRANCH  18  25
ENDBRANCH   1  21
TORSDOF 3
ENDMDL
MODEL 5
REMARK VINA RESULT:      -7.6      6.042      7.842
REMARK  Name = 
REMARK  6 active torsions:
REMARK  status: ('A' for Active; 'I' for Inactive)
REMARK    1  A    between atoms: C_1  and  C_2
REMARK    2  A    between atoms: C_2  and  C_3
REMARK    3  A    between atoms: C_2  and  C_4
REMARK    4  A    between atoms: C_2  and  C_5
REMARK    5  A    between atoms: C_8  and  C_9
REMARK    6  A    between atoms: N_11  and  C_12
REMARK                            x       y       z     vdW  Elec       q    Type
REMARK                         _______ _______ _______ _____ _____    ______ ____
ROOT
ATOM      1  C   UNL     1       1.805   8.705  18.457  0.00  0.00    +0.000 C 
ATOM      2  O   UNL     1       2.074   9.090  17.328  0.00  0.00    +0.000 OA
ATOM      3  N   UNL     1       2.236   7.467  18.875  0.00  0.00    +0.000 N 
ATOM      4  H   UNL     1       1.910   7.113  19.784  0.00  0.00    +0.000 HD
ENDROOT
BRANCH   3   5
ATOM      5  C   UNL     1       3.079   6.584  18.103  0.00  0.00    +0.000 A 
ATOM      6  C   UNL     1       2.837   5.175  18.012  0.00  0.00    +0.000 A 
ATOM      7  C   UNL     1       3.682   4.331  17.284  0.00  0.00    +0.000 A 
ATOM      8  C   UNL     1       4.760   4.901  16.639  0.00  0.00    +0.000 A 
ATOM      9  N   UNL     1       5.697   4.287  15.915  0.00  0.00    +0.000 N 
ATOM     10  C   UNL     1       6.515   5.284  15.521  0.00  0.00    +0.000 A 
ATOM     11  N   UNL     1       7.664   5.062  14.729  0.00  0.00    +0.000 N 
ATOM     12  N   UNL     1       6.128   6.511  15.963  0.00  0.00    +0.000 NA
ATOM     13  C   UNL     1       5.012   6.239  16.679  0.00  0.00    +0.000 A 
ATOM     14  C   UNL     1       4.187   7.124  17.391  0.00  0.00    +0.000 A 
ATOM     15  H   UNL     1       5.778   3.266  15.705  0.00  0.00    +0.000 HD
ATOM     16  H   UNL     1       7.906   4.102  14.436  0.00  0.00    +0.000 HD
ATOM     17  H   UNL     1       8.272   5.842  14.452  0.00  0.00    +0.000 HD
ENDBRANCH   3   5
BRANCH   1  21
ATOM     18  C   UNL     1      -0.610  11.294  21.004  0.00  0.00    +0.000 A 
ATOM     19  C   UNL     1      -0.110  10.053  21.443  0.00  0.00    +0.000 A 
ATOM     20  C   UNL     1       0.662   9.247  20.611  0.00  0.00    +0.000 A 
ATOM     21  C   UNL     1       0.960   9.625  19.287  0.00  0.00    +0.000 A 
ATOM     22  C   UNL     1       0.441  10.845  18.820  0.00  0.00    +0.000 A 
ATOM     23  C   UNL     1      -0.324  11.665  19.664  0.00  0.00    +0.000 A 
BRANCH  18  25
ATOM     24  C   UNL     1      -0.613  13.473  22.346  0.00  0.00    +0.000 C 
ATOM     25  C   UNL     1      -1.418  12.203  21.970  0.00  0.00    +0.000 C 
ATOM     26  C   UNL     1      -1.776  11.439  23.257  0.00  0.00    +0.000 C 
ATOM     27  C   UNL     1      -2.728  12.692  21.322  0.00  0.00    +0.000 C 
ENDBRANCH  18  25
ENDBRANCH   1  21
TORSDOF 3
ENDMDL
MODEL 6
REMARK VINA RESULT:      -7.5      6.714      8.386
REMARK  Name = 
REMARK  6 active torsions:
REMARK  status: ('A' for Active; 'I' for Inactive)
REMARK    1  A    between atoms: C_1  and  C_2
REMARK    2  A    between atoms: C_2  and  C_3
REMARK    3  A    between atoms: C_2  and  C_4
REMARK    4  A    between atoms: C_2  and  C_5
REMARK    5  A    between atoms: C_8  and  C_9
REMARK    6  A    between atoms: N_11  and  C_12
REMARK                            x       y       z     vdW  Elec       q    Type
REMARK                         _______ _______ _______ _____ _____    ______ ____
ROOT
ATOM      1  C   UNL     1       1.311   8.373  20.211  0.00  0.00    +0.000 C 
ATOM      2  O   UNL     1       1.677   8.628  19.073  0.00  0.00    +0.000 OA
ATOM      3  N   UNL     1       1.614   7.152  20.767  0.00  0.00    +0.000 N 
ATOM      4  H   UNL     1       1.208   6.912  21.681  0.00  0.00    +0.000 HD
ENDROOT
BRANCH   3   5
ATOM      5  C   UNL     1       2.427   6.138  20.136  0.00  0.00    +0.000 A 
ATOM      6  C   UNL     1       3.586   6.456  19.358  0.00  0.00    +0.000 A 
ATOM      7  C   UNL     1       4.344   5.462  18.730  0.00  0.00    +0.000 A 
ATOM      8  C   UNL     1       3.945   4.151  18.892  0.00  0.00    +0.000 A 
ATOM      9  N   UNL     1       4.502   3.058  18.369  0.00  0.00    +0.000 N 
ATOM     10  C   UNL     1       3.733   2.046  18.825  0.00  0.00    +0.000 A 
ATOM     11  N   UNL     1       3.973   0.694  18.492  0.00  0.00    +0.000 N 
ATOM     12  N   UNL     1       2.712   2.459  19.623  0.00  0.00    +0.000 NA
ATOM     13  C   UNL     1       2.865   3.803  19.644  0.00  0.00    +0.000 A 
ATOM     14  C   UNL     1       2.080   4.766  20.298  0.00  0.00    +0.000 A 
ATOM     15  H   UNL     1       5.340   3.000  17.747  0.00  0.00    +0.000 HD
ATOM     16  H   UNL     1       4.761   0.453  17.871  0.00  0.00    +0.000 HD
ATOM     17  H   UNL     1       3.364  -0.052  18.848  0.00  0.00    +0.000 HD
ENDBRANCH   3   5
BRANCH   1  21
ATOM     18  C   UNL     1      -1.093  11.511  22.055  0.00  0.00    +0.000 A 
ATOM     19  C   UNL     1      -0.658  11.578  20.718  0.00  0.00    +0.000 A 
ATOM     20  C   UNL     1       0.106  10.561  20.152  0.00  0.00    +0.000 A 
ATOM     21  C   UNL     1       0.496   9.430  20.897  0.00  0.00    +0.000 A 
ATOM     22  C   UNL     1       0.099   9.362  22.243  0.00  0.00    +0.000 A 
ATOM     23  C   UNL     1      -0.684  10.380  22.809  0.00  0.00    +0.000 A 
BRANCH  18  25
ATOM     24  C   UNL     1      -1.145  13.708  23.368  0.00  0.00    +0.000 C 
ATOM     25  C   UNL     1      -1.994  12.630  22.647  0.00  0.00    +0.000 C 
ATOM     26  C   UNL     1      -3.004  12.038  23.645  0.00  0.00    +0.000 C 
ATOM     27  C   UNL     1      -2.782  13.362  21.543  0.00  0.00    +0.000 C 
ENDBRANCH  18  25
ENDBRANCH   1  21
TORSDOF 3
ENDMDL
MODEL 7
REMARK VINA RESULT:      -7.5      6.426      8.244
REMARK  Name = 
REMARK  6 active torsions:
REMARK  status: ('A' for Active; 'I' for Inactive)
REMARK    1  A    between atoms: C_1  and  C_2
REMARK    2  A    between atoms: C_2  and  C_3
REMARK    3  A    between atoms: C_2  and  C_4
REMARK    4  A    between atoms: C_2  and  C_5
REMARK    5  A    between atoms: C_8  and  C_9
REMARK    6  A    between atoms: N_11  and  C_12
REMARK                            x       y       z     vdW  Elec       q    Type
REMARK                         _______ _______ _______ _____ _____    ______ ____
ROOT
ATOM      1  C   UNL     1       1.533   8.087  20.145  0.00  0.00    +0.000 C 
ATOM      2  O   UNL     1       1.796   7.126  20.854  0.00  0.00    +0.000 OA
ATOM      3  N   UNL     1       2.035   8.147  18.865  0.00  0.00    +0.000 N 
ATOM      4  H   UNL     1       1.895   9.009  18.321  0.00  0.00    +0.000 HD
ENDROOT
BRANCH   3   5
ATOM      5  C   UNL     1       2.804   7.102  18.231  0.00  0.00    +0.000 A 
ATOM      6  C   UNL     1       2.396   5.729  18.248  0.00  0.00    +0.000 A 
ATOM      7  C   UNL     1       3.170   4.726  17.653  0.00  0.00    +0.000 A 
ATOM      8  C   UNL     1       4.343   5.102  17.034  0.00  0.00    +0.000 A 
ATOM      9  N   UNL     1       5.236   4.316  16.430  0.00  0.00    +0.000 N 
ATOM     10  C   UNL     1       6.191   5.169  16.004  0.00  0.00    +0.000 A 
ATOM     11  N   UNL     1       7.346   4.740  15.313  0.00  0.00    +0.000 N 
ATOM     12  N   UNL     1       5.934   6.469  16.311  0.00  0.00    +0.000 NA
ATOM     13  C   UNL     1       4.755   6.399  16.973  0.00  0.00    +0.000 A 
ATOM     14  C   UNL     1       4.008   7.438  17.549  0.00  0.00    +0.000 A 
ATOM     15  H   UNL     1       5.202   3.278  16.316  0.00  0.00    +0.000 HD
ATOM     16  H   UNL     1       7.484   3.735  15.121  0.00  0.00    +0.000 HD
ATOM     17  H   UNL     1       8.059   5.413  15.009  0.00  0.00    +0.000 HD
ENDBRANCH   3   5
BRANCH   1  21
ATOM     18  C   UNL     1      -0.911  11.285  21.824  0.00  0.00    +0.000 A 
ATOM     19  C   UNL     1      -0.481  11.285  20.484  0.00  0.00    +0.000 A 
ATOM     20  C   UNL     1       0.296  10.250  19.971  0.00  0.00    +0.000 A 
ATOM     21  C   UNL     1       0.704   9.167  20.774  0.00  0.00    +0.000 A 
ATOM     22  C   UNL     1       0.312   9.166  22.124  0.00  0.00    +0.000 A 
ATOM     23  C   UNL     1      -0.484  10.202  22.637  0.00  0.00    +0.000 A 
BRANCH  18  25
ATOM     24  C   UNL     1      -2.769  11.901  23.474  0.00  0.00    +0.000 C 
ATOM     25  C   UNL     1      -1.827  12.421  22.357  0.00  0.00    +0.000 C 
ATOM     26  C   UNL     1      -2.678  13.007  21.218  0.00  0.00    +0.000 C 
ATOM     27  C   UNL     1      -1.003  13.565  22.980  0.00  0.00    +0.000 C 
ENDBRANCH  18  25
ENDBRANCH   1  21
TORSDOF 3
ENDMDL
MODEL 8
REMARK VINA RESULT:      -7.4      6.512      8.223
REMARK  Name = 
REMARK  6 active torsions:
REMARK  status: ('A' for Active; 'I' for Inactive)
REMARK    1  A    between atoms: C_1  and  C_2
REMARK    2  A    between atoms: C_2  and  C_3
REMARK    3  A    between atoms: C_2  and  C_4
REMARK    4  A    between atoms: C_2  and  C_5
REMARK    5  A    between atoms: C_8  and  C_9
REMARK    6  A    between atoms: N_11  and  C_12
REMARK                            x       y       z     vdW  Elec       q    Type
REMARK                         _______ _______ _______ _____ _____    ______ ____
ROOT
ATOM      1  C   UNL     1       1.486   8.336  20.015  0.00  0.00    +0.000 C 
ATOM      2  O   UNL     1       1.923   7.536  20.831  0.00  0.00    +0.000 OA
ATOM      3  N   UNL     1       1.865   8.238  18.696  0.00  0.00    +0.000 N 
ATOM      4  H   UNL     1       1.577   8.980  18.044  0.00  0.00    +0.000 HD
ENDROOT
BRANCH   3   5
ATOM      5  C   UNL     1       2.694   7.188  18.152  0.00  0.00    +0.000 A 
ATOM      6  C   UNL     1       2.331   5.805  18.225  0.00  0.00    +0.000 A 
ATOM      7  C   UNL     1       3.162   4.800  17.718  0.00  0.00    +0.000 A 
ATOM      8  C   UNL     1       4.349   5.183  17.130  0.00  0.00    +0.000 A 
ATOM      9  N   UNL     1       5.292   4.398  16.607  0.00  0.00    +0.000 N 
ATOM     10  C   UNL     1       6.237   5.261  16.177  0.00  0.00    +0.000 A 
ATOM     11  N   UNL     1       7.435   4.836  15.559  0.00  0.00    +0.000 N 
ATOM     12  N   UNL     1       5.924   6.565  16.402  0.00  0.00    +0.000 NA
ATOM     13  C   UNL     1       4.721   6.489  17.017  0.00  0.00    +0.000 A 
ATOM     14  C   UNL     1       3.916   7.530  17.504  0.00  0.00    +0.000 A 
ATOM     15  H   UNL     1       5.297   3.355  16.547  0.00  0.00    +0.000 HD
ATOM     16  H   UNL     1       7.613   3.827  15.428  0.00  0.00    +0.000 HD
ATOM     17  H   UNL     1       8.139   5.517  15.250  0.00  0.00    +0.000 HD
ENDBRANCH   3   5
BRANCH   1  21
ATOM     18  C   UNL     1      -1.057  11.430  21.741  0.00  0.00    +0.000 A 
ATOM     19  C   UNL     1      -0.452  10.426  22.520  0.00  0.00    +0.000 A 
ATOM     20  C   UNL     1       0.359   9.452  21.945  0.00  0.00    +0.000 A 
ATOM     21  C   UNL     1       0.594   9.413  20.556  0.00  0.00    +0.000 A 
ATOM     22  C   UNL     1      -0.030  10.387  19.758  0.00  0.00    +0.000 A 
ATOM     23  C   UNL     1      -0.835  11.379  20.340  0.00  0.00    +0.000 A 
BRANCH  18  25
ATOM     24  C   UNL     1      -1.005  13.628  23.052  0.00  0.00    +0.000 C 
ATOM     25  C   UNL     1      -1.909  12.542  22.413  0.00  0.00    +0.000 C 
ATOM     26  C   UNL     1      -2.817  11.942  23.501  0.00  0.00    +0.000 C 
ATOM     27  C   UNL     1      -2.802  13.266  21.387  0.00  0.00    +0.000 C 
ENDBRANCH  18  25
ENDBRANCH   1  21
TORSDOF 3
ENDMDL
MODEL 9
REMARK VINA RESULT:      -7.4      6.276      7.993
REMARK  Name = 
REMARK  6 active torsions:
REMARK  status: ('A' for Active; 'I' for Inactive)
REMARK    1  A    between atoms: C_1  and  C_2
REMARK    2  A    between atoms: C_2  and  C_3
REMARK    3  A    between atoms: C_2  and  C_4
REMARK    4  A    between atoms: C_2  and  C_5
REMARK    5  A    between atoms: C_8  and  C_9
REMARK    6  A    between atoms: N_11  and  C_12
REMARK                            x       y       z     vdW  Elec       q    Type
REMARK                         _______ _______ _______ _____ _____    ______ ____
ROOT
ATOM      1  C   UNL     1       1.516   8.891  18.506  0.00  0.00    +0.000 C 
ATOM      2  O   UNL     1       1.740   9.217  17.349  0.00  0.00    +0.000 OA
ATOM      3  N   UNL     1       1.994   7.691  18.980  0.00  0.00    +0.000 N 
ATOM      4  H   UNL     1       1.706   7.381  19.918  0.00  0.00    +0.000 HD
ENDROOT
BRANCH   3   5
ATOM      5  C   UNL     1       2.837   6.786  18.233  0.00  0.00    +0.000 A 
ATOM      6  C   UNL     1       2.535   5.394  18.091  0.00  0.00    +0.000 A 
ATOM      7  C   UNL     1       3.379   4.527  17.388  0.00  0.00    +0.000 A 
ATOM      8  C   UNL     1       4.518   5.059  16.821  0.00  0.00    +0.000 A 
ATOM      9  N   UNL     1       5.465   4.418  16.135  0.00  0.00    +0.000 N 
ATOM     10  C   UNL     1       6.351   5.384  15.814  0.00  0.00    +0.000 A 
ATOM     11  N   UNL     1       7.532   5.125  15.083  0.00  0.00    +0.000 N 
ATOM     12  N   UNL     1       5.997   6.617  16.267  0.00  0.00    +0.000 NA
ATOM     13  C   UNL     1       4.830   6.382  16.911  0.00  0.00    +0.000 A 
ATOM     14  C   UNL     1       4.009   7.289  17.599  0.00  0.00    +0.000 A 
ATOM     15  H   UNL     1       5.510   3.400  15.902  0.00  0.00    +0.000 HD
ATOM     16  H   UNL     1       7.745   4.162  14.778  0.00  0.00    +0.000 HD
ATOM     17  H   UNL     1       8.191   5.882  14.861  0.00  0.00    +0.000 HD
ENDBRANCH   3   5
BRANCH   1  21
ATOM     18  C   UNL     1      -0.822  11.639  20.956  0.00  0.00    +0.000 A 
ATOM     19  C   UNL     1       0.285  10.929  21.460  0.00  0.00    +0.000 A 
ATOM     20  C   UNL     1       1.017  10.061  20.656  0.00  0.00    +0.000 A 
ATOM     21  C   UNL     1       0.672   9.835  19.308  0.00  0.00    +0.000 A 
ATOM     22  C   UNL     1      -0.451  10.509  18.797  0.00  0.00    +0.000 A 
ATOM     23  C   UNL     1      -1.180  11.397  19.604  0.00  0.00    +0.000 A 
BRANCH  18  25
ATOM     24  C   UNL     1      -2.340  11.917  22.998  0.00  0.00    +0.000 C 
ATOM     25  C   UNL     1      -1.587  12.647  21.856  0.00  0.00    +0.000 C 
ATOM     26  C   UNL     1      -2.600  13.452  21.024  0.00  0.00    +0.000 C 
ATOM     27  C   UNL     1      -0.625  13.641  22.534  0.00  0.00    +0.000 C 
ENDBRANCH  18  25
ENDBRANCH   1  21
TORSDOF 3
ENDMDL
