MODEL 1
REMARK VINA RESULT:      -7.4      0.000      0.000
REMARK  Name = 
REMARK  5 active torsions:
REMARK  status: ('A' for Active; 'I' for Inactive)
REMARK    1  A    between atoms: C_1  and  N_2
REMARK    2  A    between atoms: C_4  and  S_5
REMARK    3  A    between atoms: S_5  and  N_8
REMARK    4  A    between atoms: N_8  and  C_9
REMARK    5  A    between atoms: C_15  and  N_16
REMARK                            x       y       z     vdW  Elec       q    Type
REMARK                         _______ _______ _______ _____ _____    ______ ____
ROOT
ATOM      1  C   UNL     1       2.608   6.345  18.676  0.00  0.00    +0.000 A 
ATOM      2  C   UNL     1       2.608   7.684  18.237  0.00  0.00    +0.000 A 
ATOM      3  F   UNL     1       3.118   7.996  17.036  0.00  0.00    +0.000 F 
ATOM      4  C   UNL     1       2.025   8.694  18.987  0.00  0.00    +0.000 A 
ATOM      5  C   UNL     1       1.449   8.371  20.204  0.00  0.00    +0.000 A 
ATOM      6  C   UNL     1       1.473   7.042  20.665  0.00  0.00    +0.000 A 
ATOM      7  C   UNL     1       2.061   5.979  19.938  0.00  0.00    +0.000 A 
ENDROOT
BRANCH   7   8
ATOM      8  N   UNL     1       1.989   4.674  20.414  0.00  0.00    +0.000 N 
ATOM      9  C   UNL     1       2.500   4.199  21.700  0.00  0.00    +0.000 C 
ATOM     10  C   UNL     1       2.498   2.695  21.500  0.00  0.00    +0.000 C 
ATOM     11  C   UNL     1       1.173   2.461  20.807  0.00  0.00    +0.000 C 
ATOM     12  C   UNL     1       0.909   3.753  20.019  0.00  0.00    +0.000 C 
ENDBRANCH   7   8
BRANCH   1  13
ATOM     13  N   UNL     1       3.137   5.367  17.772  0.00  0.00    +0.000 N 
ATOM     14  H   UNL     1       2.459   4.635  17.565  0.00  0.00    +0.000 HD
BRANCH  13  15
ATOM     15  S   UNL     1       4.638   4.712  18.191  0.00  0.00    +0.000 S 
ATOM     16  O   UNL     1       4.403   3.319  18.501  0.00  0.00    +0.000 OA
ATOM     17  O   UNL     1       5.335   5.581  19.119  0.00  0.00    +0.000 OA
BRANCH  15  21
ATOM     18  C   UNL     1       6.548   3.989  13.423  0.00  0.00    +0.000 C 
ATOM     19  N   UNL     1       6.404   4.325  14.819  0.00  0.00    +0.000 N 
ATOM     20  C   UNL     1       5.262   4.258  15.551  0.00  0.00    +0.000 A 
ATOM     21  C   UNL     1       5.629   4.647  16.819  0.00  0.00    +0.000 A 
ATOM     22  C   UNL     1       6.997   4.925  16.754  0.00  0.00    +0.000 A 
ATOM     23  N   UNL     1       7.481   4.732  15.523  0.00  0.00    +0.000 NA
ENDBRANCH  15  21
ENDBRANCH  13  15
ENDBRANCH   1  13
TORSDOF 4
ENDMDL
MODEL 2
REMARK VINA RESULT:      -6.9      1.789      3.606
REMARK  Name = 
REMARK  5 active torsions:
REMARK  status: ('A' for Active; 'I' for Inactive)
REMARK    1  A    between atoms: C_1  and  N_2
REMARK    2  A    between atoms: C_4  and  S_5
REMARK    3  A    between atoms: S_5  and  N_8
REMARK    4  A    between atoms: N_8  and  C_9
REMARK    5  A    between atoms: C_15  and  N_16
REMARK                            x       y       z     vdW  Elec       q    Type
REMARK                         _______ _______ _______ _____ _____    ______ ____
ROOT
ATOM      1  C   UNL     1       3.116   4.168  19.080  0.00  0.00    +0.000 A 
ATOM      2  C   UNL     1       3.252   2.888  19.653  0.00  0.00    +0.000 A 
ATOM      3  F   UNL     1       3.912   1.924  18.991  0.00  0.00    +0.000 F 
ATOM      4  C   UNL     1       2.782   2.607  20.926  0.00  0.00    +0.000 A 
ATOM      5  C   UNL     1       2.147   3.612  21.637  0.00  0.00    +0.000 A 
ATOM      6  C   UNL     1       1.978   4.885  21.061  0.00  0.00    +0.000 A 
ATOM      7  C   UNL     1       2.436   5.216  19.763  0.00  0.00    +0.000 A 
ENDROOT
BRANCH   7   8
ATOM      8  N   UNL     1       2.302   6.513  19.277  0.00  0.00    +0.000 N 
ATOM      9  C   UNL     1       1.974   6.885  17.902  0.00  0.00    +0.000 C 
ATOM     10  C   UNL     1       2.346   8.356  17.880  0.00  0.00    +0.000 C 
ATOM     11  C   UNL     1       1.800   8.849  19.201  0.00  0.00    +0.000 C 
ATOM     12  C   UNL     1       1.873   7.631  20.135  0.00  0.00    +0.000 C 
ENDBRANCH   7   8
BRANCH   1  13
ATOM     13  N   UNL     1       3.738   4.378  17.807  0.00  0.00    +0.000 N 
ATOM     14  H   UNL     1       3.657   3.560  17.204  0.00  0.00    +0.000 HD
BRANCH  13  15
ATOM     15  S   UNL     1       5.327   4.953  17.849  0.00  0.00    +0.000 S 
ATOM     16  O   UNL     1       6.087   3.994  18.620  0.00  0.00    +0.000 OA
ATOM     17  O   UNL     1       5.351   6.366  18.172  0.00  0.00    +0.000 OA
BRANCH  15  21
ATOM     18  C   UNL     1       6.406   3.718  12.929  0.00  0.00    +0.000 C 
ATOM     19  N   UNL     1       6.443   4.300  14.248  0.00  0.00    +0.000 N 
ATOM     20  C   UNL     1       5.533   4.110  15.239  0.00  0.00    +0.000 A 
ATOM     21  C   UNL     1       6.009   4.842  16.303  0.00  0.00    +0.000 A 
ATOM     22  C   UNL     1       7.197   5.432  15.863  0.00  0.00    +0.000 A 
ATOM     23  N   UNL     1       7.470   5.104  14.595  0.00  0.00    +0.000 NA
ENDBRANCH  15  21
ENDBRANCH  13  15
ENDBRANCH   1  13
TORSDOF 4
ENDMDL
MODEL 3
REMARK VINA RESULT:      -6.9      2.681      6.176
REMARK  Name = 
REMARK  5 active torsions:
REMARK  status: ('A' for Active; 'I' for Inactive)
REMARK    1  A    between atoms: C_1  and  N_2
REMARK    2  A    between atoms: C_4  and  S_5
REMARK    3  A    between atoms: S_5  and  N_8
REMARK    4  A    between atoms: N_8  and  C_9
REMARK    5  A    between atoms: C_15  and  N_16
REMARK                            x       y       z     vdW  Elec       q    Type
REMARK                         _______ _______ _______ _____ _____    ______ ____
ROOT
ATOM      1  C   UNL     1       3.214   4.477  19.515  0.00  0.00    +0.000 A 
ATOM      2  C   UNL     1       2.102   4.054  20.271  0.00  0.00    +0.000 A 
ATOM      3  F   UNL     1       1.446   4.932  21.046  0.00  0.00    +0.000 F 
ATOM      4  C   UNL     1       1.615   2.760  20.185  0.00  0.00    +0.000 A 
ATOM      5  C   UNL     1       2.255   1.863  19.346  0.00  0.00    +0.000 A 
ATOM      6  C   UNL     1       3.385   2.267  18.611  0.00  0.00    +0.000 A 
ATOM      7  C   UNL     1       3.922   3.575  18.671  0.00  0.00    +0.000 A 
ENDROOT
BRANCH   7   8
ATOM      8  N   UNL     1       4.998   3.934  17.866  0.00  0.00    +0.000 N 
ATOM      9  C   UNL     1       4.930   4.297  16.451  0.00  0.00    +0.000 C 
ATOM     10  C   UNL     1       6.385   4.200  16.033  0.00  0.00    +0.000 C 
ATOM     11  C   UNL     1       7.101   4.853  17.195  0.00  0.00    +0.000 C 
ATOM     12  C   UNL     1       6.205   4.578  18.413  0.00  0.00    +0.000 C 
ENDBRANCH   7   8
BRANCH   1  13
ATOM     13  N   UNL     1       3.562   5.864  19.596  0.00  0.00    +0.000 N 
ATOM     14  H   UNL     1       3.387   6.248  20.524  0.00  0.00    +0.000 HD
BRANCH  13  15
ATOM     15  S   UNL     1       2.915   6.858  18.391  0.00  0.00    +0.000 S 
ATOM     16  O   UNL     1       1.904   6.075  17.716  0.00  0.00    +0.000 OA
ATOM     17  O   UNL     1       3.972   7.520  17.651  0.00  0.00    +0.000 OA
BRANCH  15  21
ATOM     18  C   UNL     1       0.250   9.867  21.669  0.00  0.00    +0.000 C 
ATOM     19  N   UNL     1       0.908   9.344  20.497  0.00  0.00    +0.000 N 
ATOM     20  C   UNL     1       1.629   8.195  20.422  0.00  0.00    +0.000 A 
ATOM     21  C   UNL     1       2.027   8.110  19.108  0.00  0.00    +0.000 A 
ATOM     22  C   UNL     1       1.505   9.241  18.474  0.00  0.00    +0.000 A 
ATOM     23  N   UNL     1       0.815  10.008  19.326  0.00  0.00    +0.000 NA
ENDBRANCH  15  21
ENDBRANCH  13  15
ENDBRANCH   1  13
TORSDOF 4
ENDMDL
MODEL 4
REMARK VINA RESULT:      -6.9      2.743      6.076
REMARK  Name = 
REMARK  5 active torsions:
REMARK  status: ('A' for Active; 'I' for Inactive)
REMARK    1  A    between atoms: C_1  and  N_2
REMARK    2  A    between atoms: C_4  and  S_5
REMARK    3  A    between atoms: S_5  and  N_8
REMARK    4  A    between atoms: N_8  and  C_9
REMARK    5  A    between atoms: C_15  and  N_16
REMARK                            x       y       z     vdW  Elec       q    Type
REMARK                         _______ _______ _______ _____ _____    ______ ____
ROOT
ATOM      1  C   UNL     1       3.140   4.530  19.569  0.00  0.00    +0.000 A 
ATOM      2  C   UNL     1       1.961   4.044  20.169  0.00  0.00    +0.000 A 
ATOM      3  F   UNL     1       1.157   4.883  20.841  0.00  0.00    +0.000 F 
ATOM      4  C   UNL     1       1.563   2.725  20.025  0.00  0.00    +0.000 A 
ATOM      5  C   UNL     1       2.360   1.866  19.288  0.00  0.00    +0.000 A 
ATOM      6  C   UNL     1       3.556   2.333  18.712  0.00  0.00    +0.000 A 
ATOM      7  C   UNL     1       4.006   3.669  18.835  0.00  0.00    +0.000 A 
ENDROOT
BRANCH   7   8
ATOM      8  N   UNL     1       5.161   4.089  18.182  0.00  0.00    +0.000 N 
ATOM      9  C   UNL     1       5.275   4.412  16.761  0.00  0.00    +0.000 C 
ATOM     10  C   UNL     1       6.779   4.414  16.562  0.00  0.00    +0.000 C 
ATOM     11  C   UNL     1       7.269   5.147  17.791  0.00  0.00    +0.000 C 
ATOM     12  C   UNL     1       6.226   4.835  18.875  0.00  0.00    +0.000 C 
ENDBRANCH   7   8
BRANCH   1  13
ATOM     13  N   UNL     1       3.396   5.934  19.686  0.00  0.00    +0.000 N 
ATOM     14  H   UNL     1       3.071   6.307  20.578  0.00  0.00    +0.000 HD
BRANCH  13  15
ATOM     15  S   UNL     1       2.871   6.890  18.394  0.00  0.00    +0.000 S 
ATOM     16  O   UNL     1       1.895   6.102  17.675  0.00  0.00    +0.000 OA
ATOM     17  O   UNL     1       3.999   7.495  17.714  0.00  0.00    +0.000 OA
BRANCH  15  21
ATOM     18  C   UNL     1       0.337  11.379  18.969  0.00  0.00    +0.000 C 
ATOM     19  N   UNL     1       0.920  10.080  19.203  0.00  0.00    +0.000 N 
ATOM     20  C   UNL     1       1.574   9.313  18.293  0.00  0.00    +0.000 A 
ATOM     21  C   UNL     1       1.964   8.192  18.987  0.00  0.00    +0.000 A 
ATOM     22  C   UNL     1       1.504   8.370  20.295  0.00  0.00    +0.000 A 
ATOM     23  N   UNL     1       0.857   9.533  20.435  0.00  0.00    +0.000 NA
ENDBRANCH  15  21
ENDBRANCH  13  15
ENDBRANCH   1  13
TORSDOF 4
ENDMDL
MODEL 5
REMARK VINA RESULT:      -6.6      1.535      2.175
REMARK  Name = 
REMARK  5 active torsions:
REMARK  status: ('A' for Active; 'I' for Inactive)
REMARK    1  A    between atoms: C_1  and  N_2
REMARK    2  A    between atoms: C_4  and  S_5
REMARK    3  A    between atoms: S_5  and  N_8
REMARK    4  A    between atoms: N_8  and  C_9
REMARK    5  A    between atoms: C_15  and  N_16
REMARK                            x       y       z     vdW  Elec       q    Type
REMARK                         _______ _______ _______ _____ _____    ______ ____
ROOT
ATOM      1  C   UNL     1       3.123   5.845  18.064  0.00  0.00    +0.000 A 
ATOM      2  C   UNL     1       3.332   7.089  17.437  0.00  0.00    +0.000 A 
ATOM      3  F   UNL     1       3.933   7.143  16.238  0.00  0.00    +0.000 F 
ATOM      4  C   UNL     1       2.867   8.270  17.993  0.00  0.00    +0.000 A 
ATOM      5  C   UNL     1       2.198   8.216  19.205  0.00  0.00    +0.000 A 
ATOM      6  C   UNL     1       2.013   6.982  19.854  0.00  0.00    +0.000 A 
ATOM      7  C   UNL     1       2.475   5.752  19.328  0.00  0.00    +0.000 A 
ENDROOT
BRANCH   7   8
ATOM      8  N   UNL     1       2.198   4.556  19.982  0.00  0.00    +0.000 N 
ATOM      9  C   UNL     1       2.367   4.299  21.412  0.00  0.00    +0.000 C 
ATOM     10  C   UNL     1       2.294   2.785  21.468  0.00  0.00    +0.000 C 
ATOM     11  C   UNL     1       1.146   2.479  20.531  0.00  0.00    +0.000 C 
ATOM     12  C   UNL     1       1.167   3.619  19.501  0.00  0.00    +0.000 C 
ENDBRANCH   7   8
BRANCH   1  13
ATOM     13  N   UNL     1       3.546   4.679  17.347  0.00  0.00    +0.000 N 
ATOM     14  H   UNL     1       2.850   3.935  17.385  0.00  0.00    +0.000 HD
BRANCH  13  15
ATOM     15  S   UNL     1       5.087   4.096  17.730  0.00  0.00    +0.000 S 
ATOM     16  O   UNL     1       5.431   3.145  16.696  0.00  0.00    +0.000 OA
ATOM     17  O   UNL     1       5.165   3.742  19.134  0.00  0.00    +0.000 OA
BRANCH  15  21
ATOM     18  C   UNL     1       8.325   8.089  18.414  0.00  0.00    +0.000 C 
ATOM     19  N   UNL     1       7.565   7.009  17.834  0.00  0.00    +0.000 N 
ATOM     20  C   UNL     1       6.736   6.159  18.495  0.00  0.00    +0.000 A 
ATOM     21  C   UNL     1       6.225   5.332  17.521  0.00  0.00    +0.000 A 
ATOM     22  C   UNL     1       6.798   5.755  16.319  0.00  0.00    +0.000 A 
ATOM     23  N   UNL     1       7.628   6.787  16.504  0.00  0.00    +0.000 NA
ENDBRANCH  15  21
ENDBRANCH  13  15
ENDBRANCH   1  13
TORSDOF 4
ENDMDL
MODEL 6
REMARK VINA RESULT:      -6.5      1.451      1.627
REMARK  Name = 
REMARK  5 active torsions:
REMARK  status: ('A' for Active; 'I' for Inactive)
REMARK    1  A    between atoms: C_1  and  N_2
REMARK    2  A    between atoms: C_4  and  S_5
REMARK    3  A    between atoms: S_5  and  N_8
REMARK    4  A    between atoms: N_8  and  C_9
REMARK    5  A    between atoms: C_15  and  N_16
REMARK                            x       y       z     vdW  Elec       q    Type
REMARK                         _______ _______ _______ _____ _____    ______ ____
ROOT
ATOM      1  C   UNL     1       2.907   6.293  18.590  0.00  0.00    +0.000 A 
ATOM      2  C   UNL     1       2.560   7.629  18.875  0.00  0.00    +0.000 A 
ATOM      3  F   UNL     1       2.914   8.609  18.029  0.00  0.00    +0.000 F 
ATOM      4  C   UNL     1       1.792   7.960  19.980  0.00  0.00    +0.000 A 
ATOM      5  C   UNL     1       1.377   6.947  20.829  0.00  0.00    +0.000 A 
ATOM      6  C   UNL     1       1.745   5.614  20.570  0.00  0.00    +0.000 A 
ATOM      7  C   UNL     1       2.533   5.229  19.459  0.00  0.00    +0.000 A 
ENDROOT
BRANCH   7   8
ATOM      8  N   UNL     1       2.804   3.886  19.218  0.00  0.00    +0.000 N 
ATOM      9  C   UNL     1       3.510   2.977  20.119  0.00  0.00    +0.000 C 
ATOM     10  C   UNL     1       3.841   1.819  19.197  0.00  0.00    +0.000 C 
ATOM     11  C   UNL     1       2.557   1.647  18.416  0.00  0.00    +0.000 C 
ATOM     12  C   UNL     1       1.939   3.053  18.364  0.00  0.00    +0.000 C 
ENDBRANCH   7   8
BRANCH   1  13
ATOM     13  N   UNL     1       3.607   6.053  17.363  0.00  0.00    +0.000 N 
ATOM     14  H   UNL     1       3.304   5.189  16.915  0.00  0.00    +0.000 HD
BRANCH  13  15
ATOM     15  S   UNL     1       5.293   6.140  17.447  0.00  0.00    +0.000 S 
ATOM     16  O   UNL     1       5.694   5.252  18.515  0.00  0.00    +0.000 OA
ATOM     17  O   UNL     1       5.736   7.521  17.410  0.00  0.00    +0.000 OA
BRANCH  15  21
ATOM     18  C   UNL     1       6.053   3.606  12.986  0.00  0.00    +0.000 C 
ATOM     19  N   UNL     1       6.255   4.350  14.205  0.00  0.00    +0.000 N 
ATOM     20  C   UNL     1       5.287   4.805  15.043  0.00  0.00    +0.000 A 
ATOM     21  C   UNL     1       5.965   5.424  16.067  0.00  0.00    +0.000 A 
ATOM     22  C   UNL     1       7.323   5.293  15.764  0.00  0.00    +0.000 A 
ATOM     23  N   UNL     1       7.510   4.634  14.615  0.00  0.00    +0.000 NA
ENDBRANCH  15  21
ENDBRANCH  13  15
ENDBRANCH   1  13
TORSDOF 4
ENDMDL
MODEL 7
REMARK VINA RESULT:      -6.4      2.541      6.191
REMARK  Name = 
REMARK  5 active torsions:
REMARK  status: ('A' for Active; 'I' for Inactive)
REMARK    1  A    between atoms: C_1  and  N_2
REMARK    2  A    between atoms: C_4  and  S_5
REMARK    3  A    between atoms: S_5  and  N_8
REMARK    4  A    between atoms: N_8  and  C_9
REMARK    5  A    between atoms: C_15  and  N_16
REMARK                            x       y       z     vdW  Elec       q    Type
REMARK                         _______ _______ _______ _____ _____    ______ ____
ROOT
ATOM      1  C   UNL     1       2.841   4.094  17.972  0.00  0.00    +0.000 A 
ATOM      2  C   UNL     1       1.864   3.355  18.668  0.00  0.00    +0.000 A 
ATOM      3  F   UNL     1       0.703   3.935  19.011  0.00  0.00    +0.000 F 
ATOM      4  C   UNL     1       2.036   2.010  18.951  0.00  0.00    +0.000 A 
ATOM      5  C   UNL     1       3.209   1.391  18.553  0.00  0.00    +0.000 A 
ATOM      6  C   UNL     1       4.205   2.128  17.885  0.00  0.00    +0.000 A 
ATOM      7  C   UNL     1       4.076   3.505  17.580  0.00  0.00    +0.000 A 
ENDROOT
BRANCH   7   8
ATOM      8  N   UNL     1       5.065   4.162  16.854  0.00  0.00    +0.000 N 
ATOM      9  C   UNL     1       6.381   4.554  17.356  0.00  0.00    +0.000 C 
ATOM     10  C   UNL     1       6.839   5.538  16.296  0.00  0.00    +0.000 C 
ATOM     11  C   UNL     1       6.427   4.849  15.013  0.00  0.00    +0.000 C 
ATOM     12  C   UNL     1       5.192   4.018  15.394  0.00  0.00    +0.000 C 
ENDBRANCH   7   8
BRANCH   1  13
ATOM     13  N   UNL     1       2.511   5.447  17.633  0.00  0.00    +0.000 N 
ATOM     14  H   UNL     1       2.565   5.612  16.629  0.00  0.00    +0.000 HD
BRANCH  13  15
ATOM     15  S   UNL     1       3.336   6.644  18.496  0.00  0.00    +0.000 S 
ATOM     16  O   UNL     1       4.151   7.352  17.534  0.00  0.00    +0.000 OA
ATOM     17  O   UNL     1       3.911   6.096  19.709  0.00  0.00    +0.000 OA
BRANCH  15  21
ATOM     18  C   UNL     1       0.208  10.765  18.865  0.00  0.00    +0.000 C 
ATOM     19  N   UNL     1       0.944   9.558  19.151  0.00  0.00    +0.000 N 
ATOM     20  C   UNL     1       1.739   8.873  18.288  0.00  0.00    +0.000 A 
ATOM     21  C   UNL     1       2.237   7.821  19.021  0.00  0.00    +0.000 A 
ATOM     22  C   UNL     1       1.692   7.953  20.301  0.00  0.00    +0.000 A 
ATOM     23  N   UNL     1       0.891   9.020  20.388  0.00  0.00    +0.000 NA
ENDBRANCH  15  21
ENDBRANCH  13  15
ENDBRANCH   1  13
TORSDOF 4
ENDMDL
MODEL 8
REMARK VINA RESULT:      -6.4      2.660      4.413
REMARK  Name = 
REMARK  5 active torsions:
REMARK  status: ('A' for Active; 'I' for Inactive)
REMARK    1  A    between atoms: C_1  and  N_2
REMARK    2  A    between atoms: C_4  and  S_5
REMARK    3  A    between atoms: S_5  and  N_8
REMARK    4  A    between atoms: N_8  and  C_9
REMARK    5  A    between atoms: C_15  and  N_16
REMARK                            x       y       z     vdW  Elec       q    Type
REMARK                         _______ _______ _______ _____ _____    ______ ____
ROOT
ATOM      1  C   UNL     1       2.586   6.733  19.774  0.00  0.00    +0.000 A 
ATOM      2  C   UNL     1       1.656   7.725  20.143  0.00  0.00    +0.000 A 
ATOM      3  F   UNL     1       1.083   7.689  21.357  0.00  0.00    +0.000 F 
ATOM      4  C   UNL     1       1.363   8.793  19.309  0.00  0.00    +0.000 A 
ATOM      5  C   UNL     1       1.991   8.866  18.077  0.00  0.00    +0.000 A 
ATOM      6  C   UNL     1       2.897   7.863  17.686  0.00  0.00    +0.000 A 
ATOM      7  C   UNL     1       3.223   6.753  18.501  0.00  0.00    +0.000 A 
ENDROOT
BRANCH   7   8
ATOM      8  N   UNL     1       4.181   5.832  18.089  0.00  0.00    +0.000 N 
ATOM      9  C   UNL     1       4.544   5.532  16.704  0.00  0.00    +0.000 C 
ATOM     10  C   UNL     1       5.311   4.231  16.858  0.00  0.00    +0.000 C 
ATOM     11  C   UNL     1       6.167   4.500  18.075  0.00  0.00    +0.000 C 
ATOM     12  C   UNL     1       5.350   5.491  18.919  0.00  0.00    +0.000 C 
ENDBRANCH   7   8
BRANCH   1  13
ATOM     13  N   UNL     1       2.897   5.739  20.758  0.00  0.00    +0.000 N 
ATOM     14  H   UNL     1       3.876   5.456  20.717  0.00  0.00    +0.000 HD
BRANCH  13  15
ATOM     15  S   UNL     1       1.872   4.395  20.796  0.00  0.00    +0.000 S 
ATOM     16  O   UNL     1       0.565   4.868  20.400  0.00  0.00    +0.000 OA
ATOM     17  O   UNL     1       2.060   3.644  22.023  0.00  0.00    +0.000 OA
BRANCH  15  21
ATOM     18  C   UNL     1       4.227   0.866  17.813  0.00  0.00    +0.000 C 
ATOM     19  N   UNL     1       3.307   1.854  18.322  0.00  0.00    +0.000 N 
ATOM     20  C   UNL     1       3.355   2.447  19.543  0.00  0.00    +0.000 A 
ATOM     21  C   UNL     1       2.296   3.325  19.554  0.00  0.00    +0.000 A 
ATOM     22  C   UNL     1       1.674   3.192  18.310  0.00  0.00    +0.000 A 
ATOM     23  N   UNL     1       2.291   2.284  17.545  0.00  0.00    +0.000 NA
ENDBRANCH  15  21
ENDBRANCH  13  15
ENDBRANCH   1  13
TORSDOF 4
ENDMDL
MODEL 9
REMARK VINA RESULT:      -6.3      2.638      5.786
REMARK  Name = 
REMARK  5 active torsions:
REMARK  status: ('A' for Active; 'I' for Inactive)
REMARK    1  A    between atoms: C_1  and  N_2
REMARK    2  A    between atoms: C_4  and  S_5
REMARK    3  A    between atoms: S_5  and  N_8
REMARK    4  A    between atoms: N_8  and  C_9
REMARK    5  A    between atoms: C_15  and  N_16
REMARK                            x       y       z     vdW  Elec       q    Type
REMARK                         _______ _______ _______ _____ _____    ______ ____
ROOT
ATOM      1  C   UNL     1       4.085   5.714  17.816  0.00  0.00    +0.000 A 
ATOM      2  C   UNL     1       4.945   6.027  16.744  0.00  0.00    +0.000 A 
ATOM      3  F   UNL     1       5.355   7.291  16.561  0.00  0.00    +0.000 F 
ATOM      4  C   UNL     1       5.444   5.045  15.903  0.00  0.00    +0.000 A 
ATOM      5  C   UNL     1       5.068   3.730  16.120  0.00  0.00    +0.000 A 
ATOM      6  C   UNL     1       4.185   3.412  17.168  0.00  0.00    +0.000 A 
ATOM      7  C   UNL     1       3.645   4.380  18.048  0.00  0.00    +0.000 A 
ENDROOT
BRANCH   7   8
ATOM      8  N   UNL     1       2.833   3.994  19.110  0.00  0.00    +0.000 N 
ATOM      9  C   UNL     1       1.389   3.774  19.051  0.00  0.00    +0.000 C 
ATOM     10  C   UNL     1       1.015   3.766  20.521  0.00  0.00    +0.000 C 
ATOM     11  C   UNL     1       2.123   2.939  21.135  0.00  0.00    +0.000 C 
ATOM     12  C   UNL     1       3.342   3.186  20.232  0.00  0.00    +0.000 C 
ENDBRANCH   7   8
BRANCH   1  13
ATOM     13  N   UNL     1       3.720   6.790  18.689  0.00  0.00    +0.000 N 
ATOM     14  H   UNL     1       3.596   6.475  19.650  0.00  0.00    +0.000 HD
BRANCH  13  15
ATOM     15  S   UNL     1       2.416   7.740  18.182  0.00  0.00    +0.000 S 
ATOM     16  O   UNL     1       1.440   6.829  17.628  0.00  0.00    +0.000 OA
ATOM     17  O   UNL     1       2.883   8.890  17.432  0.00  0.00    +0.000 OA
BRANCH  15  21
ATOM     18  C   UNL     1      -0.147  10.789  21.503  0.00  0.00    +0.000 C 
ATOM     19  N   UNL     1       0.563   9.684  20.907  0.00  0.00    +0.000 N 
ATOM     20  C   UNL     1       0.984   9.598  19.618  0.00  0.00    +0.000 A 
ATOM     21  C   UNL     1       1.628   8.384  19.535  0.00  0.00    +0.000 A 
ATOM     22  C   UNL     1       1.544   7.817  20.810  0.00  0.00    +0.000 A 
ATOM     23  N   UNL     1       0.886   8.612  21.661  0.00  0.00    +0.000 NA
ENDBRANCH  15  21
ENDBRANCH  13  15
ENDBRANCH   1  13
TORSDOF 4
ENDMDL
