MODEL 1
REMARK VINA RESULT:      -5.4      0.000      0.000
REMARK  Name = 
REMARK  1 active torsions:
REMARK  status: ('A' for Active; 'I' for Inactive)
REMARK    1  A    between atoms: C_1  and  C_2
REMARK                            x       y       z     vdW  Elec       q    Type
REMARK                         _______ _______ _______ _____ _____    ______ ____
ROOT
ATOM      1  C   UNL     1      10.889   3.934  27.512  0.00  0.00    +0.000 C 
ATOM      2  C   UNL     1       9.485   4.376  27.769  0.00  0.00    +0.000 A 
ATOM      3  C   UNL     1       9.200   5.486  28.547  0.00  0.00    +0.000 A 
ATOM      4  C   UNL     1       7.873   5.879  28.688  0.00  0.00    +0.000 A 
ATOM      5  C   UNL     1       6.882   5.153  28.050  0.00  0.00    +0.000 A 
ATOM      6  N   UNL     1       5.549   5.563  28.121  0.00  0.00    +0.000 N 
ATOM      7  N   UNL     1       7.191   4.081  27.299  0.00  0.00    +0.000 NA
ATOM      8  N   UNL     1       8.500   3.683  27.161  0.00  0.00    +0.000 NA
ATOM      9  H   UNL     1       5.244   5.690  29.078  0.00  0.00    +0.000 HD
ATOM     10  H   UNL     1       4.987   4.874  27.628  0.00  0.00    +0.000 HD
ENDROOT
TORSDOF 0
ENDMDL
MODEL 2
REMARK VINA RESULT:      -4.9     12.252     12.642
REMARK  Name = 
REMARK  1 active torsions:
REMARK  status: ('A' for Active; 'I' for Inactive)
REMARK    1  A    between atoms: C_1  and  C_2
REMARK                            x       y       z     vdW  Elec       q    Type
REMARK                         _______ _______ _______ _____ _____    ______ ____
ROOT
ATOM      1  C   UNL     1       7.321   6.350  17.994  0.00  0.00    +0.000 C 
ATOM      2  C   UNL     1       7.042   5.517  16.784  0.00  0.00    +0.000 A 
ATOM      3  C   UNL     1       6.194   4.422  16.832  0.00  0.00    +0.000 A 
ATOM      4  C   UNL     1       5.927   3.733  15.654  0.00  0.00    +0.000 A 
ATOM      5  C   UNL     1       6.512   4.160  14.475  0.00  0.00    +0.000 A 
ATOM      6  N   UNL     1       6.211   3.527  13.267  0.00  0.00    +0.000 N 
ATOM      7  N   UNL     1       7.330   5.228  14.460  0.00  0.00    +0.000 NA
ATOM      8  N   UNL     1       7.604   5.910  15.622  0.00  0.00    +0.000 NA
ATOM      9  H   UNL     1       6.358   2.527  13.318  0.00  0.00    +0.000 HD
ATOM     10  H   UNL     1       6.775   3.961  12.541  0.00  0.00    +0.000 HD
ENDROOT
TORSDOF 0
ENDMDL
MODEL 3
REMARK VINA RESULT:      -4.7     11.224     11.594
REMARK  Name = 
REMARK  1 active torsions:
REMARK  status: ('A' for Active; 'I' for Inactive)
REMARK    1  A    between atoms: C_1  and  C_2
REMARK                            x       y       z     vdW  Elec       q    Type
REMARK                         _______ _______ _______ _____ _____    ______ ____
ROOT
ATOM      1  C   UNL     1       6.286   3.979  13.944  0.00  0.00    +0.000 C 
ATOM      2  C   UNL     1       6.349   4.309  15.400  0.00  0.00    +0.000 A 
ATOM      3  C   UNL     1       5.207   4.383  16.181  0.00  0.00    +0.000 A 
ATOM      4  C   UNL     1       5.345   4.629  17.543  0.00  0.00    +0.000 A 
ATOM      5  C   UNL     1       6.612   4.790  18.075  0.00  0.00    +0.000 A 
ATOM      6  N   UNL     1       6.784   4.972  19.449  0.00  0.00    +0.000 N 
ATOM      7  N   UNL     1       7.702   4.710  17.291  0.00  0.00    +0.000 NA
ATOM      8  N   UNL     1       7.573   4.474  15.943  0.00  0.00    +0.000 NA
ATOM      9  H   UNL     1       6.223   5.738  19.801  0.00  0.00    +0.000 HD
ATOM     10  H   UNL     1       7.776   5.114  19.621  0.00  0.00    +0.000 HD
ENDROOT
TORSDOF 0
ENDMDL
MODEL 4
REMARK VINA RESULT:      -4.7     12.333     12.650
REMARK  Name = 
REMARK  1 active torsions:
REMARK  status: ('A' for Active; 'I' for Inactive)
REMARK    1  A    between atoms: C_1  and  C_2
REMARK                            x       y       z     vdW  Elec       q    Type
REMARK                         _______ _______ _______ _____ _____    ______ ____
ROOT
ATOM      1  C   UNL     1       6.267   3.710  13.062  0.00  0.00    +0.000 C 
ATOM      2  C   UNL     1       6.444   4.325  14.412  0.00  0.00    +0.000 A 
ATOM      3  C   UNL     1       5.784   3.837  15.529  0.00  0.00    +0.000 A 
ATOM      4  C   UNL     1       6.048   4.415  16.766  0.00  0.00    +0.000 A 
ATOM      5  C   UNL     1       6.958   5.455  16.844  0.00  0.00    +0.000 A 
ATOM      6  N   UNL     1       7.291   6.010  18.082  0.00  0.00    +0.000 N 
ATOM      7  N   UNL     1       7.585   5.904  15.743  0.00  0.00    +0.000 NA
ATOM      8  N   UNL     1       7.324   5.342  14.516  0.00  0.00    +0.000 NA
ATOM      9  H   UNL     1       6.470   6.304  18.596  0.00  0.00    +0.000 HD
ATOM     10  H   UNL     1       7.933   6.780  17.913  0.00  0.00    +0.000 HD
ENDROOT
TORSDOF 0
ENDMDL
MODEL 5
REMARK VINA RESULT:      -4.7     10.627     11.012
REMARK  Name = 
REMARK  1 active torsions:
REMARK  status: ('A' for Active; 'I' for Inactive)
REMARK    1  A    between atoms: C_1  and  C_2
REMARK                            x       y       z     vdW  Elec       q    Type
REMARK                         _______ _______ _______ _____ _____    ______ ____
ROOT
ATOM      1  C   UNL     1       6.068   4.786  14.683  0.00  0.00    +0.000 C 
ATOM      2  C   UNL     1       6.635   5.085  16.033  0.00  0.00    +0.000 A 
ATOM      3  C   UNL     1       6.150   6.119  16.816  0.00  0.00    +0.000 A 
ATOM      4  C   UNL     1       6.679   6.298  18.090  0.00  0.00    +0.000 A 
ATOM      5  C   UNL     1       7.669   5.440  18.536  0.00  0.00    +0.000 A 
ATOM      6  N   UNL     1       8.172   5.555  19.833  0.00  0.00    +0.000 N 
ATOM      7  N   UNL     1       8.118   4.443  17.752  0.00  0.00    +0.000 NA
ATOM      8  N   UNL     1       7.605   4.265  16.490  0.00  0.00    +0.000 NA
ATOM      9  H   UNL     1       8.492   6.495  20.032  0.00  0.00    +0.000 HD
ATOM     10  H   UNL     1       8.914   4.867  19.940  0.00  0.00    +0.000 HD
ENDROOT
TORSDOF 0
ENDMDL
MODEL 6
REMARK VINA RESULT:      -4.7     10.146     10.550
REMARK  Name = 
REMARK  1 active torsions:
REMARK  status: ('A' for Active; 'I' for Inactive)
REMARK    1  A    between atoms: C_1  and  C_2
REMARK                            x       y       z     vdW  Elec       q    Type
REMARK                         _______ _______ _______ _____ _____    ______ ____
ROOT
ATOM      1  C   UNL     1       5.586   5.615  15.367  0.00  0.00    +0.000 C 
ATOM      2  C   UNL     1       6.390   5.618  16.627  0.00  0.00    +0.000 A 
ATOM      3  C   UNL     1       7.050   6.753  17.069  0.00  0.00    +0.000 A 
ATOM      4  C   UNL     1       7.723   6.702  18.285  0.00  0.00    +0.000 A 
ATOM      5  C   UNL     1       7.714   5.525  19.013  0.00  0.00    +0.000 A 
ATOM      6  N   UNL     1       8.327   5.465  20.266  0.00  0.00    +0.000 N 
ATOM      7  N   UNL     1       7.063   4.440  18.557  0.00  0.00    +0.000 NA
ATOM      8  N   UNL     1       6.400   4.481  17.353  0.00  0.00    +0.000 NA
ATOM      9  H   UNL     1       9.289   5.776  20.231  0.00  0.00    +0.000 HD
ATOM     10  H   UNL     1       8.245   4.509  20.605  0.00  0.00    +0.000 HD
ENDROOT
TORSDOF 0
ENDMDL
MODEL 7
REMARK VINA RESULT:      -4.6     12.942     13.257
REMARK  Name = 
REMARK  1 active torsions:
REMARK  status: ('A' for Active; 'I' for Inactive)
REMARK    1  A    between atoms: C_1  and  C_2
REMARK                            x       y       z     vdW  Elec       q    Type
REMARK                         _______ _______ _______ _____ _____    ______ ____
ROOT
ATOM      1  C   UNL     1       7.436   4.939  12.187  0.00  0.00    +0.000 C 
ATOM      2  C   UNL     1       7.087   4.781  13.631  0.00  0.00    +0.000 A 
ATOM      3  C   UNL     1       6.137   3.866  14.056  0.00  0.00    +0.000 A 
ATOM      4  C   UNL     1       5.911   3.724  15.421  0.00  0.00    +0.000 A 
ATOM      5  C   UNL     1       6.638   4.497  16.310  0.00  0.00    +0.000 A 
ATOM      6  N   UNL     1       6.479   4.329  17.687  0.00  0.00    +0.000 N 
ATOM      7  N   UNL     1       7.556   5.375  15.866  0.00  0.00    +0.000 NA
ATOM      8  N   UNL     1       7.780   5.525  14.518  0.00  0.00    +0.000 NA
ATOM      9  H   UNL     1       5.509   4.402  17.966  0.00  0.00    +0.000 HD
ATOM     10  H   UNL     1       7.065   5.017  18.153  0.00  0.00    +0.000 HD
ENDROOT
TORSDOF 0
ENDMDL
MODEL 8
REMARK VINA RESULT:      -4.6     10.758     11.081
REMARK  Name = 
REMARK  1 active torsions:
REMARK  status: ('A' for Active; 'I' for Inactive)
REMARK    1  A    between atoms: C_1  and  C_2
REMARK                            x       y       z     vdW  Elec       q    Type
REMARK                         _______ _______ _______ _____ _____    ______ ____
ROOT
ATOM      1  C   UNL     1       8.156   8.150  18.178  0.00  0.00    +0.000 C 
ATOM      2  C   UNL     1       7.626   6.839  17.695  0.00  0.00    +0.000 A 
ATOM      3  C   UNL     1       7.094   5.902  18.565  0.00  0.00    +0.000 A 
ATOM      4  C   UNL     1       6.557   4.731  18.039  0.00  0.00    +0.000 A 
ATOM      5  C   UNL     1       6.572   4.539  16.669  0.00  0.00    +0.000 A 
ATOM      6  N   UNL     1       5.982   3.404  16.109  0.00  0.00    +0.000 N 
ATOM      7  N   UNL     1       7.094   5.469  15.849  0.00  0.00    +0.000 NA
ATOM      8  N   UNL     1       7.632   6.625  16.363  0.00  0.00    +0.000 NA
ATOM      9  H   UNL     1       6.335   2.551  16.525  0.00  0.00    +0.000 HD
ATOM     10  H   UNL     1       6.141   3.435  15.105  0.00  0.00    +0.000 HD
ENDROOT
TORSDOF 0
ENDMDL
MODEL 9
REMARK VINA RESULT:      -4.6     10.761     11.045
REMARK  Name = 
REMARK  1 active torsions:
REMARK  status: ('A' for Active; 'I' for Inactive)
REMARK    1  A    between atoms: C_1  and  C_2
REMARK                            x       y       z     vdW  Elec       q    Type
REMARK                         _______ _______ _______ _____ _____    ______ ____
ROOT
ATOM      1  C   UNL     1       6.299   3.914  15.577  0.00  0.00    +0.000 C 
ATOM      2  C   UNL     1       6.822   4.958  16.510  0.00  0.00    +0.000 A 
ATOM      3  C   UNL     1       7.017   4.702  17.857  0.00  0.00    +0.000 A 
ATOM      4  C   UNL     1       7.570   5.699  18.653  0.00  0.00    +0.000 A 
ATOM      5  C   UNL     1       7.909   6.911  18.078  0.00  0.00    +0.000 A 
ATOM      6  N   UNL     1       8.526   7.906  18.839  0.00  0.00    +0.000 N 
ATOM      7  N   UNL     1       7.710   7.129  16.766  0.00  0.00    +0.000 NA
ATOM      8  N   UNL     1       7.157   6.151  15.974  0.00  0.00    +0.000 NA
ATOM      9  H   UNL     1       8.001   8.120  19.678  0.00  0.00    +0.000 HD
ATOM     10  H   UNL     1       8.646   8.722  18.244  0.00  0.00    +0.000 HD
ENDROOT
TORSDOF 0
ENDMDL
