MODEL 1
REMARK VINA RESULT:      -6.9      0.000      0.000
REMARK  Name = 
REMARK  9 active torsions:
REMARK  status: ('A' for Active; 'I' for Inactive)
REMARK    1  A    between atoms: P_2  and  O_3
REMARK    2  A    between atoms: P_2  and  O_4
REMARK    3  A    between atoms: P_2  and  C_5
REMARK    4  A    between atoms: C_5  and  C_8
REMARK    5  A    between atoms: C_8  and  C_9
REMARK    6  A    between atoms: C_9  and  C_10
REMARK    7  A    between atoms: C_10  and  C_11
REMARK    8  A    between atoms: C_11  and  N_12
REMARK    9  A    between atoms: C_16  and  O_17
REMARK                            x       y       z     vdW  Elec       q    Type
REMARK                         _______ _______ _______ _____ _____    ______ ____
ROOT
ATOM      1  C   UNL     1       5.172   3.776  16.321  0.00  0.00    +0.000 C 
ENDROOT
BRANCH   1   2
ATOM      2  C   UNL     1       5.812   4.867  15.457  0.00  0.00    +0.000 C 
BRANCH   2   3
ATOM      3  C   UNL     1       7.122   5.272  16.111  0.00  0.00    +0.000 C 
BRANCH   3   4
ATOM      4  C   UNL     1       7.022   6.319  17.207  0.00  0.00    +0.000 C 
ATOM      5  F   UNL     1       5.770   6.807  17.359  0.00  0.00    +0.000 F 
ATOM      6  F   UNL     1       7.853   7.367  16.998  0.00  0.00    +0.000 F 
BRANCH   4   8
ATOM      7  O   UNL     1       7.858   5.302  20.318  0.00  0.00    +0.000 OA
ATOM      8  P   UNL     1       7.475   5.768  18.893  0.00  0.00    +0.000 P 
BRANCH   8   9
ATOM      9  O   UNL     1       7.844   4.261  18.327  0.00  0.00    +0.000 OA
ATOM     10  H   UNL     1       8.206   4.383  17.425  0.00  0.00    +0.000 HD
ENDBRANCH   8   9
BRANCH   8  11
ATOM     11  O   UNL     1       5.887   5.463  19.230  0.00  0.00    +0.000 OA
ATOM     12  H   UNL     1       5.870   4.730  19.879  0.00  0.00    +0.000 HD
ENDBRANCH   8  11
ENDBRANCH   4   8
ENDBRANCH   3   4
ENDBRANCH   2   3
ENDBRANCH   1   2
BRANCH   1  13
ATOM     13  C   UNL     1       3.687   4.008  16.549  0.00  0.00    +0.000 C 
BRANCH  13  14
ATOM     14  N   UNL     1       3.238   3.331  17.748  0.00  0.00    +0.000 N 
ATOM     15  C   UNL     1       3.224   1.976  17.956  0.00  0.00    +0.000 A 
ATOM     16  N   UNL     1       2.833   1.670  19.178  0.00  0.00    +0.000 NA
ATOM     17  C   UNL     1       2.592   2.888  19.776  0.00  0.00    +0.000 A 
ATOM     18  C   UNL     1       2.178   3.245  21.056  0.00  0.00    +0.000 A 
ATOM     19  N   UNL     1       2.026   4.540  21.388  0.00  0.00    +0.000 NA
ATOM     20  C   UNL     1       2.293   5.455  20.431  0.00  0.00    +0.000 A 
ATOM     21  N   UNL     1       2.705   5.248  19.159  0.00  0.00    +0.000 NA
ATOM     22  C   UNL     1       2.828   3.934  18.903  0.00  0.00    +0.000 A 
BRANCH  18  23
ATOM     23  O   UNL     1       1.923   2.313  22.031  0.00  0.00    +0.000 OA
ATOM     24  H   UNL     1       1.178   2.691  22.534  0.00  0.00    +0.000 HD
ENDBRANCH  18  23
ENDBRANCH  13  14
ENDBRANCH   1  13
TORSDOF 9
ENDMDL
MODEL 2
REMARK VINA RESULT:      -6.9      1.140      1.364
REMARK  Name = 
REMARK  9 active torsions:
REMARK  status: ('A' for Active; 'I' for Inactive)
REMARK    1  A    between atoms: P_2  and  O_3
REMARK    2  A    between atoms: P_2  and  O_4
REMARK    3  A    between atoms: P_2  and  C_5
REMARK    4  A    between atoms: C_5  and  C_8
REMARK    5  A    between atoms: C_8  and  C_9
REMARK    6  A    between atoms: C_9  and  C_10
REMARK    7  A    between atoms: C_10  and  C_11
REMARK    8  A    between atoms: C_11  and  N_12
REMARK    9  A    between atoms: C_16  and  O_17
REMARK                            x       y       z     vdW  Elec       q    Type
REMARK                         _______ _______ _______ _____ _____    ______ ____
ROOT
ATOM      1  C   UNL     1       5.229   3.855  16.021  0.00  0.00    +0.000 C 
ENDROOT
BRANCH   1   2
ATOM      2  C   UNL     1       5.784   5.101  15.323  0.00  0.00    +0.000 C 
BRANCH   2   3
ATOM      3  C   UNL     1       7.083   5.482  16.012  0.00  0.00    +0.000 C 
BRANCH   3   4
ATOM      4  C   UNL     1       6.964   6.477  17.153  0.00  0.00    +0.000 C 
ATOM      5  F   UNL     1       5.744   7.056  17.223  0.00  0.00    +0.000 F 
ATOM      6  F   UNL     1       7.887   7.464  17.077  0.00  0.00    +0.000 F 
BRANCH   4   8
ATOM      7  O   UNL     1       7.436   5.241  20.262  0.00  0.00    +0.000 OA
ATOM      8  P   UNL     1       7.219   5.807  18.837  0.00  0.00    +0.000 P 
BRANCH   8   9
ATOM      9  O   UNL     1       8.498   6.825  19.074  0.00  0.00    +0.000 OA
ATOM     10  H   UNL     1       8.848   6.629  19.967  0.00  0.00    +0.000 HD
ENDBRANCH   8   9
BRANCH   8  11
ATOM     11  O   UNL     1       8.089   4.549  18.215  0.00  0.00    +0.000 OA
ATOM     12  H   UNL     1       7.460   3.813  18.068  0.00  0.00    +0.000 HD
ENDBRANCH   8  11
ENDBRANCH   4   8
ENDBRANCH   3   4
ENDBRANCH   2   3
ENDBRANCH   1   2
BRANCH   1  13
ATOM     13  C   UNL     1       3.892   4.112  16.698  0.00  0.00    +0.000 C 
BRANCH  13  14
ATOM     14  N   UNL     1       3.872   3.543  18.029  0.00  0.00    +0.000 N 
ATOM     15  C   UNL     1       4.949   3.036  18.710  0.00  0.00    +0.000 A 
ATOM     16  N   UNL     1       4.627   2.662  19.933  0.00  0.00    +0.000 NA
ATOM     17  C   UNL     1       3.283   2.949  20.036  0.00  0.00    +0.000 A 
ATOM     18  C   UNL     1       2.365   2.809  21.073  0.00  0.00    +0.000 A 
ATOM     19  N   UNL     1       1.084   3.186  20.907  0.00  0.00    +0.000 NA
ATOM     20  C   UNL     1       0.745   3.697  19.703  0.00  0.00    +0.000 A 
ATOM     21  N   UNL     1       1.531   3.893  18.620  0.00  0.00    +0.000 NA
ATOM     22  C   UNL     1       2.790   3.489  18.862  0.00  0.00    +0.000 A 
BRANCH  18  23
ATOM     23  O   UNL     1       2.716   2.304  22.300  0.00  0.00    +0.000 OA
ATOM     24  H   UNL     1       2.195   2.831  22.934  0.00  0.00    +0.000 HD
ENDBRANCH  18  23
ENDBRANCH  13  14
ENDBRANCH   1  13
TORSDOF 9
ENDMDL
MODEL 3
REMARK VINA RESULT:      -6.8      3.832      6.417
REMARK  Name = 
REMARK  9 active torsions:
REMARK  status: ('A' for Active; 'I' for Inactive)
REMARK    1  A    between atoms: P_2  and  O_3
REMARK    2  A    between atoms: P_2  and  O_4
REMARK    3  A    between atoms: P_2  and  C_5
REMARK    4  A    between atoms: C_5  and  C_8
REMARK    5  A    between atoms: C_8  and  C_9
REMARK    6  A    between atoms: C_9  and  C_10
REMARK    7  A    between atoms: C_10  and  C_11
REMARK    8  A    between atoms: C_11  and  N_12
REMARK    9  A    between atoms: C_16  and  O_17
REMARK                            x       y       z     vdW  Elec       q    Type
REMARK                         _______ _______ _______ _____ _____    ______ ____
ROOT
ATOM      1  C   UNL     1       3.519   6.116  18.662  0.00  0.00    +0.000 C 
ENDROOT
BRANCH   1   2
ATOM      2  C   UNL     1       2.276   5.580  17.944  0.00  0.00    +0.000 C 
BRANCH   2   3
ATOM      3  C   UNL     1       2.169   4.094  18.244  0.00  0.00    +0.000 C 
BRANCH   3   4
ATOM      4  C   UNL     1       1.340   3.719  19.460  0.00  0.00    +0.000 C 
ATOM      5  F   UNL     1       0.392   2.794  19.189  0.00  0.00    +0.000 F 
ATOM      6  F   UNL     1       0.726   4.790  20.017  0.00  0.00    +0.000 F 
BRANCH   4   8
ATOM      7  O   UNL     1       3.031   2.382  22.062  0.00  0.00    +0.000 OA
ATOM      8  P   UNL     1       2.257   2.995  20.870  0.00  0.00    +0.000 P 
BRANCH   8   9
ATOM      9  O   UNL     1       0.839   2.635  21.637  0.00  0.00    +0.000 OA
ATOM     10  H   UNL     1       0.421   3.490  21.865  0.00  0.00    +0.000 HD
ENDBRANCH   8   9
BRANCH   8  11
ATOM     11  O   UNL     1       2.453   4.498  21.527  0.00  0.00    +0.000 OA
ATOM     12  H   UNL     1       2.708   5.097  20.795  0.00  0.00    +0.000 HD
ENDBRANCH   8  11
ENDBRANCH   4   8
ENDBRANCH   3   4
ENDBRANCH   2   3
ENDBRANCH   1   2
BRANCH   1  13
ATOM     13  C   UNL     1       4.682   5.137  18.623  0.00  0.00    +0.000 C 
BRANCH  13  14
ATOM     14  N   UNL     1       5.636   5.512  17.601  0.00  0.00    +0.000 N 
ATOM     15  C   UNL     1       6.635   6.443  17.726  0.00  0.00    +0.000 A 
ATOM     16  N   UNL     1       7.389   6.505  16.646  0.00  0.00    +0.000 NA
ATOM     17  C   UNL     1       6.847   5.567  15.795  0.00  0.00    +0.000 A 
ATOM     18  C   UNL     1       7.195   5.139  14.517  0.00  0.00    +0.000 A 
ATOM     19  N   UNL     1       6.484   4.177  13.902  0.00  0.00    +0.000 NA
ATOM     20  C   UNL     1       5.436   3.659  14.579  0.00  0.00    +0.000 A 
ATOM     21  N   UNL     1       4.995   3.975  15.818  0.00  0.00    +0.000 NA
ATOM     22  C   UNL     1       5.751   4.943  16.364  0.00  0.00    +0.000 A 
BRANCH  18  23
ATOM     23  O   UNL     1       8.269   5.657  13.837  0.00  0.00    +0.000 OA
ATOM     24  H   UNL     1       7.995   5.630  12.902  0.00  0.00    +0.000 HD
ENDBRANCH  18  23
ENDBRANCH  13  14
ENDBRANCH   1  13
TORSDOF 9
ENDMDL
MODEL 4
REMARK VINA RESULT:      -6.7      1.943      2.584
REMARK  Name = 
REMARK  9 active torsions:
REMARK  status: ('A' for Active; 'I' for Inactive)
REMARK    1  A    between atoms: P_2  and  O_3
REMARK    2  A    between atoms: P_2  and  O_4
REMARK    3  A    between atoms: P_2  and  C_5
REMARK    4  A    between atoms: C_5  and  C_8
REMARK    5  A    between atoms: C_8  and  C_9
REMARK    6  A    between atoms: C_9  and  C_10
REMARK    7  A    between atoms: C_10  and  C_11
REMARK    8  A    between atoms: C_11  and  N_12
REMARK    9  A    between atoms: C_16  and  O_17
REMARK                            x       y       z     vdW  Elec       q    Type
REMARK                         _______ _______ _______ _____ _____    ______ ____
ROOT
ATOM      1  C   UNL     1       3.385   7.437  17.599  0.00  0.00    +0.000 C 
ENDROOT
BRANCH   1   2
ATOM      2  C   UNL     1       4.876   7.098  17.498  0.00  0.00    +0.000 C 
BRANCH   2   3
ATOM      3  C   UNL     1       5.077   6.238  16.261  0.00  0.00    +0.000 C 
BRANCH   3   4
ATOM      4  C   UNL     1       6.085   5.110  16.392  0.00  0.00    +0.000 C 
ATOM      5  F   UNL     1       7.024   5.126  15.419  0.00  0.00    +0.000 F 
ATOM      6  F   UNL     1       5.500   3.890  16.384  0.00  0.00    +0.000 F 
BRANCH   4   8
ATOM      7  O   UNL     1       7.900   5.057  19.241  0.00  0.00    +0.000 OA
ATOM      8  P   UNL     1       7.068   5.082  17.936  0.00  0.00    +0.000 P 
BRANCH   8   9
ATOM      9  O   UNL     1       8.178   4.078  17.239  0.00  0.00    +0.000 OA
ATOM     10  H   UNL     1       7.962   3.171  17.540  0.00  0.00    +0.000 HD
ENDBRANCH   8   9
BRANCH   8  11
ATOM     11  O   UNL     1       6.093   3.896  18.546  0.00  0.00    +0.000 OA
ATOM     12  H   UNL     1       6.448   3.662  19.428  0.00  0.00    +0.000 HD
ENDBRANCH   8  11
ENDBRANCH   4   8
ENDBRANCH   3   4
ENDBRANCH   2   3
ENDBRANCH   1   2
BRANCH   1  13
ATOM     13  C   UNL     1       2.750   6.902  18.872  0.00  0.00    +0.000 C 
BRANCH  13  14
ATOM     14  N   UNL     1       2.257   5.555  18.674  0.00  0.00    +0.000 N 
ATOM     15  C   UNL     1       1.924   4.982  17.474  0.00  0.00    +0.000 A 
ATOM     16  N   UNL     1       1.580   3.716  17.610  0.00  0.00    +0.000 NA
ATOM     17  C   UNL     1       1.704   3.471  18.961  0.00  0.00    +0.000 A 
ATOM     18  C   UNL     1       1.509   2.331  19.735  0.00  0.00    +0.000 A 
ATOM     19  N   UNL     1       1.714   2.365  21.065  0.00  0.00    +0.000 NA
ATOM     20  C   UNL     1       2.113   3.542  21.595  0.00  0.00    +0.000 A 
ATOM     21  N   UNL     1       2.345   4.715  20.962  0.00  0.00    +0.000 NA
ATOM     22  C   UNL     1       2.115   4.603  19.643  0.00  0.00    +0.000 A 
BRANCH  18  23
ATOM     23  O   UNL     1       1.119   1.133  19.191  0.00  0.00    +0.000 OA
ATOM     24  H   UNL     1       0.154   1.111  19.329  0.00  0.00    +0.000 HD
ENDBRANCH  18  23
ENDBRANCH  13  14
ENDBRANCH   1  13
TORSDOF 9
ENDMDL
MODEL 5
REMARK VINA RESULT:      -6.6      3.389      5.594
REMARK  Name = 
REMARK  9 active torsions:
REMARK  status: ('A' for Active; 'I' for Inactive)
REMARK    1  A    between atoms: P_2  and  O_3
REMARK    2  A    between atoms: P_2  and  O_4
REMARK    3  A    between atoms: P_2  and  C_5
REMARK    4  A    between atoms: C_5  and  C_8
REMARK    5  A    between atoms: C_8  and  C_9
REMARK    6  A    between atoms: C_9  and  C_10
REMARK    7  A    between atoms: C_10  and  C_11
REMARK    8  A    between atoms: C_11  and  N_12
REMARK    9  A    between atoms: C_16  and  O_17
REMARK                            x       y       z     vdW  Elec       q    Type
REMARK                         _______ _______ _______ _____ _____    ______ ____
ROOT
ATOM      1  C   UNL     1       2.933   2.535  17.534  0.00  0.00    +0.000 C 
ENDROOT
BRANCH   1   2
ATOM      2  C   UNL     1       1.694   3.136  18.207  0.00  0.00    +0.000 C 
BRANCH   2   3
ATOM      3  C   UNL     1       1.912   3.090  19.710  0.00  0.00    +0.000 C 
BRANCH   3   4
ATOM      4  C   UNL     1       1.642   4.382  20.461  0.00  0.00    +0.000 C 
ATOM      5  F   UNL     1       2.250   4.430  21.667  0.00  0.00    +0.000 F 
ATOM      6  F   UNL     1       0.320   4.602  20.654  0.00  0.00    +0.000 F 
BRANCH   4   8
ATOM      7  O   UNL     1       2.665   7.224  18.947  0.00  0.00    +0.000 OA
ATOM      8  P   UNL     1       2.196   5.922  19.640  0.00  0.00    +0.000 P 
BRANCH   8   9
ATOM      9  O   UNL     1       3.752   5.645  20.118  0.00  0.00    +0.000 OA
ATOM     10  H   UNL     1       3.791   5.853  21.074  0.00  0.00    +0.000 HD
ENDBRANCH   8   9
BRANCH   8  11
ATOM     11  O   UNL     1       1.743   6.802  20.963  0.00  0.00    +0.000 OA
ATOM     12  H   UNL     1       0.979   7.351  20.692  0.00  0.00    +0.000 HD
ENDBRANCH   8  11
ENDBRANCH   4   8
ENDBRANCH   3   4
ENDBRANCH   2   3
ENDBRANCH   1   2
BRANCH   1  13
ATOM     13  C   UNL     1       4.214   2.840  18.293  0.00  0.00    +0.000 C 
BRANCH  13  14
ATOM     14  N   UNL     1       5.008   3.824  17.587  0.00  0.00    +0.000 N 
ATOM     15  C   UNL     1       4.874   4.180  16.269  0.00  0.00    +0.000 A 
ATOM     16  N   UNL     1       5.690   5.161  15.939  0.00  0.00    +0.000 NA
ATOM     17  C   UNL     1       6.374   5.446  17.101  0.00  0.00    +0.000 A 
ATOM     18  C   UNL     1       7.352   6.385  17.416  0.00  0.00    +0.000 A 
ATOM     19  N   UNL     1       7.855   6.455  18.662  0.00  0.00    +0.000 NA
ATOM     20  C   UNL     1       7.368   5.583  19.572  0.00  0.00    +0.000 A 
ATOM     21  N   UNL     1       6.421   4.632  19.403  0.00  0.00    +0.000 NA
ATOM     22  C   UNL     1       5.972   4.621  18.137  0.00  0.00    +0.000 A 
BRANCH  18  23
ATOM     23  O   UNL     1       7.833   7.279  16.493  0.00  0.00    +0.000 OA
ATOM     24  H   UNL     1       7.428   8.128  16.750  0.00  0.00    +0.000 HD
ENDBRANCH  18  23
ENDBRANCH  13  14
ENDBRANCH   1  13
TORSDOF 9
ENDMDL
MODEL 6
REMARK VINA RESULT:      -6.6      3.461      5.785
REMARK  Name = 
REMARK  9 active torsions:
REMARK  status: ('A' for Active; 'I' for Inactive)
REMARK    1  A    between atoms: P_2  and  O_3
REMARK    2  A    between atoms: P_2  and  O_4
REMARK    3  A    between atoms: P_2  and  C_5
REMARK    4  A    between atoms: C_5  and  C_8
REMARK    5  A    between atoms: C_8  and  C_9
REMARK    6  A    between atoms: C_9  and  C_10
REMARK    7  A    between atoms: C_10  and  C_11
REMARK    8  A    between atoms: C_11  and  N_12
REMARK    9  A    between atoms: C_16  and  O_17
REMARK                            x       y       z     vdW  Elec       q    Type
REMARK                         _______ _______ _______ _____ _____    ______ ____
ROOT
ATOM      1  C   UNL     1       2.996   3.786  17.146  0.00  0.00    +0.000 C 
ENDROOT
BRANCH   1   2
ATOM      2  C   UNL     1       2.189   2.567  17.605  0.00  0.00    +0.000 C 
BRANCH   2   3
ATOM      3  C   UNL     1       1.138   3.048  18.592  0.00  0.00    +0.000 C 
BRANCH   3   4
ATOM      4  C   UNL     1       1.593   3.184  20.034  0.00  0.00    +0.000 C 
ATOM      5  F   UNL     1       0.805   2.510  20.902  0.00  0.00    +0.000 F 
ATOM      6  F   UNL     1       1.647   4.474  20.439  0.00  0.00    +0.000 F 
BRANCH   4   8
ATOM      7  O   UNL     1       4.695   2.043  20.731  0.00  0.00    +0.000 OA
ATOM      8  P   UNL     1       3.274   2.566  20.411  0.00  0.00    +0.000 P 
BRANCH   8   9
ATOM      9  O   UNL     1       2.928   2.541  22.026  0.00  0.00    +0.000 OA
ATOM     10  H   UNL     1       2.018   2.889  22.121  0.00  0.00    +0.000 HD
ENDBRANCH   8   9
BRANCH   8  11
ATOM     11  O   UNL     1       3.862   4.108  20.365  0.00  0.00    +0.000 OA
ATOM     12  H   UNL     1       3.147   4.675  20.011  0.00  0.00    +0.000 HD
ENDBRANCH   8  11
ENDBRANCH   4   8
ENDBRANCH   3   4
ENDBRANCH   2   3
ENDBRANCH   1   2
BRANCH   1  13
ATOM     13  C   UNL     1       4.460   3.458  16.899  0.00  0.00    +0.000 C 
BRANCH  13  14
ATOM     14  N   UNL     1       5.228   4.665  16.678  0.00  0.00    +0.000 N 
ATOM     15  C   UNL     1       5.101   5.523  15.616  0.00  0.00    +0.000 A 
ATOM     16  N   UNL     1       5.886   6.576  15.737  0.00  0.00    +0.000 NA
ATOM     17  C   UNL     1       6.541   6.380  16.934  0.00  0.00    +0.000 A 
ATOM     18  C   UNL     1       7.480   7.135  17.631  0.00  0.00    +0.000 A 
ATOM     19  N   UNL     1       7.961   6.705  18.811  0.00  0.00    +0.000 NA
ATOM     20  C   UNL     1       7.492   5.525  19.274  0.00  0.00    +0.000 A 
ATOM     21  N   UNL     1       6.583   4.700  18.706  0.00  0.00    +0.000 NA
ATOM     22  C   UNL     1       6.154   5.194  17.532  0.00  0.00    +0.000 A 
BRANCH  18  23
ATOM     23  O   UNL     1       7.942   8.341  17.165  0.00  0.00    +0.000 OA
ATOM     24  H   UNL     1       7.798   8.954  17.910  0.00  0.00    +0.000 HD
ENDBRANCH  18  23
ENDBRANCH  13  14
ENDBRANCH   1  13
TORSDOF 9
ENDMDL
MODEL 7
REMARK VINA RESULT:      -6.6      3.457      5.955
REMARK  Name = 
REMARK  9 active torsions:
REMARK  status: ('A' for Active; 'I' for Inactive)
REMARK    1  A    between atoms: P_2  and  O_3
REMARK    2  A    between atoms: P_2  and  O_4
REMARK    3  A    between atoms: P_2  and  C_5
REMARK    4  A    between atoms: C_5  and  C_8
REMARK    5  A    between atoms: C_8  and  C_9
REMARK    6  A    between atoms: C_9  and  C_10
REMARK    7  A    between atoms: C_10  and  C_11
REMARK    8  A    between atoms: C_11  and  N_12
REMARK    9  A    between atoms: C_16  and  O_17
REMARK                            x       y       z     vdW  Elec       q    Type
REMARK                         _______ _______ _______ _____ _____    ______ ____
ROOT
ATOM      1  C   UNL     1       2.187   6.033  18.069  0.00  0.00    +0.000 C 
ENDROOT
BRANCH   1   2
ATOM      2  C   UNL     1       2.475   4.581  17.675  0.00  0.00    +0.000 C 
BRANCH   2   3
ATOM      3  C   UNL     1       1.284   3.737  18.098  0.00  0.00    +0.000 C 
BRANCH   3   4
ATOM      4  C   UNL     1       1.609   2.446  18.827  0.00  0.00    +0.000 C 
ATOM      5  F   UNL     1       2.819   1.941  18.494  0.00  0.00    +0.000 F 
ATOM      6  F   UNL     1       0.684   1.482  18.610  0.00  0.00    +0.000 F 
BRANCH   4   8
ATOM      7  O   UNL     1       1.730   2.631  22.198  0.00  0.00    +0.000 OA
ATOM      8  P   UNL     1       1.675   2.546  20.654  0.00  0.00    +0.000 P 
BRANCH   8   9
ATOM      9  O   UNL     1       0.713   3.888  20.639  0.00  0.00    +0.000 OA
ATOM     10  H   UNL     1       0.579   4.145  21.574  0.00  0.00    +0.000 HD
ENDBRANCH   8   9
BRANCH   8  11
ATOM     11  O   UNL     1       3.119   3.344  20.568  0.00  0.00    +0.000 OA
ATOM     12  H   UNL     1       3.552   3.060  19.737  0.00  0.00    +0.000 HD
ENDBRANCH   8  11
ENDBRANCH   4   8
ENDBRANCH   3   4
ENDBRANCH   2   3
ENDBRANCH   1   2
BRANCH   1  13
ATOM     13  C   UNL     1       3.393   6.939  17.880  0.00  0.00    +0.000 C 
BRANCH  13  14
ATOM     14  N   UNL     1       4.623   6.220  18.141  0.00  0.00    +0.000 N 
ATOM     15  C   UNL     1       5.035   5.733  19.355  0.00  0.00    +0.000 A 
ATOM     16  N   UNL     1       6.162   5.055  19.256  0.00  0.00    +0.000 NA
ATOM     17  C   UNL     1       6.480   5.110  17.916  0.00  0.00    +0.000 A 
ATOM     18  C   UNL     1       7.529   4.578  17.172  0.00  0.00    +0.000 A 
ATOM     19  N   UNL     1       7.595   4.781  15.844  0.00  0.00    +0.000 NA
ATOM     20  C   UNL     1       6.607   5.513  15.283  0.00  0.00    +0.000 A 
ATOM     21  N   UNL     1       5.535   6.078  15.883  0.00  0.00    +0.000 NA
ATOM     22  C   UNL     1       5.542   5.837  17.205  0.00  0.00    +0.000 A 
BRANCH  18  23
ATOM     23  O   UNL     1       8.523   3.822  17.742  0.00  0.00    +0.000 OA
ATOM     24  H   UNL     1       8.049   3.069  18.142  0.00  0.00    +0.000 HD
ENDBRANCH  18  23
ENDBRANCH  13  14
ENDBRANCH   1  13
TORSDOF 9
ENDMDL
MODEL 8
REMARK VINA RESULT:      -6.5      1.779      2.799
REMARK  Name = 
REMARK  9 active torsions:
REMARK  status: ('A' for Active; 'I' for Inactive)
REMARK    1  A    between atoms: P_2  and  O_3
REMARK    2  A    between atoms: P_2  and  O_4
REMARK    3  A    between atoms: P_2  and  C_5
REMARK    4  A    between atoms: C_5  and  C_8
REMARK    5  A    between atoms: C_8  and  C_9
REMARK    6  A    between atoms: C_9  and  C_10
REMARK    7  A    between atoms: C_10  and  C_11
REMARK    8  A    between atoms: C_11  and  N_12
REMARK    9  A    between atoms: C_16  and  O_17
REMARK                            x       y       z     vdW  Elec       q    Type
REMARK                         _______ _______ _______ _____ _____    ______ ____
ROOT
ATOM      1  C   UNL     1       3.477   7.498  17.732  0.00  0.00    +0.000 C 
ENDROOT
BRANCH   1   2
ATOM      2  C   UNL     1       4.865   7.157  17.180  0.00  0.00    +0.000 C 
BRANCH   2   3
ATOM      3  C   UNL     1       4.759   5.838  16.434  0.00  0.00    +0.000 C 
BRANCH   3   4
ATOM      4  C   UNL     1       5.648   4.715  16.939  0.00  0.00    +0.000 C 
ATOM      5  F   UNL     1       6.690   4.455  16.117  0.00  0.00    +0.000 F 
ATOM      6  F   UNL     1       4.968   3.560  17.123  0.00  0.00    +0.000 F 
BRANCH   4   8
ATOM      7  O   UNL     1       7.116   5.213  19.941  0.00  0.00    +0.000 OA
ATOM      8  P   UNL     1       6.443   4.985  18.566  0.00  0.00    +0.000 P 
BRANCH   8   9
ATOM      9  O   UNL     1       7.814   4.223  18.050  0.00  0.00    +0.000 OA
ATOM     10  H   UNL     1       7.596   3.811  17.188  0.00  0.00    +0.000 HD
ENDBRANCH   8   9
BRANCH   8  11
ATOM     11  O   UNL     1       5.692   3.643  19.167  0.00  0.00    +0.000 OA
ATOM     12  H   UNL     1       4.786   3.634  18.796  0.00  0.00    +0.000 HD
ENDBRANCH   8  11
ENDBRANCH   4   8
ENDBRANCH   3   4
ENDBRANCH   2   3
ENDBRANCH   1   2
BRANCH   1  13
ATOM     13  C   UNL     1       2.495   6.347  17.593  0.00  0.00    +0.000 C 
BRANCH  13  14
ATOM     14  N   UNL     1       2.339   5.649  18.853  0.00  0.00    +0.000 N 
ATOM     15  C   UNL     1       2.326   6.220  20.099  0.00  0.00    +0.000 A 
ATOM     16  N   UNL     1       2.089   5.333  21.045  0.00  0.00    +0.000 NA
ATOM     17  C   UNL     1       1.940   4.141  20.368  0.00  0.00    +0.000 A 
ATOM     18  C   UNL     1       1.657   2.845  20.790  0.00  0.00    +0.000 A 
ATOM     19  N   UNL     1       1.556   1.844  19.896  0.00  0.00    +0.000 NA
ATOM     20  C   UNL     1       1.739   2.160  18.595  0.00  0.00    +0.000 A 
ATOM     21  N   UNL     1       2.011   3.368  18.053  0.00  0.00    +0.000 NA
ATOM     22  C   UNL     1       2.101   4.313  19.005  0.00  0.00    +0.000 A 
BRANCH  18  23
ATOM     23  O   UNL     1       1.456   2.531  22.110  0.00  0.00    +0.000 OA
ATOM     24  H   UNL     1       0.638   3.005  22.347  0.00  0.00    +0.000 HD
ENDBRANCH  18  23
ENDBRANCH  13  14
ENDBRANCH   1  13
TORSDOF 9
ENDMDL
MODEL 9
REMARK VINA RESULT:      -6.5      4.061      6.953
REMARK  Name = 
REMARK  9 active torsions:
REMARK  status: ('A' for Active; 'I' for Inactive)
REMARK    1  A    between atoms: P_2  and  O_3
REMARK    2  A    between atoms: P_2  and  O_4
REMARK    3  A    between atoms: P_2  and  C_5
REMARK    4  A    between atoms: C_5  and  C_8
REMARK    5  A    between atoms: C_8  and  C_9
REMARK    6  A    between atoms: C_9  and  C_10
REMARK    7  A    between atoms: C_10  and  C_11
REMARK    8  A    between atoms: C_11  and  N_12
REMARK    9  A    between atoms: C_16  and  O_17
REMARK                            x       y       z     vdW  Elec       q    Type
REMARK                         _______ _______ _______ _____ _____    ______ ____
ROOT
ATOM      1  C   UNL     1       3.911   4.902  17.759  0.00  0.00    +0.000 C 
ENDROOT
BRANCH   1   2
ATOM      2  C   UNL     1       2.380   4.940  17.804  0.00  0.00    +0.000 C 
BRANCH   2   3
ATOM      3  C   UNL     1       1.886   3.531  18.086  0.00  0.00    +0.000 C 
BRANCH   3   4
ATOM      4  C   UNL     1       1.176   3.329  19.413  0.00  0.00    +0.000 C 
ATOM      5  F   UNL     1       0.191   2.405  19.349  0.00  0.00    +0.000 F 
ATOM      6  F   UNL     1       0.640   4.475  19.892  0.00  0.00    +0.000 F 
BRANCH   4   8
ATOM      7  O   UNL     1       3.094   2.262  21.982  0.00  0.00    +0.000 OA
ATOM      8  P   UNL     1       2.216   2.751  20.805  0.00  0.00    +0.000 P 
BRANCH   8   9
ATOM      9  O   UNL     1       0.889   2.645  21.783  0.00  0.00    +0.000 OA
ATOM     10  H   UNL     1       0.107   2.749  21.203  0.00  0.00    +0.000 HD
ENDBRANCH   8   9
BRANCH   8  11
ATOM     11  O   UNL     1       2.604   4.313  21.176  0.00  0.00    +0.000 OA
ATOM     12  H   UNL     1       1.950   4.619  21.838  0.00  0.00    +0.000 HD
ENDBRANCH   8  11
ENDBRANCH   4   8
ENDBRANCH   3   4
ENDBRANCH   2   3
ENDBRANCH   1   2
BRANCH   1  13
ATOM     13  C   UNL     1       4.440   4.041  16.624  0.00  0.00    +0.000 C 
BRANCH  13  14
ATOM     14  N   UNL     1       5.550   4.691  15.959  0.00  0.00    +0.000 N 
ATOM     15  C   UNL     1       6.407   5.604  16.518  0.00  0.00    +0.000 A 
ATOM     16  N   UNL     1       7.364   5.957  15.682  0.00  0.00    +0.000 NA
ATOM     17  C   UNL     1       7.107   5.230  14.539  0.00  0.00    +0.000 A 
ATOM     18  C   UNL     1       7.757   5.139  13.312  0.00  0.00    +0.000 A 
ATOM     19  N   UNL     1       7.287   4.326  12.349  0.00  0.00    +0.000 NA
ATOM     20  C   UNL     1       6.173   3.616  12.633  0.00  0.00    +0.000 A 
ATOM     21  N   UNL     1       5.451   3.605  13.777  0.00  0.00    +0.000 NA
ATOM     22  C   UNL     1       5.978   4.443  14.686  0.00  0.00    +0.000 A 
BRANCH  18  23
ATOM     23  O   UNL     1       8.898   5.849  13.032  0.00  0.00    +0.000 OA
ATOM     24  H   UNL     1       9.094   6.323  13.862  0.00  0.00    +0.000 HD
ENDBRANCH  18  23
ENDBRANCH  13  14
ENDBRANCH   1  13
TORSDOF 9
ENDMDL
