MODEL 1
REMARK VINA RESULT:      -6.6      0.000      0.000
REMARK  Name = 
REMARK  11 active torsions:
REMARK  status: ('A' for Active; 'I' for Inactive)
REMARK    1  A    between atoms: C_1  and  C_2
REMARK    2  A    between atoms: C_2  and  C_3
REMARK    3  A    between atoms: C_3  and  C_4
REMARK    4  A    between atoms: C_7  and  C_8
REMARK    5  A    between atoms: N_9  and  N_10
REMARK    6  A    between atoms: C_14  and  C_15
REMARK    7  A    between atoms: C_16  and  O_17
REMARK    8  A    between atoms: O_17  and  C_18
REMARK    9  A    between atoms: C_21  and  O_22
REMARK   10  A    between atoms: O_22  and  C_23
REMARK   11  A    between atoms: C_24  and  N_25
REMARK                            x       y       z     vdW  Elec       q    Type
REMARK                         _______ _______ _______ _____ _____    ______ ____
ROOT
ATOM      1  C   UNL     1       6.756   4.495  14.071  0.00  0.00    +0.000 A 
ATOM      2  C   UNL     1       7.001   5.086  15.321  0.00  0.00    +0.000 A 
ATOM      3  N   UNL     1       5.915   5.004  16.119  0.00  0.00    +0.000 N 
ATOM      4  C   UNL     1       5.554   5.359  17.358  0.00  0.00    +0.000 A 
ATOM      5  C   UNL     1       4.212   4.893  17.524  0.00  0.00    +0.000 A 
ATOM      6  N   UNL     1       3.797   4.329  16.358  0.00  0.00    +0.000 NA
ATOM      7  C   UNL     1       4.873   4.412  15.564  0.00  0.00    +0.000 A 
ATOM      8  S   UNL     1       5.152   3.894  14.000  0.00  0.00    +0.000 S 
ENDROOT
BRANCH   5   9
ATOM      9  C   UNL     1       3.305   5.006  18.716  0.00  0.00    +0.000 A 
ATOM     10  C   UNL     1       2.553   6.205  18.873  0.00  0.00    +0.000 A 
ATOM     11  C   UNL     1       1.813   6.405  20.047  0.00  0.00    +0.000 A 
ATOM     12  C   UNL     1       1.820   5.469  21.061  0.00  0.00    +0.000 A 
ATOM     13  C   UNL     1       2.493   4.250  20.913  0.00  0.00    +0.000 A 
ATOM     14  C   UNL     1       3.190   3.973  19.710  0.00  0.00    +0.000 A 
BRANCH  14  15
ATOM     15  N   UNL     1       3.703   2.643  19.485  0.00  0.00    +0.000 N 
ATOM     16  O   UNL     1       4.791   2.342  19.878  0.00  0.00    +0.000 OA
ATOM     17  O   UNL     1       3.068   1.787  18.714  0.00  0.00    +0.000 OA
ENDBRANCH  14  15
BRANCH  10  18
ATOM     18  O   UNL     1       2.571   7.161  17.898  0.00  0.00    +0.000 OA
ATOM     19  C   UNL     1       2.390   8.518  18.105  0.00  0.00    +0.000 C 
ENDBRANCH  10  18
BRANCH  13  20
ATOM     20  O   UNL     1       2.479   3.326  21.910  0.00  0.00    +0.000 OA
ATOM     21  C   UNL     1       1.631   2.244  21.999  0.00  0.00    +0.000 C 
ENDBRANCH  13  20
ENDBRANCH   5   9
BRANCH   4  22
ATOM     22  C   UNL     1       6.459   6.106  18.288  0.00  0.00    +0.000 C 
ATOM     23  N   UNL     1       7.543   6.639  17.848  0.00  0.00    +0.000 NA
BRANCH  23  24
ATOM     24  N   UNL     1       8.330   7.494  18.586  0.00  0.00    +0.000 NA
ATOM     25  C   UNL     1       8.407   8.759  18.376  0.00  0.00    +0.000 C 
ATOM     26  N   UNL     1       7.684   9.375  17.323  0.00  0.00    +0.000 N 
ATOM     27  N   UNL     1       9.207   9.547  19.243  0.00  0.00    +0.000 N 
ATOM     28  H   UNL     1       7.057   8.831  16.714  0.00  0.00    +0.000 HD
ATOM     29  H   UNL     1       7.779  10.385  17.155  0.00  0.00    +0.000 HD
ATOM     30  H   UNL     1       9.693   9.114  20.043  0.00  0.00    +0.000 HD
ATOM     31  H   UNL     1       9.265  10.567  19.116  0.00  0.00    +0.000 HD
ENDBRANCH  23  24
ENDBRANCH   4  22
BRANCH   1  32
ATOM     32  C   UNL     1       7.743   4.380  12.955  0.00  0.00    +0.000 C 
BRANCH  32  34
ATOM     33  C   UNL     1       7.343   2.470  11.325  0.00  0.00    +0.000 C 
ATOM     34  C   UNL     1       7.081   3.943  11.644  0.00  0.00    +0.000 C 
ENDBRANCH  32  34
ENDBRANCH   1  32
TORSDOF 8
ENDMDL
MODEL 2
REMARK VINA RESULT:      -6.5      7.492     10.812
REMARK  Name = 
REMARK  11 active torsions:
REMARK  status: ('A' for Active; 'I' for Inactive)
REMARK    1  A    between atoms: C_1  and  C_2
REMARK    2  A    between atoms: C_2  and  C_3
REMARK    3  A    between atoms: C_3  and  C_4
REMARK    4  A    between atoms: C_7  and  C_8
REMARK    5  A    between atoms: N_9  and  N_10
REMARK    6  A    between atoms: C_14  and  C_15
REMARK    7  A    between atoms: C_16  and  O_17
REMARK    8  A    between atoms: O_17  and  C_18
REMARK    9  A    between atoms: C_21  and  O_22
REMARK   10  A    between atoms: O_22  and  C_23
REMARK   11  A    between atoms: C_24  and  N_25
REMARK                            x       y       z     vdW  Elec       q    Type
REMARK                         _______ _______ _______ _____ _____    ______ ____
ROOT
ATOM      1  C   UNL     1       0.137  16.370  19.127  0.00  0.00    +0.000 A 
ATOM      2  C   UNL     1      -0.862  15.403  19.326  0.00  0.00    +0.000 A 
ATOM      3  N   UNL     1      -0.325  14.215  19.677  0.00  0.00    +0.000 N 
ATOM      4  C   UNL     1      -0.742  12.981  19.989  0.00  0.00    +0.000 A 
ATOM      5  C   UNL     1       0.439  12.234  20.294  0.00  0.00    +0.000 A 
ATOM      6  N   UNL     1       1.525  13.031  20.094  0.00  0.00    +0.000 NA
ATOM      7  C   UNL     1       0.993  14.209  19.744  0.00  0.00    +0.000 A 
ATOM      8  S   UNL     1       1.687  15.687  19.386  0.00  0.00    +0.000 S 
ENDROOT
BRANCH   5   9
ATOM      9  C   UNL     1       0.577  10.798  20.713  0.00  0.00    +0.000 A 
ATOM     10  C   UNL     1       0.264  10.463  22.061  0.00  0.00    +0.000 A 
ATOM     11  C   UNL     1       0.522   9.166  22.525  0.00  0.00    +0.000 A 
ATOM     12  C   UNL     1       1.095   8.217  21.703  0.00  0.00    +0.000 A 
ATOM     13  C   UNL     1       1.353   8.491  20.355  0.00  0.00    +0.000 A 
ATOM     14  C   UNL     1       1.035   9.766  19.823  0.00  0.00    +0.000 A 
BRANCH  14  15
ATOM     15  N   UNL     1       1.111   9.972  18.396  0.00  0.00    +0.000 N 
ATOM     16  O   UNL     1       2.114  10.392  17.901  0.00  0.00    +0.000 OA
ATOM     17  O   UNL     1       0.046   9.860  17.632  0.00  0.00    +0.000 OA
ENDBRANCH  14  15
BRANCH  10  18
ATOM     18  O   UNL     1      -0.263  11.403  22.899  0.00  0.00    +0.000 OA
ATOM     19  C   UNL     1      -1.591  11.478  23.284  0.00  0.00    +0.000 C 
ENDBRANCH  10  18
BRANCH  13  20
ATOM     20  O   UNL     1       1.901   7.544  19.548  0.00  0.00    +0.000 OA
ATOM     21  C   UNL     1       2.314   6.289  19.939  0.00  0.00    +0.000 C 
ENDBRANCH  13  20
ENDBRANCH   5   9
BRANCH   4  22
ATOM     22  C   UNL     1      -2.184  12.579  19.972  0.00  0.00    +0.000 C 
ATOM     23  N   UNL     1      -2.786  12.375  18.855  0.00  0.00    +0.000 NA
BRANCH  23  24
ATOM     24  N   UNL     1      -4.045  11.827  18.753  0.00  0.00    +0.000 NA
ATOM     25  C   UNL     1      -4.623  11.561  17.637  0.00  0.00    +0.000 C 
ATOM     26  N   UNL     1      -3.996  11.845  16.398  0.00  0.00    +0.000 N 
ATOM     27  N   UNL     1      -5.898  10.939  17.660  0.00  0.00    +0.000 N 
ATOM     28  H   UNL     1      -3.050  12.249  16.357  0.00  0.00    +0.000 HD
ATOM     29  H   UNL     1      -4.486  11.648  15.515  0.00  0.00    +0.000 HD
ATOM     30  H   UNL     1      -6.337  10.680  18.558  0.00  0.00    +0.000 HD
ATOM     31  H   UNL     1      -6.373  10.689  16.782  0.00  0.00    +0.000 HD
ENDBRANCH  23  24
ENDBRANCH   4  22
BRANCH   1  32
ATOM     32  C   UNL     1      -0.099  17.799  18.760  0.00  0.00    +0.000 C 
BRANCH  32  34
ATOM     33  C   UNL     1       0.508  18.451  16.378  0.00  0.00    +0.000 C 
ATOM     34  C   UNL     1       0.990  18.340  17.826  0.00  0.00    +0.000 C 
ENDBRANCH  32  34
ENDBRANCH   1  32
TORSDOF 8
ENDMDL
MODEL 3
REMARK VINA RESULT:      -6.4      8.660     11.362
REMARK  Name = 
REMARK  11 active torsions:
REMARK  status: ('A' for Active; 'I' for Inactive)
REMARK    1  A    between atoms: C_1  and  C_2
REMARK    2  A    between atoms: C_2  and  C_3
REMARK    3  A    between atoms: C_3  and  C_4
REMARK    4  A    between atoms: C_7  and  C_8
REMARK    5  A    between atoms: N_9  and  N_10
REMARK    6  A    between atoms: C_14  and  C_15
REMARK    7  A    between atoms: C_16  and  O_17
REMARK    8  A    between atoms: O_17  and  C_18
REMARK    9  A    between atoms: C_21  and  O_22
REMARK   10  A    between atoms: O_22  and  C_23
REMARK   11  A    between atoms: C_24  and  N_25
REMARK                            x       y       z     vdW  Elec       q    Type
REMARK                         _______ _______ _______ _____ _____    ______ ____
ROOT
ATOM      1  C   UNL     1       0.774   8.717  21.284  0.00  0.00    +0.000 A 
ATOM      2  C   UNL     1       0.091   9.590  20.421  0.00  0.00    +0.000 A 
ATOM      3  N   UNL     1      -0.421  10.640  21.098  0.00  0.00    +0.000 N 
ATOM      4  C   UNL     1      -1.128  11.747  20.840  0.00  0.00    +0.000 A 
ATOM      5  C   UNL     1      -1.269  12.422  22.094  0.00  0.00    +0.000 A 
ATOM      6  N   UNL     1      -0.693  11.664  23.066  0.00  0.00    +0.000 NA
ATOM      7  C   UNL     1      -0.187  10.620  22.397  0.00  0.00    +0.000 A 
ATOM      8  S   UNL     1       0.699   9.294  22.895  0.00  0.00    +0.000 S 
ENDROOT
BRANCH   5   9
ATOM      9  C   UNL     1      -1.963  13.717  22.406  0.00  0.00    +0.000 A 
ATOM     10  C   UNL     1      -1.289  14.930  22.090  0.00  0.00    +0.000 A 
ATOM     11  C   UNL     1      -1.840  16.152  22.501  0.00  0.00    +0.000 A 
ATOM     12  C   UNL     1      -3.012  16.195  23.228  0.00  0.00    +0.000 A 
ATOM     13  C   UNL     1      -3.737  15.028  23.498  0.00  0.00    +0.000 A 
ATOM     14  C   UNL     1      -3.256  13.778  23.032  0.00  0.00    +0.000 A 
BRANCH  14  15
ATOM     15  N   UNL     1      -4.105  12.615  23.135  0.00  0.00    +0.000 N 
ATOM     16  O   UNL     1      -4.897  12.369  22.275  0.00  0.00    +0.000 OA
ATOM     17  O   UNL     1      -4.146  11.895  24.235  0.00  0.00    +0.000 OA
ENDBRANCH  14  15
BRANCH  10  18
ATOM     18  O   UNL     1      -0.105  14.902  21.410  0.00  0.00    +0.000 OA
ATOM     19  C   UNL     1       1.137  15.186  21.954  0.00  0.00    +0.000 C 
ENDBRANCH  10  18
BRANCH  13  20
ATOM     20  O   UNL     1      -4.900  15.082  24.199  0.00  0.00    +0.000 OA
ATOM     21  C   UNL     1      -6.096  15.594  23.743  0.00  0.00    +0.000 C 
ENDBRANCH  13  20
ENDBRANCH   5   9
BRANCH   4  22
ATOM     22  C   UNL     1      -1.629  12.096  19.474  0.00  0.00    +0.000 C 
ATOM     23  N   UNL     1      -2.426  11.300  18.854  0.00  0.00    +0.000 NA
BRANCH  23  24
ATOM     24  N   UNL     1      -3.077  11.625  17.686  0.00  0.00    +0.000 NA
ATOM     25  C   UNL     1      -2.855  11.052  16.557  0.00  0.00    +0.000 C 
ATOM     26  N   UNL     1      -1.877  10.033  16.430  0.00  0.00    +0.000 N 
ATOM     27  N   UNL     1      -3.633  11.432  15.434  0.00  0.00    +0.000 N 
ATOM     28  H   UNL     1      -1.336   9.706  17.243  0.00  0.00    +0.000 HD
ATOM     29  H   UNL     1      -1.695   9.605  15.513  0.00  0.00    +0.000 HD
ATOM     30  H   UNL     1      -4.383  12.134  15.531  0.00  0.00    +0.000 HD
ATOM     31  H   UNL     1      -3.496  10.971  14.523  0.00  0.00    +0.000 HD
ENDBRANCH  23  24
ENDBRANCH   4  22
BRANCH   1  32
ATOM     32  C   UNL     1       1.486   7.470  20.872  0.00  0.00    +0.000 C 
BRANCH  32  34
ATOM     33  C   UNL     1       2.554   6.265  18.903  0.00  0.00    +0.000 C 
ATOM     34  C   UNL     1       2.154   7.616  19.500  0.00  0.00    +0.000 C 
ENDBRANCH  32  34
ENDBRANCH   1  32
TORSDOF 8
ENDMDL
MODEL 4
REMARK VINA RESULT:      -6.4      7.725     10.874
REMARK  Name = 
REMARK  11 active torsions:
REMARK  status: ('A' for Active; 'I' for Inactive)
REMARK    1  A    between atoms: C_1  and  C_2
REMARK    2  A    between atoms: C_2  and  C_3
REMARK    3  A    between atoms: C_3  and  C_4
REMARK    4  A    between atoms: C_7  and  C_8
REMARK    5  A    between atoms: N_9  and  N_10
REMARK    6  A    between atoms: C_14  and  C_15
REMARK    7  A    between atoms: C_16  and  O_17
REMARK    8  A    between atoms: O_17  and  C_18
REMARK    9  A    between atoms: C_21  and  O_22
REMARK   10  A    between atoms: O_22  and  C_23
REMARK   11  A    between atoms: C_24  and  N_25
REMARK                            x       y       z     vdW  Elec       q    Type
REMARK                         _______ _______ _______ _____ _____    ______ ____
ROOT
ATOM      1  C   UNL     1       0.618  16.317  19.111  0.00  0.00    +0.000 A 
ATOM      2  C   UNL     1      -0.406  15.357  19.092  0.00  0.00    +0.000 A 
ATOM      3  N   UNL     1       0.051  14.150  19.487  0.00  0.00    +0.000 N 
ATOM      4  C   UNL     1      -0.423  12.912  19.671  0.00  0.00    +0.000 A 
ATOM      5  C   UNL     1       0.680  12.138  20.153  0.00  0.00    +0.000 A 
ATOM      6  N   UNL     1       1.789  12.927  20.181  0.00  0.00    +0.000 NA
ATOM      7  C   UNL     1       1.336  14.124  19.788  0.00  0.00    +0.000 A 
ATOM      8  S   UNL     1       2.092  15.605  19.616  0.00  0.00    +0.000 S 
ENDROOT
BRANCH   5   9
ATOM      9  C   UNL     1       0.731  10.686  20.535  0.00  0.00    +0.000 A 
ATOM     10  C   UNL     1       0.403  10.335  21.875  0.00  0.00    +0.000 A 
ATOM     11  C   UNL     1       0.582   9.013  22.305  0.00  0.00    +0.000 A 
ATOM     12  C   UNL     1       1.094   8.053  21.456  0.00  0.00    +0.000 A 
ATOM     13  C   UNL     1       1.364   8.346  20.114  0.00  0.00    +0.000 A 
ATOM     14  C   UNL     1       1.122   9.651  19.616  0.00  0.00    +0.000 A 
BRANCH  14  15
ATOM     15  N   UNL     1       1.207   9.889  18.195  0.00  0.00    +0.000 N 
ATOM     16  O   UNL     1       2.203  10.344  17.719  0.00  0.00    +0.000 OA
ATOM     17  O   UNL     1       0.152   9.767  17.418  0.00  0.00    +0.000 OA
ENDBRANCH  14  15
BRANCH  10  18
ATOM     18  O   UNL     1      -0.063  11.284  22.740  0.00  0.00    +0.000 OA
ATOM     19  C   UNL     1      -1.375  11.404  23.165  0.00  0.00    +0.000 C 
ENDBRANCH  10  18
BRANCH  13  20
ATOM     20  O   UNL     1       1.850   7.388  19.281  0.00  0.00    +0.000 OA
ATOM     21  C   UNL     1       2.921   6.559  19.539  0.00  0.00    +0.000 C 
ENDBRANCH  13  20
ENDBRANCH   5   9
BRANCH   4  22
ATOM     22  C   UNL     1      -1.841  12.530  19.383  0.00  0.00    +0.000 C 
ATOM     23  N   UNL     1      -2.784  12.891  20.179  0.00  0.00    +0.000 NA
BRANCH  23  24
ATOM     24  N   UNL     1      -4.123  12.745  19.895  0.00  0.00    +0.000 NA
ATOM     25  C   UNL     1      -5.027  12.551  20.786  0.00  0.00    +0.000 C 
ATOM     26  N   UNL     1      -4.696  12.445  22.160  0.00  0.00    +0.000 N 
ATOM     27  N   UNL     1      -6.384  12.477  20.377  0.00  0.00    +0.000 N 
ATOM     28  H   UNL     1      -3.724  12.547  22.486  0.00  0.00    +0.000 HD
ATOM     29  H   UNL     1      -5.431  12.264  22.856  0.00  0.00    +0.000 HD
ATOM     30  H   UNL     1      -6.639  12.607  19.385  0.00  0.00    +0.000 HD
ATOM     31  H   UNL     1      -7.133  12.350  21.071  0.00  0.00    +0.000 HD
ENDBRANCH  23  24
ENDBRANCH   4  22
BRANCH   1  32
ATOM     32  C   UNL     1       0.462  17.762  18.764  0.00  0.00    +0.000 C 
BRANCH  32  34
ATOM     33  C   UNL     1       0.490  18.628  16.373  0.00  0.00    +0.000 C 
ATOM     34  C   UNL     1      -0.338  17.959  17.471  0.00  0.00    +0.000 C 
ENDBRANCH  32  34
ENDBRANCH   1  32
TORSDOF 8
ENDMDL
MODEL 5
REMARK VINA RESULT:      -6.3      8.763     11.412
REMARK  Name = 
REMARK  11 active torsions:
REMARK  status: ('A' for Active; 'I' for Inactive)
REMARK    1  A    between atoms: C_1  and  C_2
REMARK    2  A    between atoms: C_2  and  C_3
REMARK    3  A    between atoms: C_3  and  C_4
REMARK    4  A    between atoms: C_7  and  C_8
REMARK    5  A    between atoms: N_9  and  N_10
REMARK    6  A    between atoms: C_14  and  C_15
REMARK    7  A    between atoms: C_16  and  O_17
REMARK    8  A    between atoms: O_17  and  C_18
REMARK    9  A    between atoms: C_21  and  O_22
REMARK   10  A    between atoms: O_22  and  C_23
REMARK   11  A    between atoms: C_24  and  N_25
REMARK                            x       y       z     vdW  Elec       q    Type
REMARK                         _______ _______ _______ _____ _____    ______ ____
ROOT
ATOM      1  C   UNL     1       1.019   8.742  20.769  0.00  0.00    +0.000 A 
ATOM      2  C   UNL     1       0.205   9.593  20.003  0.00  0.00    +0.000 A 
ATOM      3  N   UNL     1      -0.240  10.633  20.740  0.00  0.00    +0.000 N 
ATOM      4  C   UNL     1      -1.004  11.720  20.577  0.00  0.00    +0.000 A 
ATOM      5  C   UNL     1      -0.995  12.397  21.838  0.00  0.00    +0.000 A 
ATOM      6  N   UNL     1      -0.276  11.659  22.726  0.00  0.00    +0.000 NA
ATOM      7  C   UNL     1       0.164  10.625  21.997  0.00  0.00    +0.000 A 
ATOM      8  S   UNL     1       1.143   9.325  22.375  0.00  0.00    +0.000 S 
ENDROOT
BRANCH   5   9
ATOM      9  C   UNL     1      -1.676  13.675  22.238  0.00  0.00    +0.000 A 
ATOM     10  C   UNL     1      -1.002  14.901  21.977  0.00  0.00    +0.000 A 
ATOM     11  C   UNL     1      -1.538  16.100  22.468  0.00  0.00    +0.000 A 
ATOM     12  C   UNL     1      -2.695  16.106  23.220  0.00  0.00    +0.000 A 
ATOM     13  C   UNL     1      -3.420  14.928  23.439  0.00  0.00    +0.000 A 
ATOM     14  C   UNL     1      -2.955  13.705  22.893  0.00  0.00    +0.000 A 
BRANCH  14  15
ATOM     15  N   UNL     1      -3.808  12.542  22.947  0.00  0.00    +0.000 N 
ATOM     16  O   UNL     1      -4.616  12.346  22.089  0.00  0.00    +0.000 OA
ATOM     17  O   UNL     1      -3.835  11.763  24.007  0.00  0.00    +0.000 OA
ENDBRANCH  14  15
BRANCH  10  18
ATOM     18  O   UNL     1       0.168  14.907  21.272  0.00  0.00    +0.000 OA
ATOM     19  C   UNL     1       1.413  15.218  21.792  0.00  0.00    +0.000 C 
ENDBRANCH  10  18
BRANCH  13  20
ATOM     20  O   UNL     1      -4.568  14.947  24.165  0.00  0.00    +0.000 OA
ATOM     21  C   UNL     1      -5.679  15.719  23.903  0.00  0.00    +0.000 C 
ENDBRANCH  13  20
ENDBRANCH   5   9
BRANCH   4  22
ATOM     22  C   UNL     1      -1.691  12.049  19.289  0.00  0.00    +0.000 C 
ATOM     23  N   UNL     1      -2.651  11.310  18.860  0.00  0.00    +0.000 NA
BRANCH  23  24
ATOM     24  N   UNL     1      -3.454  11.641  17.792  0.00  0.00    +0.000 NA
ATOM     25  C   UNL     1      -4.716  11.862  17.886  0.00  0.00    +0.000 C 
ATOM     26  N   UNL     1      -5.393  11.752  19.127  0.00  0.00    +0.000 N 
ATOM     27  N   UNL     1      -5.428  12.256  16.723  0.00  0.00    +0.000 N 
ATOM     28  H   UNL     1      -4.887  11.517  19.993  0.00  0.00    +0.000 HD
ATOM     29  H   UNL     1      -6.408  11.908  19.176  0.00  0.00    +0.000 HD
ATOM     30  H   UNL     1      -4.933  12.391  15.828  0.00  0.00    +0.000 HD
ATOM     31  H   UNL     1      -6.435  12.467  16.774  0.00  0.00    +0.000 HD
ENDBRANCH  23  24
ENDBRANCH   4  22
BRANCH   1  32
ATOM     32  C   UNL     1       1.704   7.512  20.268  0.00  0.00    +0.000 C 
BRANCH  32  34
ATOM     33  C   UNL     1       2.589   6.380  18.170  0.00  0.00    +0.000 C 
ATOM     34  C   UNL     1       2.284   7.709  18.862  0.00  0.00    +0.000 C 
ENDBRANCH  32  34
ENDBRANCH   1  32
TORSDOF 8
ENDMDL
MODEL 6
REMARK VINA RESULT:      -6.3      7.734     11.401
REMARK  Name = 
REMARK  11 active torsions:
REMARK  status: ('A' for Active; 'I' for Inactive)
REMARK    1  A    between atoms: C_1  and  C_2
REMARK    2  A    between atoms: C_2  and  C_3
REMARK    3  A    between atoms: C_3  and  C_4
REMARK    4  A    between atoms: C_7  and  C_8
REMARK    5  A    between atoms: N_9  and  N_10
REMARK    6  A    between atoms: C_14  and  C_15
REMARK    7  A    between atoms: C_16  and  O_17
REMARK    8  A    between atoms: O_17  and  C_18
REMARK    9  A    between atoms: C_21  and  O_22
REMARK   10  A    between atoms: O_22  and  C_23
REMARK   11  A    between atoms: C_24  and  N_25
REMARK                            x       y       z     vdW  Elec       q    Type
REMARK                         _______ _______ _______ _____ _____    ______ ____
ROOT
ATOM      1  C   UNL     1      -1.984  15.239  22.749  0.00  0.00    +0.000 A 
ATOM      2  C   UNL     1      -2.472  14.243  21.888  0.00  0.00    +0.000 A 
ATOM      3  N   UNL     1      -1.481  13.423  21.481  0.00  0.00    +0.000 N 
ATOM      4  C   UNL     1      -1.331  12.344  20.703  0.00  0.00    +0.000 A 
ATOM      5  C   UNL     1       0.055  11.994  20.782  0.00  0.00    +0.000 A 
ATOM      6  N   UNL     1       0.695  12.913  21.555  0.00  0.00    +0.000 NA
ATOM      7  C   UNL     1      -0.288  13.729  21.957  0.00  0.00    +0.000 A 
ATOM      8  S   UNL     1      -0.293  15.064  22.963  0.00  0.00    +0.000 S 
ENDROOT
BRANCH   5   9
ATOM      9  C   UNL     1       0.792  10.866  20.119  0.00  0.00    +0.000 A 
ATOM     10  C   UNL     1       1.310  11.083  18.811  0.00  0.00    +0.000 A 
ATOM     11  C   UNL     1       1.872  10.010  18.106  0.00  0.00    +0.000 A 
ATOM     12  C   UNL     1       1.908   8.742  18.650  0.00  0.00    +0.000 A 
ATOM     13  C   UNL     1       1.470   8.506  19.959  0.00  0.00    +0.000 A 
ATOM     14  C   UNL     1       0.967   9.579  20.737  0.00  0.00    +0.000 A 
BRANCH  14  15
ATOM     15  N   UNL     1       0.712   9.370  22.142  0.00  0.00    +0.000 N 
ATOM     16  O   UNL     1       1.602   9.452  22.935  0.00  0.00    +0.000 OA
ATOM     17  O   UNL     1      -0.454   8.932  22.566  0.00  0.00    +0.000 OA
ENDBRANCH  14  15
BRANCH  10  18
ATOM     18  O   UNL     1       1.241  12.322  18.240  0.00  0.00    +0.000 OA
ATOM     19  C   UNL     1       2.311  13.183  18.067  0.00  0.00    +0.000 C 
ENDBRANCH  10  18
BRANCH  13  20
ATOM     20  O   UNL     1       1.527   7.258  20.493  0.00  0.00    +0.000 OA
ATOM     21  C   UNL     1       2.227   6.188  19.978  0.00  0.00    +0.000 C 
ENDBRANCH  13  20
ENDBRANCH   5   9
BRANCH   4  22
ATOM     22  C   UNL     1      -2.460  11.724  19.941  0.00  0.00    +0.000 C 
ATOM     23  N   UNL     1      -2.821  12.212  18.808  0.00  0.00    +0.000 NA
BRANCH  23  24
ATOM     24  N   UNL     1      -3.716  11.599  17.961  0.00  0.00    +0.000 NA
ATOM     25  C   UNL     1      -3.442  11.260  16.752  0.00  0.00    +0.000 C 
ATOM     26  N   UNL     1      -2.170  11.524  16.184  0.00  0.00    +0.000 N 
ATOM     27  N   UNL     1      -4.429  10.578  15.994  0.00  0.00    +0.000 N 
ATOM     28  H   UNL     1      -1.422  11.971  16.732  0.00  0.00    +0.000 HD
ATOM     29  H   UNL     1      -1.979  11.268  15.207  0.00  0.00    +0.000 HD
ATOM     30  H   UNL     1      -5.338  10.334  16.419  0.00  0.00    +0.000 HD
ATOM     31  H   UNL     1      -4.228  10.269  15.033  0.00  0.00    +0.000 HD
ENDBRANCH  23  24
ENDBRANCH   4  22
BRANCH   1  32
ATOM     32  C   UNL     1      -2.807  16.297  23.410  0.00  0.00    +0.000 C 
BRANCH  32  34
ATOM     33  C   UNL     1      -2.770  15.121  25.664  0.00  0.00    +0.000 C 
ATOM     34  C   UNL     1      -2.493  16.420  24.905  0.00  0.00    +0.000 C 
ENDBRANCH  32  34
ENDBRANCH   1  32
TORSDOF 8
ENDMDL
MODEL 7
REMARK VINA RESULT:      -6.2      7.202     10.803
REMARK  Name = 
REMARK  11 active torsions:
REMARK  status: ('A' for Active; 'I' for Inactive)
REMARK    1  A    between atoms: C_1  and  C_2
REMARK    2  A    between atoms: C_2  and  C_3
REMARK    3  A    between atoms: C_3  and  C_4
REMARK    4  A    between atoms: C_7  and  C_8
REMARK    5  A    between atoms: N_9  and  N_10
REMARK    6  A    between atoms: C_14  and  C_15
REMARK    7  A    between atoms: C_16  and  O_17
REMARK    8  A    between atoms: O_17  and  C_18
REMARK    9  A    between atoms: C_21  and  O_22
REMARK   10  A    between atoms: O_22  and  C_23
REMARK   11  A    between atoms: C_24  and  N_25
REMARK                            x       y       z     vdW  Elec       q    Type
REMARK                         _______ _______ _______ _____ _____    ______ ____
ROOT
ATOM      1  C   UNL     1      -2.497  14.275  21.642  0.00  0.00    +0.000 A 
ATOM      2  C   UNL     1      -2.694  13.309  20.641  0.00  0.00    +0.000 A 
ATOM      3  N   UNL     1      -1.628  12.486  20.542  0.00  0.00    +0.000 N 
ATOM      4  C   UNL     1      -1.246  11.427  19.819  0.00  0.00    +0.000 A 
ATOM      5  C   UNL     1       0.043  11.057  20.318  0.00  0.00    +0.000 A 
ATOM      6  N   UNL     1       0.411  11.945  21.280  0.00  0.00    +0.000 NA
ATOM      7  C   UNL     1      -0.645  12.764  21.377  0.00  0.00    +0.000 A 
ATOM      8  S   UNL     1      -0.959  14.071  22.370  0.00  0.00    +0.000 S 
ENDROOT
BRANCH   5   9
ATOM      9  C   UNL     1       0.946   9.936  19.887  0.00  0.00    +0.000 A 
ATOM     10  C   UNL     1       1.643  10.077  18.653  0.00  0.00    +0.000 A 
ATOM     11  C   UNL     1       2.375   8.993  18.149  0.00  0.00    +0.000 A 
ATOM     12  C   UNL     1       2.412   7.787  18.818  0.00  0.00    +0.000 A 
ATOM     13  C   UNL     1       1.795   7.634  20.065  0.00  0.00    +0.000 A 
ATOM     14  C   UNL     1       1.109   8.729  20.650  0.00  0.00    +0.000 A 
BRANCH  14  15
ATOM     15  N   UNL     1       0.657   8.626  22.016  0.00  0.00    +0.000 N 
ATOM     16  O   UNL     1      -0.417   8.163  22.263  0.00  0.00    +0.000 OA
ATOM     17  O   UNL     1       1.331   9.178  23.002  0.00  0.00    +0.000 OA
ENDBRANCH  14  15
BRANCH  10  18
ATOM     18  O   UNL     1       1.580  11.250  17.957  0.00  0.00    +0.000 OA
ATOM     19  C   UNL     1       2.489  12.289  18.057  0.00  0.00    +0.000 C 
ENDBRANCH  10  18
BRANCH  13  20
ATOM     20  O   UNL     1       1.852   6.447  20.725  0.00  0.00    +0.000 OA
ATOM     21  C   UNL     1       1.179   5.295  20.379  0.00  0.00    +0.000 C 
ENDBRANCH  13  20
ENDBRANCH   5   9
BRANCH   4  22
ATOM     22  C   UNL     1      -2.082  10.843  18.723  0.00  0.00    +0.000 C 
ATOM     23  N   UNL     1      -1.964  11.277  17.518  0.00  0.00    +0.000 NA
BRANCH  23  24
ATOM     24  N   UNL     1      -2.551  10.676  16.428  0.00  0.00    +0.000 NA
ATOM     25  C   UNL     1      -3.704  11.001  15.964  0.00  0.00    +0.000 C 
ATOM     26  N   UNL     1      -4.484  12.015  16.576  0.00  0.00    +0.000 N 
ATOM     27  N   UNL     1      -4.178  10.351  14.795  0.00  0.00    +0.000 N 
ATOM     28  H   UNL     1      -4.138  12.536  17.393  0.00  0.00    +0.000 HD
ATOM     29  H   UNL     1      -5.415  12.244  16.204  0.00  0.00    +0.000 HD
ATOM     30  H   UNL     1      -3.593   9.650  14.313  0.00  0.00    +0.000 HD
ATOM     31  H   UNL     1      -5.086  10.611  14.384  0.00  0.00    +0.000 HD
ENDBRANCH  23  24
ENDBRANCH   4  22
BRANCH   1  32
ATOM     32  C   UNL     1      -3.481  15.326  22.041  0.00  0.00    +0.000 C 
BRANCH  32  34
ATOM     33  C   UNL     1      -4.677  13.964  23.825  0.00  0.00    +0.000 C 
ATOM     34  C   UNL     1      -4.812  14.720  22.503  0.00  0.00    +0.000 C 
ENDBRANCH  32  34
ENDBRANCH   1  32
TORSDOF 8
ENDMDL
MODEL 8
REMARK VINA RESULT:      -6.1      7.107     10.658
REMARK  Name = 
REMARK  11 active torsions:
REMARK  status: ('A' for Active; 'I' for Inactive)
REMARK    1  A    between atoms: C_1  and  C_2
REMARK    2  A    between atoms: C_2  and  C_3
REMARK    3  A    between atoms: C_3  and  C_4
REMARK    4  A    between atoms: C_7  and  C_8
REMARK    5  A    between atoms: N_9  and  N_10
REMARK    6  A    between atoms: C_14  and  C_15
REMARK    7  A    between atoms: C_16  and  O_17
REMARK    8  A    between atoms: O_17  and  C_18
REMARK    9  A    between atoms: C_21  and  O_22
REMARK   10  A    between atoms: O_22  and  C_23
REMARK   11  A    between atoms: C_24  and  N_25
REMARK                            x       y       z     vdW  Elec       q    Type
REMARK                         _______ _______ _______ _____ _____    ______ ____
ROOT
ATOM      1  C   UNL     1      -1.794  14.732  21.401  0.00  0.00    +0.000 A 
ATOM      2  C   UNL     1      -2.142  13.726  20.484  0.00  0.00    +0.000 A 
ATOM      3  N   UNL     1      -1.164  12.801  20.382  0.00  0.00    +0.000 N 
ATOM      4  C   UNL     1      -0.928  11.665  19.715  0.00  0.00    +0.000 A 
ATOM      5  C   UNL     1       0.352  11.207  20.163  0.00  0.00    +0.000 A 
ATOM      6  N   UNL     1       0.861  12.117  21.038  0.00  0.00    +0.000 NA
ATOM      7  C   UNL     1      -0.108  13.037  21.138  0.00  0.00    +0.000 A 
ATOM      8  S   UNL     1      -0.238  14.429  22.053  0.00  0.00    +0.000 S 
ENDROOT
BRANCH   5   9
ATOM      9  C   UNL     1       1.119   9.980  19.761  0.00  0.00    +0.000 A 
ATOM     10  C   UNL     1       1.777   9.987  18.498  0.00  0.00    +0.000 A 
ATOM     11  C   UNL     1       2.376   8.811  18.027  0.00  0.00    +0.000 A 
ATOM     12  C   UNL     1       2.318   7.641  18.757  0.00  0.00    +0.000 A 
ATOM     13  C   UNL     1       1.739   7.614  20.032  0.00  0.00    +0.000 A 
ATOM     14  C   UNL     1       1.191   8.801  20.581  0.00  0.00    +0.000 A 
BRANCH  14  15
ATOM     15  N   UNL     1       0.785   8.813  21.965  0.00  0.00    +0.000 N 
ATOM     16  O   UNL     1      -0.335   8.526  22.268  0.00  0.00    +0.000 OA
ATOM     17  O   UNL     1       1.575   9.287  22.905  0.00  0.00    +0.000 OA
ENDBRANCH  14  15
BRANCH  10  18
ATOM     18  O   UNL     1       1.805  11.125  17.744  0.00  0.00    +0.000 OA
ATOM     19  C   UNL     1       2.640  12.208  17.960  0.00  0.00    +0.000 C 
ENDBRANCH  10  18
BRANCH  13  20
ATOM     20  O   UNL     1       1.702   6.461  20.751  0.00  0.00    +0.000 OA
ATOM     21  C   UNL     1       2.220   5.246  20.358  0.00  0.00    +0.000 C 
ENDBRANCH  13  20
ENDBRANCH   5   9
BRANCH   4  22
ATOM     22  C   UNL     1      -1.881  11.094  18.712  0.00  0.00    +0.000 C 
ATOM     23  N   UNL     1      -1.735  11.350  17.461  0.00  0.00    +0.000 NA
BRANCH  23  24
ATOM     24  N   UNL     1      -2.446  10.722  16.463  0.00  0.00    +0.000 NA
ATOM     25  C   UNL     1      -3.653  11.024  16.144  0.00  0.00    +0.000 C 
ATOM     26  N   UNL     1      -4.364  12.038  16.833  0.00  0.00    +0.000 N 
ATOM     27  N   UNL     1      -4.261  10.346  15.056  0.00  0.00    +0.000 N 
ATOM     28  H   UNL     1      -3.925  12.578  17.592  0.00  0.00    +0.000 HD
ATOM     29  H   UNL     1      -5.338  12.248  16.579  0.00  0.00    +0.000 HD
ATOM     30  H   UNL     1      -3.731   9.645  14.515  0.00  0.00    +0.000 HD
ATOM     31  H   UNL     1      -5.217  10.587  14.759  0.00  0.00    +0.000 HD
ENDBRANCH  23  24
ENDBRANCH   4  22
BRANCH   1  32
ATOM     32  C   UNL     1      -2.651  15.895  21.782  0.00  0.00    +0.000 C 
BRANCH  32  34
ATOM     33  C   UNL     1      -3.508  17.468  19.977  0.00  0.00    +0.000 C 
ATOM     34  C   UNL     1      -3.746  16.166  20.744  0.00  0.00    +0.000 C 
ENDBRANCH  32  34
ENDBRANCH   1  32
TORSDOF 8
ENDMDL
MODEL 9
REMARK VINA RESULT:      -6.1      7.363     10.812
REMARK  Name = 
REMARK  11 active torsions:
REMARK  status: ('A' for Active; 'I' for Inactive)
REMARK    1  A    between atoms: C_1  and  C_2
REMARK    2  A    between atoms: C_2  and  C_3
REMARK    3  A    between atoms: C_3  and  C_4
REMARK    4  A    between atoms: C_7  and  C_8
REMARK    5  A    between atoms: N_9  and  N_10
REMARK    6  A    between atoms: C_14  and  C_15
REMARK    7  A    between atoms: C_16  and  O_17
REMARK    8  A    between atoms: O_17  and  C_18
REMARK    9  A    between atoms: C_21  and  O_22
REMARK   10  A    between atoms: O_22  and  C_23
REMARK   11  A    between atoms: C_24  and  N_25
REMARK                            x       y       z     vdW  Elec       q    Type
REMARK                         _______ _______ _______ _____ _____    ______ ____
ROOT
ATOM      1  C   UNL     1       0.056  15.964  19.040  0.00  0.00    +0.000 A 
ATOM      2  C   UNL     1      -0.864  14.903  19.070  0.00  0.00    +0.000 A 
ATOM      3  N   UNL     1      -0.268  13.753  19.449  0.00  0.00    +0.000 N 
ATOM      4  C   UNL     1      -0.604  12.474  19.660  0.00  0.00    +0.000 A 
ATOM      5  C   UNL     1       0.592  11.822  20.097  0.00  0.00    +0.000 A 
ATOM      6  N   UNL     1       1.614  12.721  20.074  0.00  0.00    +0.000 NA
ATOM      7  C   UNL     1       1.024  13.862  19.695  0.00  0.00    +0.000 A 
ATOM      8  S   UNL     1       1.616  15.411  19.484  0.00  0.00    +0.000 S 
ENDROOT
BRANCH   5   9
ATOM      9  C   UNL     1       0.809  10.387  20.483  0.00  0.00    +0.000 A 
ATOM     10  C   UNL     1       0.595  10.020  21.842  0.00  0.00    +0.000 A 
ATOM     11  C   UNL     1       0.929   8.727  22.267  0.00  0.00    +0.000 A 
ATOM     12  C   UNL     1       1.483   7.812  21.394  0.00  0.00    +0.000 A 
ATOM     13  C   UNL     1       1.644   8.115  20.037  0.00  0.00    +0.000 A 
ATOM     14  C   UNL     1       1.246   9.385  19.548  0.00  0.00    +0.000 A 
BRANCH  14  15
ATOM     15  N   UNL     1       1.224   9.615  18.123  0.00  0.00    +0.000 N 
ATOM     16  O   UNL     1       2.212   9.973  17.555  0.00  0.00    +0.000 OA
ATOM     17  O   UNL     1       0.097   9.593  17.445  0.00  0.00    +0.000 OA
ENDBRANCH  14  15
BRANCH  10  18
ATOM     18  O   UNL     1       0.089  10.928  22.728  0.00  0.00    +0.000 OA
ATOM     19  C   UNL     1      -1.237  11.011  23.119  0.00  0.00    +0.000 C 
ENDBRANCH  10  18
BRANCH  13  20
ATOM     20  O   UNL     1       2.174   7.202  19.182  0.00  0.00    +0.000 OA
ATOM     21  C   UNL     1       2.631   5.946  19.520  0.00  0.00    +0.000 C 
ENDBRANCH  13  20
ENDBRANCH   5   9
BRANCH   4  22
ATOM     22  C   UNL     1      -1.986  11.946  19.434  0.00  0.00    +0.000 C 
ATOM     23  N   UNL     1      -2.502  11.965  18.257  0.00  0.00    +0.000 NA
BRANCH  23  24
ATOM     24  N   UNL     1      -3.681  11.336  17.928  0.00  0.00    +0.000 NA
ATOM     25  C   UNL     1      -4.845  11.832  18.152  0.00  0.00    +0.000 C 
ATOM     26  N   UNL     1      -5.000  13.086  18.794  0.00  0.00    +0.000 N 
ATOM     27  N   UNL     1      -5.988  11.115  17.712  0.00  0.00    +0.000 N 
ATOM     28  H   UNL     1      -4.184  13.647  19.075  0.00  0.00    +0.000 HD
ATOM     29  H   UNL     1      -5.940  13.454  18.987  0.00  0.00    +0.000 HD
ATOM     30  H   UNL     1      -5.883  10.228  17.196  0.00  0.00    +0.000 HD
ATOM     31  H   UNL     1      -6.933  11.501  17.852  0.00  0.00    +0.000 HD
ENDBRANCH  23  24
ENDBRANCH   4  22
BRANCH   1  32
ATOM     32  C   UNL     1      -0.263  17.382  18.694  0.00  0.00    +0.000 C 
BRANCH  32  34
ATOM     33  C   UNL     1      -2.627  18.246  19.053  0.00  0.00    +0.000 C 
ATOM     34  C   UNL     1      -1.254  18.006  19.683  0.00  0.00    +0.000 C 
ENDBRANCH  32  34
ENDBRANCH   1  32
TORSDOF 8
ENDMDL
