MODEL 1
REMARK VINA RESULT:      -7.3      0.000      0.000
REMARK  Name = 
REMARK  4 active torsions:
REMARK  status: ('A' for Active; 'I' for Inactive)
REMARK    1  A    between atoms: C_1  and  C_2
REMARK    2  A    between atoms: C_2  and  C_3
REMARK    3  A    between atoms: C_5  and  N_6
REMARK    4  A    between atoms: C_7  and  C_9
REMARK                            x       y       z     vdW  Elec       q    Type
REMARK                         _______ _______ _______ _____ _____    ______ ____
ROOT
ATOM      1  N   UNL     1       4.356   5.872  17.405  0.00  0.00    +0.000 N 
ATOM      2  C   UNL     1       3.160   6.203  18.003  0.00  0.00    +0.000 C 
ATOM      3  O   UNL     1       2.640   7.311  17.898  0.00  0.00    +0.000 OA
ATOM      4  H   UNL     1       4.755   4.960  17.602  0.00  0.00    +0.000 HD
ENDROOT
BRANCH   2   5
ATOM      5  C   UNL     1       2.478   5.142  18.797  0.00  0.00    +0.000 A 
ATOM      6  C   UNL     1       2.892   4.957  20.129  0.00  0.00    +0.000 A 
ATOM      7  C   UNL     1       2.254   3.946  20.854  0.00  0.00    +0.000 A 
ATOM      8  N   UNL     1       2.405   3.494  22.140  0.00  0.00    +0.000 N 
ATOM      9  C   UNL     1       1.526   2.462  22.325  0.00  0.00    +0.000 A 
ATOM     10  N   UNL     1       0.815   2.231  21.250  0.00  0.00    +0.000 NA
ATOM     11  C   UNL     1       1.249   3.142  20.324  0.00  0.00    +0.000 A 
ATOM     12  C   UNL     1       0.833   3.343  19.005  0.00  0.00    +0.000 A 
ATOM     13  C   UNL     1       1.456   4.347  18.262  0.00  0.00    +0.000 A 
ATOM     14  F   UNL     1       1.036   4.525  16.998  0.00  0.00    +0.000 F 
ATOM     15  H   UNL     1       3.053   3.853  22.827  0.00  0.00    +0.000 HD
ENDBRANCH   2   5
BRANCH   1  20
ATOM     16  C   UNL     1       6.887   4.803  13.716  0.00  0.00    +0.000 C 
ATOM     17  C   UNL     1       6.482   5.102  15.168  0.00  0.00    +0.000 C 
ATOM     18  C   UNL     1       6.021   3.778  15.800  0.00  0.00    +0.000 C 
ATOM     19  C   UNL     1       5.393   6.188  15.154  0.00  0.00    +0.000 C 
ATOM     20  C   UNL     1       5.100   6.776  16.538  0.00  0.00    +0.000 C 
ATOM     21  C   UNL     1       6.418   7.203  17.190  0.00  0.00    +0.000 C 
ATOM     22  C   UNL     1       7.459   6.091  17.143  0.00  0.00    +0.000 C 
ATOM     23  O   UNL     1       7.660   5.601  15.820  0.00  0.00    +0.000 OA
ENDBRANCH   1  20
TORSDOF 2
ENDMDL
MODEL 2
REMARK VINA RESULT:      -7.3      4.484      5.923
REMARK  Name = 
REMARK  4 active torsions:
REMARK  status: ('A' for Active; 'I' for Inactive)
REMARK    1  A    between atoms: C_1  and  C_2
REMARK    2  A    between atoms: C_2  and  C_3
REMARK    3  A    between atoms: C_5  and  N_6
REMARK    4  A    between atoms: C_7  and  C_9
REMARK                            x       y       z     vdW  Elec       q    Type
REMARK                         _______ _______ _______ _____ _____    ______ ____
ROOT
ATOM      1  N   UNL     1       2.306   7.026  18.910  0.00  0.00    +0.000 N 
ATOM      2  C   UNL     1       1.987   8.307  18.515  0.00  0.00    +0.000 C 
ATOM      3  O   UNL     1       2.187   8.729  17.380  0.00  0.00    +0.000 OA
ATOM      4  H   UNL     1       2.178   6.778  19.886  0.00  0.00    +0.000 HD
ENDROOT
BRANCH   2   5
ATOM      5  C   UNL     1       1.354   9.195  19.530  0.00  0.00    +0.000 A 
ATOM      6  C   UNL     1       0.782   8.587  20.664  0.00  0.00    +0.000 A 
ATOM      7  C   UNL     1       0.178   9.434  21.598  0.00  0.00    +0.000 A 
ATOM      8  N   UNL     1      -0.468   9.191  22.783  0.00  0.00    +0.000 N 
ATOM      9  C   UNL     1      -0.881  10.395  23.286  0.00  0.00    +0.000 A 
ATOM     10  N   UNL     1      -0.533  11.391  22.510  0.00  0.00    +0.000 NA
ATOM     11  C   UNL     1       0.127  10.817  21.456  0.00  0.00    +0.000 A 
ATOM     12  C   UNL     1       0.711  11.415  20.336  0.00  0.00    +0.000 A 
ATOM     13  C   UNL     1       1.321  10.589  19.390  0.00  0.00    +0.000 A 
ATOM     14  F   UNL     1       1.880  11.186  18.324  0.00  0.00    +0.000 F 
ATOM     15  H   UNL     1      -0.618   8.287  23.208  0.00  0.00    +0.000 HD
ENDBRANCH   2   5
BRANCH   1  20
ATOM     16  C   UNL     1       1.298   2.542  18.728  0.00  0.00    +0.000 C 
ATOM     17  C   UNL     1       1.980   3.868  19.100  0.00  0.00    +0.000 C 
ATOM     18  C   UNL     1       1.225   4.453  20.305  0.00  0.00    +0.000 C 
ATOM     19  C   UNL     1       1.967   4.783  17.864  0.00  0.00    +0.000 C 
ATOM     20  C   UNL     1       2.858   6.021  18.012  0.00  0.00    +0.000 C 
ATOM     21  C   UNL     1       4.253   5.583  18.468  0.00  0.00    +0.000 C 
ATOM     22  C   UNL     1       4.189   4.657  19.676  0.00  0.00    +0.000 C 
ATOM     23  O   UNL     1       3.333   3.540  19.450  0.00  0.00    +0.000 OA
ENDBRANCH   1  20
TORSDOF 2
ENDMDL
MODEL 3
REMARK VINA RESULT:      -7.2      3.884      5.172
REMARK  Name = 
REMARK  4 active torsions:
REMARK  status: ('A' for Active; 'I' for Inactive)
REMARK    1  A    between atoms: C_1  and  C_2
REMARK    2  A    between atoms: C_2  and  C_3
REMARK    3  A    between atoms: C_5  and  N_6
REMARK    4  A    between atoms: C_7  and  C_9
REMARK                            x       y       z     vdW  Elec       q    Type
REMARK                         _______ _______ _______ _____ _____    ______ ____
ROOT
ATOM      1  N   UNL     1       3.499   6.047  19.153  0.00  0.00    +0.000 N 
ATOM      2  C   UNL     1       2.372   6.446  19.837  0.00  0.00    +0.000 C 
ATOM      3  O   UNL     1       1.766   5.716  20.616  0.00  0.00    +0.000 OA
ATOM      4  H   UNL     1       3.898   6.685  18.471  0.00  0.00    +0.000 HD
ENDROOT
BRANCH   2   5
ATOM      5  C   UNL     1       1.898   7.841  19.615  0.00  0.00    +0.000 A 
ATOM      6  C   UNL     1       1.277   8.499  20.693  0.00  0.00    +0.000 A 
ATOM      7  C   UNL     1       0.823   9.801  20.462  0.00  0.00    +0.000 A 
ATOM      8  N   UNL     1       0.181  10.712  21.262  0.00  0.00    +0.000 N 
ATOM      9  C   UNL     1      -0.046  11.835  20.515  0.00  0.00    +0.000 A 
ATOM     10  N   UNL     1       0.417  11.710  19.295  0.00  0.00    +0.000 NA
ATOM     11  C   UNL     1       0.962  10.454  19.241  0.00  0.00    +0.000 A 
ATOM     12  C   UNL     1       1.594   9.801  18.180  0.00  0.00    +0.000 A 
ATOM     13  C   UNL     1       2.056   8.500  18.388  0.00  0.00    +0.000 A 
ATOM     14  F   UNL     1       2.665   7.892  17.355  0.00  0.00    +0.000 F 
ATOM     15  H   UNL     1      -0.083  10.577  22.227  0.00  0.00    +0.000 HD
ENDBRANCH   2   5
BRANCH   1  20
ATOM     16  C   UNL     1       7.591   4.653  17.583  0.00  0.00    +0.000 C 
ATOM     17  C   UNL     1       6.082   4.929  17.671  0.00  0.00    +0.000 C 
ATOM     18  C   UNL     1       5.837   6.338  17.107  0.00  0.00    +0.000 C 
ATOM     19  C   UNL     1       5.646   4.770  19.138  0.00  0.00    +0.000 C 
ATOM     20  C   UNL     1       4.125   4.743  19.323  0.00  0.00    +0.000 C 
ATOM     21  C   UNL     1       3.522   3.714  18.363  0.00  0.00    +0.000 C 
ATOM     22  C   UNL     1       4.019   3.911  16.936  0.00  0.00    +0.000 C 
ATOM     23  O   UNL     1       5.442   3.931  16.862  0.00  0.00    +0.000 OA
ENDBRANCH   1  20
TORSDOF 2
ENDMDL
MODEL 4
REMARK VINA RESULT:      -7.1      4.649      6.115
REMARK  Name = 
REMARK  4 active torsions:
REMARK  status: ('A' for Active; 'I' for Inactive)
REMARK    1  A    between atoms: C_1  and  C_2
REMARK    2  A    between atoms: C_2  and  C_3
REMARK    3  A    between atoms: C_5  and  N_6
REMARK    4  A    between atoms: C_7  and  C_9
REMARK                            x       y       z     vdW  Elec       q    Type
REMARK                         _______ _______ _______ _____ _____    ______ ____
ROOT
ATOM      1  N   UNL     1       2.262   6.947  19.095  0.00  0.00    +0.000 N 
ATOM      2  C   UNL     1       1.883   8.246  18.838  0.00  0.00    +0.000 C 
ATOM      3  O   UNL     1       2.028   8.784  17.744  0.00  0.00    +0.000 OA
ATOM      4  H   UNL     1       2.178   6.601  20.045  0.00  0.00    +0.000 HD
ENDROOT
BRANCH   2   5
ATOM      5  C   UNL     1       1.255   9.006  19.955  0.00  0.00    +0.000 A 
ATOM      6  C   UNL     1       0.852  10.330  19.698  0.00  0.00    +0.000 A 
ATOM      7  C   UNL     1       0.279  11.034  20.762  0.00  0.00    +0.000 A 
ATOM      8  N   UNL     1      -0.207  12.312  20.870  0.00  0.00    +0.000 N 
ATOM      9  C   UNL     1      -0.640  12.485  22.156  0.00  0.00    +0.000 A 
ATOM     10  N   UNL     1      -0.475  11.403  22.875  0.00  0.00    +0.000 NA
ATOM     11  C   UNL     1       0.093  10.488  22.029  0.00  0.00    +0.000 A 
ATOM     12  C   UNL     1       0.481   9.168  22.271  0.00  0.00    +0.000 A 
ATOM     13  C   UNL     1       1.054   8.445  21.223  0.00  0.00    +0.000 A 
ATOM     14  F   UNL     1       1.415   7.176  21.479  0.00  0.00    +0.000 F 
ATOM     15  H   UNL     1      -0.236  13.004  20.135  0.00  0.00    +0.000 HD
ENDBRANCH   2   5
BRANCH   1  20
ATOM     16  C   UNL     1       1.398   2.470  18.493  0.00  0.00    +0.000 C 
ATOM     17  C   UNL     1       2.047   3.776  18.976  0.00  0.00    +0.000 C 
ATOM     18  C   UNL     1       1.312   4.211  20.255  0.00  0.00    +0.000 C 
ATOM     19  C   UNL     1       1.966   4.808  17.839  0.00  0.00    +0.000 C 
ATOM     20  C   UNL     1       2.820   6.057  18.085  0.00  0.00    +0.000 C 
ATOM     21  C   UNL     1       4.242   5.626  18.455  0.00  0.00    +0.000 C 
ATOM     22  C   UNL     1       4.246   4.583  19.566  0.00  0.00    +0.000 C 
ATOM     23  O   UNL     1       3.421   3.464  19.253  0.00  0.00    +0.000 OA
ENDBRANCH   1  20
TORSDOF 2
ENDMDL
MODEL 5
REMARK VINA RESULT:      -7.1      4.118      6.226
REMARK  Name = 
REMARK  4 active torsions:
REMARK  status: ('A' for Active; 'I' for Inactive)
REMARK    1  A    between atoms: C_1  and  C_2
REMARK    2  A    between atoms: C_2  and  C_3
REMARK    3  A    between atoms: C_5  and  N_6
REMARK    4  A    between atoms: C_7  and  C_9
REMARK                            x       y       z     vdW  Elec       q    Type
REMARK                         _______ _______ _______ _____ _____    ______ ____
ROOT
ATOM      1  N   UNL     1       2.256   6.197  18.386  0.00  0.00    +0.000 N 
ATOM      2  C   UNL     1       2.684   7.488  18.169  0.00  0.00    +0.000 C 
ATOM      3  O   UNL     1       3.646   7.766  17.459  0.00  0.00    +0.000 OA
ATOM      4  H   UNL     1       1.499   6.046  19.046  0.00  0.00    +0.000 HD
ENDROOT
BRANCH   2   5
ATOM      5  C   UNL     1       1.913   8.581  18.826  0.00  0.00    +0.000 A 
ATOM      6  C   UNL     1       1.630   9.730  18.063  0.00  0.00    +0.000 A 
ATOM      7  C   UNL     1       0.920  10.752  18.700  0.00  0.00    +0.000 A 
ATOM      8  N   UNL     1       0.490  11.983  18.274  0.00  0.00    +0.000 N 
ATOM      9  C   UNL     1      -0.148  12.587  19.323  0.00  0.00    +0.000 A 
ATOM     10  N   UNL     1      -0.166  11.822  20.386  0.00  0.00    +0.000 NA
ATOM     11  C   UNL     1       0.490  10.677  20.022  0.00  0.00    +0.000 A 
ATOM     12  C   UNL     1       0.761   9.527  20.767  0.00  0.00    +0.000 A 
ATOM     13  C   UNL     1       1.468   8.492  20.151  0.00  0.00    +0.000 A 
ATOM     14  F   UNL     1       1.712   7.394  20.887  0.00  0.00    +0.000 F 
ATOM     15  H   UNL     1       0.625  12.377  17.354  0.00  0.00    +0.000 HD
ENDBRANCH   2   5
BRANCH   1  20
ATOM     16  C   UNL     1       1.093   1.778  18.914  0.00  0.00    +0.000 C 
ATOM     17  C   UNL     1       1.784   3.136  19.112  0.00  0.00    +0.000 C 
ATOM     18  C   UNL     1       0.930   3.950  20.098  0.00  0.00    +0.000 C 
ATOM     19  C   UNL     1       1.940   3.806  17.736  0.00  0.00    +0.000 C 
ATOM     20  C   UNL     1       2.860   5.032  17.754  0.00  0.00    +0.000 C 
ATOM     21  C   UNL     1       4.179   4.658  18.435  0.00  0.00    +0.000 C 
ATOM     22  C   UNL     1       3.950   3.974  19.777  0.00  0.00    +0.000 C 
ATOM     23  O   UNL     1       3.078   2.852  19.664  0.00  0.00    +0.000 OA
ENDBRANCH   1  20
TORSDOF 2
ENDMDL
MODEL 6
REMARK VINA RESULT:      -7.0      3.788      5.982
REMARK  Name = 
REMARK  4 active torsions:
REMARK  status: ('A' for Active; 'I' for Inactive)
REMARK    1  A    between atoms: C_1  and  C_2
REMARK    2  A    between atoms: C_2  and  C_3
REMARK    3  A    between atoms: C_5  and  N_6
REMARK    4  A    between atoms: C_7  and  C_9
REMARK                            x       y       z     vdW  Elec       q    Type
REMARK                         _______ _______ _______ _____ _____    ______ ____
ROOT
ATOM      1  N   UNL     1       2.493   5.529  20.454  0.00  0.00    +0.000 N 
ATOM      2  C   UNL     1       3.006   6.462  19.580  0.00  0.00    +0.000 C 
ATOM      3  O   UNL     1       4.058   6.301  18.968  0.00  0.00    +0.000 OA
ATOM      4  H   UNL     1       1.657   5.769  20.977  0.00  0.00    +0.000 HD
ENDROOT
BRANCH   2   5
ATOM      5  C   UNL     1       2.217   7.709  19.374  0.00  0.00    +0.000 A 
ATOM      6  C   UNL     1       1.467   8.194  20.462  0.00  0.00    +0.000 A 
ATOM      7  C   UNL     1       0.719   9.355  20.247  0.00  0.00    +0.000 A 
ATOM      8  N   UNL     1      -0.112  10.083  21.059  0.00  0.00    +0.000 N 
ATOM      9  C   UNL     1      -0.601  11.129  20.325  0.00  0.00    +0.000 A 
ATOM     10  N   UNL     1      -0.130  11.126  19.102  0.00  0.00    +0.000 NA
ATOM     11  C   UNL     1       0.693  10.034  19.032  0.00  0.00    +0.000 A 
ATOM     12  C   UNL     1       1.452   9.555  17.961  0.00  0.00    +0.000 A 
ATOM     13  C   UNL     1       2.208   8.397  18.154  0.00  0.00    +0.000 A 
ATOM     14  F   UNL     1       2.934   7.958  17.111  0.00  0.00    +0.000 F 
ATOM     15  H   UNL     1      -0.330   9.882  22.024  0.00  0.00    +0.000 HD
ENDBRANCH   2   5
BRANCH   1  20
ATOM     16  C   UNL     1       2.780   1.945  17.585  0.00  0.00    +0.000 C 
ATOM     17  C   UNL     1       2.269   2.904  18.672  0.00  0.00    +0.000 C 
ATOM     18  C   UNL     1       1.409   3.973  17.977  0.00  0.00    +0.000 C 
ATOM     19  C   UNL     1       3.483   3.483  19.418  0.00  0.00    +0.000 C 
ATOM     20  C   UNL     1       3.110   4.233  20.701  0.00  0.00    +0.000 C 
ATOM     21  C   UNL     1       2.201   3.344  21.555  0.00  0.00    +0.000 C 
ATOM     22  C   UNL     1       1.038   2.782  20.747  0.00  0.00    +0.000 C 
ATOM     23  O   UNL     1       1.479   2.110  19.569  0.00  0.00    +0.000 OA
ENDBRANCH   1  20
TORSDOF 2
ENDMDL
MODEL 7
REMARK VINA RESULT:      -6.9      4.598      6.309
REMARK  Name = 
REMARK  4 active torsions:
REMARK  status: ('A' for Active; 'I' for Inactive)
REMARK    1  A    between atoms: C_1  and  C_2
REMARK    2  A    between atoms: C_2  and  C_3
REMARK    3  A    between atoms: C_5  and  N_6
REMARK    4  A    between atoms: C_7  and  C_9
REMARK                            x       y       z     vdW  Elec       q    Type
REMARK                         _______ _______ _______ _____ _____    ______ ____
ROOT
ATOM      1  N   UNL     1       2.073   6.816  18.548  0.00  0.00    +0.000 N 
ATOM      2  C   UNL     1       2.086   8.145  18.189  0.00  0.00    +0.000 C 
ATOM      3  O   UNL     1       2.776   8.587  17.276  0.00  0.00    +0.000 OA
ATOM      4  H   UNL     1       1.532   6.543  19.363  0.00  0.00    +0.000 HD
ENDROOT
BRANCH   2   5
ATOM      5  C   UNL     1       1.197   9.066  18.953  0.00  0.00    +0.000 A 
ATOM      6  C   UNL     1       0.404   9.966  18.218  0.00  0.00    +0.000 A 
ATOM      7  C   UNL     1      -0.412  10.834  18.950  0.00  0.00    +0.000 A 
ATOM      8  N   UNL     1      -1.286  11.821  18.572  0.00  0.00    +0.000 N 
ATOM      9  C   UNL     1      -1.810  12.371  19.710  0.00  0.00    +0.000 A 
ATOM     10  N   UNL     1      -1.340  11.796  20.789  0.00  0.00    +0.000 NA
ATOM     11  C   UNL     1      -0.471  10.837  20.341  0.00  0.00    +0.000 A 
ATOM     12  C   UNL     1       0.308   9.929  21.063  0.00  0.00    +0.000 A 
ATOM     13  C   UNL     1       1.129   9.052  20.352  0.00  0.00    +0.000 A 
ATOM     14  F   UNL     1       1.865   8.185  21.068  0.00  0.00    +0.000 F 
ATOM     15  H   UNL     1      -1.501  12.098  17.625  0.00  0.00    +0.000 HD
ENDBRANCH   2   5
BRANCH   1  20
ATOM     16  C   UNL     1       1.594   2.252  18.870  0.00  0.00    +0.000 C 
ATOM     17  C   UNL     1       2.080   3.688  19.125  0.00  0.00    +0.000 C 
ATOM     18  C   UNL     1       1.138   4.316  20.165  0.00  0.00    +0.000 C 
ATOM     19  C   UNL     1       2.102   4.438  17.783  0.00  0.00    +0.000 C 
ATOM     20  C   UNL     1       2.829   5.785  17.848  0.00  0.00    +0.000 C 
ATOM     21  C   UNL     1       4.205   5.581  18.488  0.00  0.00    +0.000 C 
ATOM     22  C   UNL     1       4.112   4.808  19.797  0.00  0.00    +0.000 C 
ATOM     23  O   UNL     1       3.415   3.574  19.642  0.00  0.00    +0.000 OA
ENDBRANCH   1  20
TORSDOF 2
ENDMDL
MODEL 8
REMARK VINA RESULT:      -6.8      2.798      7.066
REMARK  Name = 
REMARK  4 active torsions:
REMARK  status: ('A' for Active; 'I' for Inactive)
REMARK    1  A    between atoms: C_1  and  C_2
REMARK    2  A    between atoms: C_2  and  C_3
REMARK    3  A    between atoms: C_5  and  N_6
REMARK    4  A    between atoms: C_7  and  C_9
REMARK                            x       y       z     vdW  Elec       q    Type
REMARK                         _______ _______ _______ _____ _____    ______ ____
ROOT
ATOM      1  N   UNL     1       4.666   4.364  18.096  0.00  0.00    +0.000 N 
ATOM      2  C   UNL     1       6.011   4.432  17.803  0.00  0.00    +0.000 C 
ATOM      3  O   UNL     1       6.888   4.375  18.659  0.00  0.00    +0.000 OA
ATOM      4  H   UNL     1       4.002   4.494  17.340  0.00  0.00    +0.000 HD
ENDROOT
BRANCH   2   5
ATOM      5  C   UNL     1       6.389   4.564  16.368  0.00  0.00    +0.000 A 
ATOM      6  C   UNL     1       5.890   3.602  15.470  0.00  0.00    +0.000 A 
ATOM      7  C   UNL     1       6.269   3.732  14.130  0.00  0.00    +0.000 A 
ATOM      8  N   UNL     1       5.984   2.988  13.013  0.00  0.00    +0.000 N 
ATOM      9  C   UNL     1       6.635   3.561  11.955  0.00  0.00    +0.000 A 
ATOM     10  N   UNL     1       7.307   4.626  12.316  0.00  0.00    +0.000 NA
ATOM     11  C   UNL     1       7.092   4.752  13.663  0.00  0.00    +0.000 A 
ATOM     12  C   UNL     1       7.570   5.713  14.558  0.00  0.00    +0.000 A 
ATOM     13  C   UNL     1       7.204   5.603  15.901  0.00  0.00    +0.000 A 
ATOM     14  F   UNL     1       7.672   6.542  16.742  0.00  0.00    +0.000 F 
ATOM     15  H   UNL     1       5.403   2.163  12.977  0.00  0.00    +0.000 HD
ENDBRANCH   2   5
BRANCH   1  20
ATOM     16  C   UNL     1       0.646   2.488  19.311  0.00  0.00    +0.000 C 
ATOM     17  C   UNL     1       1.712   3.525  18.923  0.00  0.00    +0.000 C 
ATOM     18  C   UNL     1       1.718   3.629  17.389  0.00  0.00    +0.000 C 
ATOM     19  C   UNL     1       3.060   3.079  19.514  0.00  0.00    +0.000 C 
ATOM     20  C   UNL     1       4.145   4.159  19.441  0.00  0.00    +0.000 C 
ATOM     21  C   UNL     1       3.594   5.463  20.023  0.00  0.00    +0.000 C 
ATOM     22  C   UNL     1       2.245   5.828  19.416  0.00  0.00    +0.000 C 
ATOM     23  O   UNL     1       1.303   4.764  19.522  0.00  0.00    +0.000 OA
ENDBRANCH   1  20
TORSDOF 2
ENDMDL
MODEL 9
REMARK VINA RESULT:      -6.8      3.119      4.756
REMARK  Name = 
REMARK  4 active torsions:
REMARK  status: ('A' for Active; 'I' for Inactive)
REMARK    1  A    between atoms: C_1  and  C_2
REMARK    2  A    between atoms: C_2  and  C_3
REMARK    3  A    between atoms: C_5  and  N_6
REMARK    4  A    between atoms: C_7  and  C_9
REMARK                            x       y       z     vdW  Elec       q    Type
REMARK                         _______ _______ _______ _____ _____    ______ ____
ROOT
ATOM      1  N   UNL     1       3.955   5.694  17.585  0.00  0.00    +0.000 N 
ATOM      2  C   UNL     1       2.722   5.702  18.198  0.00  0.00    +0.000 C 
ATOM      3  O   UNL     1       2.035   4.694  18.339  0.00  0.00    +0.000 OA
ATOM      4  H   UNL     1       4.426   6.581  17.441  0.00  0.00    +0.000 HD
ENDROOT
BRANCH   2   5
ATOM      5  C   UNL     1       2.229   7.007  18.721  0.00  0.00    +0.000 A 
ATOM      6  C   UNL     1       2.177   8.091  17.825  0.00  0.00    +0.000 A 
ATOM      7  C   UNL     1       1.729   9.313  18.336  0.00  0.00    +0.000 A 
ATOM      8  N   UNL     1       1.563  10.549  17.765  0.00  0.00    +0.000 N 
ATOM      9  C   UNL     1       1.106  11.398  18.735  0.00  0.00    +0.000 A 
ATOM     10  N   UNL     1       0.958  10.788  19.885  0.00  0.00    +0.000 NA
ATOM     11  C   UNL     1       1.337   9.491  19.659  0.00  0.00    +0.000 A 
ATOM     12  C   UNL     1       1.376   8.406  20.539  0.00  0.00    +0.000 A 
ATOM     13  C   UNL     1       1.820   7.176  20.050  0.00  0.00    +0.000 A 
ATOM     14  F   UNL     1       1.844   6.146  20.913  0.00  0.00    +0.000 F 
ATOM     15  H   UNL     1       1.749  10.792  16.802  0.00  0.00    +0.000 HD
ENDBRANCH   2   5
BRANCH   1  20
ATOM     16  C   UNL     1       8.348   4.430  18.098  0.00  0.00    +0.000 C 
ATOM     17  C   UNL     1       7.069   5.052  17.515  0.00  0.00    +0.000 C 
ATOM     18  C   UNL     1       6.933   6.466  18.103  0.00  0.00    +0.000 C 
ATOM     19  C   UNL     1       5.885   4.130  17.850  0.00  0.00    +0.000 C 
ATOM     20  C   UNL     1       4.601   4.485  17.092  0.00  0.00    +0.000 C 
ATOM     21  C   UNL     1       4.917   4.599  15.598  0.00  0.00    +0.000 C 
ATOM     22  C   UNL     1       6.117   5.502  15.341  0.00  0.00    +0.000 C 
ATOM     23  O   UNL     1       7.260   5.102  16.093  0.00  0.00    +0.000 OA
ENDBRANCH   1  20
TORSDOF 2
ENDMDL
