MODEL 1
REMARK VINA RESULT:      -8.8      0.000      0.000
REMARK  Name = 
REMARK  0 active torsions:
REMARK  status: ('A' for Active; 'I' for Inactive)
REMARK                            x       y       z     vdW  Elec       q    Type
REMARK                         _______ _______ _______ _____ _____    ______ ____
ROOT
ATOM      1 CL   UNL     1      -6.073  12.227  17.191  0.00  0.00    +0.000 Cl
ATOM      2  C   UNL     1      -4.490  11.549  17.216  0.00  0.00    +0.000 A 
ATOM      3  C   UNL     1      -3.966  10.985  16.059  0.00  0.00    +0.000 A 
ATOM      4  C   UNL     1      -2.675  10.442  16.062  0.00  0.00    +0.000 A 
ATOM      5  C   UNL     1      -1.909  10.461  17.248  0.00  0.00    +0.000 A 
ATOM      6  N   UNL     1      -0.620   9.981  17.396  0.00  0.00    +0.000 NA
ATOM      7  C   UNL     1      -0.200  10.098  18.639  0.00  0.00    +0.000 A 
ATOM      8  N   UNL     1       1.041   9.724  19.064  0.00  0.00    +0.000 N 
ATOM      9  C   UNL     1       1.300   9.256  20.439  0.00  0.00    +0.000 C 
ATOM     10  C   UNL     1       1.519   7.722  20.527  0.00  0.00    +0.000 C 
ATOM     11  C   UNL     1       2.338   7.205  19.388  0.00  0.00    +0.000 A 
ATOM     12  C   UNL     1       2.566   7.987  18.275  0.00  0.00    +0.000 A 
ATOM     13  N   UNL     1       3.299   7.267  17.380  0.00  0.00    +0.000 N 
ATOM     14  C   UNL     1       3.531   6.003  17.882  0.00  0.00    +0.000 A 
ATOM     15  C   UNL     1       4.211   4.924  17.297  0.00  0.00    +0.000 A 
ATOM     16  C   UNL     1       4.281   3.722  18.010  0.00  0.00    +0.000 A 
ATOM     17  C   UNL     1       3.699   3.604  19.267  0.00  0.00    +0.000 A 
ATOM     18  C   UNL     1       3.035   4.694  19.830  0.00  0.00    +0.000 A 
ATOM     19 CL   UNL     1       2.295   4.572  21.367  0.00  0.00    +0.000 Cl
ATOM     20  C   UNL     1       2.934   5.928  19.152  0.00  0.00    +0.000 A 
ATOM     21  C   UNL     1       2.065   9.376  18.071  0.00  0.00    +0.000 C 
ATOM     22  S   UNL     1      -1.349  10.869  19.683  0.00  0.00    +0.000 S 
ATOM     23  C   UNL     1      -2.470  11.014  18.394  0.00  0.00    +0.000 A 
ATOM     24  C   UNL     1      -3.758  11.577  18.405  0.00  0.00    +0.000 A 
ATOM     25  H   UNL     1       3.599   7.587  16.469  0.00  0.00    +0.000 HD
ENDROOT
TORSDOF 0
ENDMDL
MODEL 2
REMARK VINA RESULT:      -7.7      3.536      8.825
REMARK  Name = 
REMARK  0 active torsions:
REMARK  status: ('A' for Active; 'I' for Inactive)
REMARK                            x       y       z     vdW  Elec       q    Type
REMARK                         _______ _______ _______ _____ _____    ______ ____
ROOT
ATOM      1 CL   UNL     1       3.424   5.573  17.678  0.00  0.00    +0.000 Cl
ATOM      2  C   UNL     1       2.616   6.749  18.644  0.00  0.00    +0.000 A 
ATOM      3  C   UNL     1       2.304   6.455  19.966  0.00  0.00    +0.000 A 
ATOM      4  C   UNL     1       1.657   7.406  20.765  0.00  0.00    +0.000 A 
ATOM      5  C   UNL     1       1.316   8.663  20.222  0.00  0.00    +0.000 A 
ATOM      6  N   UNL     1       0.696   9.703  20.892  0.00  0.00    +0.000 NA
ATOM      7  C   UNL     1       0.467  10.725  20.093  0.00  0.00    +0.000 A 
ATOM      8  N   UNL     1      -0.113  11.892  20.495  0.00  0.00    +0.000 N 
ATOM      9  C   UNL     1      -0.923  12.727  19.588  0.00  0.00    +0.000 C 
ATOM     10  C   UNL     1      -2.446  12.629  19.870  0.00  0.00    +0.000 C 
ATOM     11  C   UNL     1      -2.745  12.598  21.335  0.00  0.00    +0.000 A 
ATOM     12  C   UNL     1      -1.741  12.369  22.252  0.00  0.00    +0.000 A 
ATOM     13  N   UNL     1      -2.287  12.352  23.500  0.00  0.00    +0.000 N 
ATOM     14  C   UNL     1      -3.652  12.538  23.411  0.00  0.00    +0.000 A 
ATOM     15  C   UNL     1      -4.615  12.565  24.431  0.00  0.00    +0.000 A 
ATOM     16  C   UNL     1      -5.955  12.741  24.070  0.00  0.00    +0.000 A 
ATOM     17  C   UNL     1      -6.320  12.895  22.737  0.00  0.00    +0.000 A 
ATOM     18  C   UNL     1      -5.342  12.874  21.743  0.00  0.00    +0.000 A 
ATOM     19 CL   UNL     1      -5.764  13.042  20.094  0.00  0.00    +0.000 Cl
ATOM     20  C   UNL     1      -3.976  12.696  22.054  0.00  0.00    +0.000 A 
ATOM     21  C   UNL     1      -0.304  12.143  21.929  0.00  0.00    +0.000 C 
ATOM     22  S   UNL     1       1.066  10.488  18.484  0.00  0.00    +0.000 S 
ATOM     23  C   UNL     1       1.625   8.918  18.889  0.00  0.00    +0.000 A 
ATOM     24  C   UNL     1       2.285   7.981  18.077  0.00  0.00    +0.000 A 
ATOM     25  H   UNL     1      -1.785  12.189  24.363  0.00  0.00    +0.000 HD
ENDROOT
TORSDOF 0
ENDMDL
MODEL 3
REMARK VINA RESULT:      -7.4      2.971      8.449
REMARK  Name = 
REMARK  0 active torsions:
REMARK  status: ('A' for Active; 'I' for Inactive)
REMARK                            x       y       z     vdW  Elec       q    Type
REMARK                         _______ _______ _______ _____ _____    ______ ____
ROOT
ATOM      1 CL   UNL     1       3.365   3.584  17.940  0.00  0.00    +0.000 Cl
ATOM      2  C   UNL     1       2.770   4.987  18.745  0.00  0.00    +0.000 A 
ATOM      3  C   UNL     1       2.441   4.917  20.094  0.00  0.00    +0.000 A 
ATOM      4  C   UNL     1       1.968   6.053  20.762  0.00  0.00    +0.000 A 
ATOM      5  C   UNL     1       1.818   7.268  20.061  0.00  0.00    +0.000 A 
ATOM      6  N   UNL     1       1.382   8.470  20.591  0.00  0.00    +0.000 NA
ATOM      7  C   UNL     1       1.302   9.405  19.667  0.00  0.00    +0.000 A 
ATOM      8  N   UNL     1       0.919  10.691  19.914  0.00  0.00    +0.000 N 
ATOM      9  C   UNL     1       0.233  11.521  18.905  0.00  0.00    +0.000 C 
ATOM     10  C   UNL     1      -1.280  11.702  19.196  0.00  0.00    +0.000 C 
ATOM     11  C   UNL     1      -1.553  11.906  20.652  0.00  0.00    +0.000 A 
ATOM     12  C   UNL     1      -0.580  11.640  21.593  0.00  0.00    +0.000 A 
ATOM     13  N   UNL     1      -1.098  11.869  22.832  0.00  0.00    +0.000 N 
ATOM     14  C   UNL     1      -2.417  12.255  22.718  0.00  0.00    +0.000 A 
ATOM     15  C   UNL     1      -3.345  12.564  23.725  0.00  0.00    +0.000 A 
ATOM     16  C   UNL     1      -4.647  12.902  23.342  0.00  0.00    +0.000 A 
ATOM     17  C   UNL     1      -5.009  12.941  22.000  0.00  0.00    +0.000 A 
ATOM     18  C   UNL     1      -4.065  12.639  21.017  0.00  0.00    +0.000 A 
ATOM     19 CL   UNL     1      -4.487  12.660  19.361  0.00  0.00    +0.000 Cl
ATOM     20  C   UNL     1      -2.739  12.288  21.351  0.00  0.00    +0.000 A 
ATOM     21  C   UNL     1       0.798  11.149  21.304  0.00  0.00    +0.000 C 
ATOM     22  S   UNL     1       1.824   8.873  18.102  0.00  0.00    +0.000 S 
ATOM     23  C   UNL     1       2.137   7.299  18.707  0.00  0.00    +0.000 A 
ATOM     24  C   UNL     1       2.627   6.174  18.023  0.00  0.00    +0.000 A 
ATOM     25  H   UNL     1      -0.611  11.740  23.709  0.00  0.00    +0.000 HD
ENDROOT
TORSDOF 0
ENDMDL
MODEL 4
REMARK VINA RESULT:      -7.3      1.009      1.236
REMARK  Name = 
REMARK  0 active torsions:
REMARK  status: ('A' for Active; 'I' for Inactive)
REMARK                            x       y       z     vdW  Elec       q    Type
REMARK                         _______ _______ _______ _____ _____    ______ ____
ROOT
ATOM      1 CL   UNL     1      -7.018  12.698  18.080  0.00  0.00    +0.000 Cl
ATOM      2  C   UNL     1      -5.388  12.145  17.999  0.00  0.00    +0.000 A 
ATOM      3  C   UNL     1      -4.865  11.724  16.781  0.00  0.00    +0.000 A 
ATOM      4  C   UNL     1      -3.538  11.284  16.699  0.00  0.00    +0.000 A 
ATOM      5  C   UNL     1      -2.734  11.261  17.858  0.00  0.00    +0.000 A 
ATOM      6  N   UNL     1      -1.408  10.871  17.926  0.00  0.00    +0.000 NA
ATOM      7  C   UNL     1      -0.954  10.913  19.162  0.00  0.00    +0.000 A 
ATOM      8  N   UNL     1       0.326  10.601  19.516  0.00  0.00    +0.000 N 
ATOM      9  C   UNL     1       0.668  10.038  20.836  0.00  0.00    +0.000 C 
ATOM     10  C   UNL     1       1.004   8.525  20.782  0.00  0.00    +0.000 C 
ATOM     11  C   UNL     1       1.817   8.171  19.579  0.00  0.00    +0.000 A 
ATOM     12  C   UNL     1       1.947   9.061  18.533  0.00  0.00    +0.000 A 
ATOM     13  N   UNL     1       2.698   8.479  17.557  0.00  0.00    +0.000 N 
ATOM     14  C   UNL     1       3.041   7.198  17.938  0.00  0.00    +0.000 A 
ATOM     15  C   UNL     1       3.779   6.229  17.241  0.00  0.00    +0.000 A 
ATOM     16  C   UNL     1       3.963   4.979  17.843  0.00  0.00    +0.000 A 
ATOM     17  C   UNL     1       3.437   4.709  19.101  0.00  0.00    +0.000 A 
ATOM     18  C   UNL     1       2.715   5.694  19.778  0.00  0.00    +0.000 A 
ATOM     19 CL   UNL     1       2.041   5.384  21.318  0.00  0.00    +0.000 Cl
ATOM     20  C   UNL     1       2.498   6.969  19.214  0.00  0.00    +0.000 A 
ATOM     21  C   UNL     1       1.336  10.419  18.466  0.00  0.00    +0.000 C 
ATOM     22  S   UNL     1      -2.119  11.501  20.303  0.00  0.00    +0.000 S 
ATOM     23  C   UNL     1      -3.294  11.669  19.065  0.00  0.00    +0.000 A 
ATOM     24  C   UNL     1      -4.618  12.127  19.163  0.00  0.00    +0.000 A 
ATOM     25  H   UNL     1       2.941   8.897  16.669  0.00  0.00    +0.000 HD
ENDROOT
TORSDOF 0
ENDMDL
MODEL 5
REMARK VINA RESULT:      -7.1      2.976      8.257
REMARK  Name = 
REMARK  0 active torsions:
REMARK  status: ('A' for Active; 'I' for Inactive)
REMARK                            x       y       z     vdW  Elec       q    Type
REMARK                         _______ _______ _______ _____ _____    ______ ____
ROOT
ATOM      1 CL   UNL     1       2.662   1.756  18.025  0.00  0.00    +0.000 Cl
ATOM      2  C   UNL     1       2.297   3.228  18.843  0.00  0.00    +0.000 A 
ATOM      3  C   UNL     1       1.724   3.186  20.109  0.00  0.00    +0.000 A 
ATOM      4  C   UNL     1       1.433   4.375  20.789  0.00  0.00    +0.000 A 
ATOM      5  C   UNL     1       1.716   5.618  20.183  0.00  0.00    +0.000 A 
ATOM      6  N   UNL     1       1.501   6.867  20.739  0.00  0.00    +0.000 NA
ATOM      7  C   UNL     1       1.821   7.831  19.900  0.00  0.00    +0.000 A 
ATOM      8  N   UNL     1       1.729   9.159  20.194  0.00  0.00    +0.000 N 
ATOM      9  C   UNL     1       1.461  10.182  19.164  0.00  0.00    +0.000 C 
ATOM     10  C   UNL     1       0.012  10.734  19.221  0.00  0.00    +0.000 C 
ATOM     11  C   UNL     1      -0.458  10.937  20.625  0.00  0.00    +0.000 A 
ATOM     12  C   UNL     1       0.234  10.388  21.684  0.00  0.00    +0.000 A 
ATOM     13  N   UNL     1      -0.425  10.688  22.838  0.00  0.00    +0.000 N 
ATOM     14  C   UNL     1      -1.566  11.407  22.546  0.00  0.00    +0.000 A 
ATOM     15  C   UNL     1      -2.554  11.900  23.412  0.00  0.00    +0.000 A 
ATOM     16  C   UNL     1      -3.643  12.579  22.855  0.00  0.00    +0.000 A 
ATOM     17  C   UNL     1      -3.737  12.768  21.481  0.00  0.00    +0.000 A 
ATOM     18  C   UNL     1      -2.737  12.276  20.641  0.00  0.00    +0.000 A 
ATOM     19 CL   UNL     1      -2.836  12.479  18.947  0.00  0.00    +0.000 Cl
ATOM     20  C   UNL     1      -1.619  11.582  21.153  0.00  0.00    +0.000 A 
ATOM     21  C   UNL     1       1.477   9.572  21.580  0.00  0.00    +0.000 C 
ATOM     22  S   UNL     1       2.468   7.251  18.400  0.00  0.00    +0.000 S 
ATOM     23  C   UNL     1       2.270   5.625  18.907  0.00  0.00    +0.000 A 
ATOM     24  C   UNL     1       2.582   4.442  18.215  0.00  0.00    +0.000 A 
ATOM     25  H   UNL     1      -0.150  10.400  23.767  0.00  0.00    +0.000 HD
ENDROOT
TORSDOF 0
ENDMDL
MODEL 6
REMARK VINA RESULT:      -7.1      1.756      2.138
REMARK  Name = 
REMARK  0 active torsions:
REMARK  status: ('A' for Active; 'I' for Inactive)
REMARK                            x       y       z     vdW  Elec       q    Type
REMARK                         _______ _______ _______ _____ _____    ______ ____
ROOT
ATOM      1 CL   UNL     1      -4.263  13.583  20.099  0.00  0.00    +0.000 Cl
ATOM      2  C   UNL     1      -3.040  12.436  19.702  0.00  0.00    +0.000 A 
ATOM      3  C   UNL     1      -2.940  11.963  18.399  0.00  0.00    +0.000 A 
ATOM      4  C   UNL     1      -1.943  11.039  18.060  0.00  0.00    +0.000 A 
ATOM      5  C   UNL     1      -1.044  10.584  19.048  0.00  0.00    +0.000 A 
ATOM      6  N   UNL     1      -0.003   9.692  18.857  0.00  0.00    +0.000 NA
ATOM      7  C   UNL     1       0.621   9.429  19.987  0.00  0.00    +0.000 A 
ATOM      8  N   UNL     1       1.699   8.599  20.088  0.00  0.00    +0.000 N 
ATOM      9  C   UNL     1       1.988   7.821  21.308  0.00  0.00    +0.000 C 
ATOM     10  C   UNL     1       1.659   6.313  21.158  0.00  0.00    +0.000 C 
ATOM     11  C   UNL     1       2.050   5.782  19.816  0.00  0.00    +0.000 A 
ATOM     12  C   UNL     1       2.363   6.643  18.784  0.00  0.00    +0.000 A 
ATOM     13  N   UNL     1       2.641   5.907  17.672  0.00  0.00    +0.000 N 
ATOM     14  C   UNL     1       2.485   4.566  17.953  0.00  0.00    +0.000 A 
ATOM     15  C   UNL     1       2.637   3.455  17.109  0.00  0.00    +0.000 A 
ATOM     16  C   UNL     1       2.386   2.184  17.637  0.00  0.00    +0.000 A 
ATOM     17  C   UNL     1       2.006   2.026  18.965  0.00  0.00    +0.000 A 
ATOM     18  C   UNL     1       1.871   3.146  19.787  0.00  0.00    +0.000 A 
ATOM     19 CL   UNL     1       1.388   2.983  21.419  0.00  0.00    +0.000 Cl
ATOM     20  C   UNL     1       2.109   4.450  19.303  0.00  0.00    +0.000 A 
ATOM     21  C   UNL     1       2.362   8.132  18.864  0.00  0.00    +0.000 C 
ATOM     22  S   UNL     1       0.001  10.320  21.339  0.00  0.00    +0.000 S 
ATOM     23  C   UNL     1      -1.184  11.062  20.347  0.00  0.00    +0.000 A 
ATOM     24  C   UNL     1      -2.169  12.000  20.701  0.00  0.00    +0.000 A 
ATOM     25  H   UNL     1       2.887   6.278  16.765  0.00  0.00    +0.000 HD
ENDROOT
TORSDOF 0
ENDMDL
MODEL 7
REMARK VINA RESULT:      -6.9      4.142      7.976
REMARK  Name = 
REMARK  0 active torsions:
REMARK  status: ('A' for Active; 'I' for Inactive)
REMARK                            x       y       z     vdW  Elec       q    Type
REMARK                         _______ _______ _______ _____ _____    ______ ____
ROOT
ATOM      1 CL   UNL     1       3.389   2.926  20.405  0.00  0.00    +0.000 Cl
ATOM      2  C   UNL     1       3.051   4.537  19.898  0.00  0.00    +0.000 A 
ATOM      3  C   UNL     1       3.615   5.021  18.723  0.00  0.00    +0.000 A 
ATOM      4  C   UNL     1       3.339   6.325  18.294  0.00  0.00    +0.000 A 
ATOM      5  C   UNL     1       2.490   7.151  19.061  0.00  0.00    +0.000 A 
ATOM      6  N   UNL     1       2.114   8.447  18.754  0.00  0.00    +0.000 NA
ATOM      7  C   UNL     1       1.355   8.966  19.697  0.00  0.00    +0.000 A 
ATOM      8  N   UNL     1       0.825  10.222  19.644  0.00  0.00    +0.000 N 
ATOM      9  C   UNL     1       0.552  11.018  20.856  0.00  0.00    +0.000 C 
ATOM     10  C   UNL     1       1.577  12.163  21.073  0.00  0.00    +0.000 C 
ATOM     11  C   UNL     1       1.941  12.842  19.791  0.00  0.00    +0.000 A 
ATOM     12  C   UNL     1       1.619  12.271  18.578  0.00  0.00    +0.000 A 
ATOM     13  N   UNL     1       2.097  13.067  17.581  0.00  0.00    +0.000 N 
ATOM     14  C   UNL     1       2.761  14.146  18.128  0.00  0.00    +0.000 A 
ATOM     15  C   UNL     1       3.431  15.198  17.486  0.00  0.00    +0.000 A 
ATOM     16  C   UNL     1       4.059  16.164  18.280  0.00  0.00    +0.000 A 
ATOM     17  C   UNL     1       4.011  16.088  19.668  0.00  0.00    +0.000 A 
ATOM     18  C   UNL     1       3.330  15.036  20.282  0.00  0.00    +0.000 A 
ATOM     19 CL   UNL     1       3.271  14.907  21.986  0.00  0.00    +0.000 Cl
ATOM     20  C   UNL     1       2.683  14.034  19.527  0.00  0.00    +0.000 A 
ATOM     21  C   UNL     1       0.898  10.980  18.389  0.00  0.00    +0.000 C 
ATOM     22  S   UNL     1       1.007   7.861  20.987  0.00  0.00    +0.000 S 
ATOM     23  C   UNL     1       1.957   6.644  20.242  0.00  0.00    +0.000 A 
ATOM     24  C   UNL     1       2.212   5.333  20.681  0.00  0.00    +0.000 A 
ATOM     25  H   UNL     1       2.018  12.884  16.590  0.00  0.00    +0.000 HD
ENDROOT
TORSDOF 0
ENDMDL
MODEL 8
REMARK VINA RESULT:      -6.9      7.236      8.075
REMARK  Name = 
REMARK  0 active torsions:
REMARK  status: ('A' for Active; 'I' for Inactive)
REMARK                            x       y       z     vdW  Elec       q    Type
REMARK                         _______ _______ _______ _____ _____    ______ ____
ROOT
ATOM      1 CL   UNL     1      -1.887  13.471  20.267  0.00  0.00    +0.000 Cl
ATOM      2  C   UNL     1      -0.265  13.523  19.690  0.00  0.00    +0.000 A 
ATOM      3  C   UNL     1       0.203  12.508  18.863  0.00  0.00    +0.000 A 
ATOM      4  C   UNL     1       1.516  12.544  18.378  0.00  0.00    +0.000 A 
ATOM      5  C   UNL     1       2.367  13.612  18.736  0.00  0.00    +0.000 A 
ATOM      6  N   UNL     1       3.675  13.789  18.320  0.00  0.00    +0.000 NA
ATOM      7  C   UNL     1       4.216  14.857  18.871  0.00  0.00    +0.000 A 
ATOM      8  N   UNL     1       5.488  15.282  18.622  0.00  0.00    +0.000 N 
ATOM      9  C   UNL     1       6.290  16.011  19.624  0.00  0.00    +0.000 C 
ATOM     10  C   UNL     1       7.401  15.137  20.263  0.00  0.00    +0.000 C 
ATOM     11  C   UNL     1       8.071  14.254  19.260  0.00  0.00    +0.000 A 
ATOM     12  C   UNL     1       7.513  14.059  18.013  0.00  0.00    +0.000 A 
ATOM     13  N   UNL     1       8.296  13.188  17.318  0.00  0.00    +0.000 N 
ATOM     14  C   UNL     1       9.352  12.781  18.107  0.00  0.00    +0.000 A 
ATOM     15  C   UNL     1      10.384  11.876  17.818  0.00  0.00    +0.000 A 
ATOM     16  C   UNL     1      11.328  11.608  18.815  0.00  0.00    +0.000 A 
ATOM     17  C   UNL     1      11.249  12.230  20.056  0.00  0.00    +0.000 A 
ATOM     18  C   UNL     1      10.218  13.134  20.316  0.00  0.00    +0.000 A 
ATOM     19 CL   UNL     1      10.087  13.899  21.839  0.00  0.00    +0.000 Cl
ATOM     20  C   UNL     1       9.239  13.436  19.345  0.00  0.00    +0.000 A 
ATOM     21  C   UNL     1       6.246  14.672  17.522  0.00  0.00    +0.000 C 
ATOM     22  S   UNL     1       3.120  15.740  19.883  0.00  0.00    +0.000 S 
ATOM     23  C   UNL     1       1.874  14.601  19.581  0.00  0.00    +0.000 A 
ATOM     24  C   UNL     1       0.556  14.588  20.066  0.00  0.00    +0.000 A 
ATOM     25  H   UNL     1       8.118  12.853  16.380  0.00  0.00    +0.000 HD
ENDROOT
TORSDOF 0
ENDMDL
MODEL 9
REMARK VINA RESULT:      -6.6      4.197      8.515
REMARK  Name = 
REMARK  0 active torsions:
REMARK  status: ('A' for Active; 'I' for Inactive)
REMARK                            x       y       z     vdW  Elec       q    Type
REMARK                         _______ _______ _______ _____ _____    ______ ____
ROOT
ATOM      1 CL   UNL     1       4.355   4.729  19.163  0.00  0.00    +0.000 Cl
ATOM      2  C   UNL     1       3.412   6.164  19.019  0.00  0.00    +0.000 A 
ATOM      3  C   UNL     1       3.453   6.897  17.839  0.00  0.00    +0.000 A 
ATOM      4  C   UNL     1       2.683   8.059  17.705  0.00  0.00    +0.000 A 
ATOM      5  C   UNL     1       1.868   8.488  18.774  0.00  0.00    +0.000 A 
ATOM      6  N   UNL     1       1.043   9.599  18.779  0.00  0.00    +0.000 NA
ATOM      7  C   UNL     1       0.453   9.757  19.947  0.00  0.00    +0.000 A 
ATOM      8  N   UNL     1      -0.429  10.759  20.225  0.00  0.00    +0.000 N 
ATOM      9  C   UNL     1      -0.587  11.322  21.580  0.00  0.00    +0.000 C 
ATOM     10  C   UNL     1       0.054  12.727  21.732  0.00  0.00    +0.000 C 
ATOM     11  C   UNL     1      -0.176  13.583  20.529  0.00  0.00    +0.000 A 
ATOM     12  C   UNL     1      -0.629  13.030  19.349  0.00  0.00    +0.000 A 
ATOM     13  N   UNL     1      -0.714  14.014  18.411  0.00  0.00    +0.000 N 
ATOM     14  C   UNL     1      -0.289  15.210  18.954  0.00  0.00    +0.000 A 
ATOM     15  C   UNL     1      -0.179  16.472  18.352  0.00  0.00    +0.000 A 
ATOM     16  C   UNL     1       0.316  17.531  19.121  0.00  0.00    +0.000 A 
ATOM     17  C   UNL     1       0.679  17.338  20.449  0.00  0.00    +0.000 A 
ATOM     18  C   UNL     1       0.552  16.074  21.028  0.00  0.00    +0.000 A 
ATOM     19 CL   UNL     1       1.008  15.804  22.653  0.00  0.00    +0.000 Cl
ATOM     20  C   UNL     1       0.061  14.973  20.294  0.00  0.00    +0.000 A 
ATOM     21  C   UNL     1      -0.942  11.590  19.129  0.00  0.00    +0.000 C 
ATOM     22  S   UNL     1       0.832   8.506  21.085  0.00  0.00    +0.000 S 
ATOM     23  C   UNL     1       1.865   7.742  19.949  0.00  0.00    +0.000 A 
ATOM     24  C   UNL     1       2.621   6.567  20.096  0.00  0.00    +0.000 A 
ATOM     25  H   UNL     1      -1.004  13.892  17.450  0.00  0.00    +0.000 HD
ENDROOT
TORSDOF 0
ENDMDL
