MODEL 1
REMARK VINA RESULT:      -8.6      0.000      0.000
REMARK  Name = 
REMARK  5 active torsions:
REMARK  status: ('A' for Active; 'I' for Inactive)
REMARK    1  A    between atoms: C_1  and  C_2
REMARK    2  A    between atoms: C_5  and  C_6
REMARK    3  A    between atoms: C_7  and  C_8
REMARK    4  A    between atoms: C_8  and  N_9
REMARK    5  A    between atoms: N_16  and  C_17
REMARK                            x       y       z     vdW  Elec       q    Type
REMARK                         _______ _______ _______ _____ _____    ______ ____
ROOT
ATOM      1  N   UNL     1       0.958  10.182  18.928  0.00  0.00    +0.000 N 
ATOM      2  C   UNL     1       1.749   9.915  17.818  0.00  0.00    +0.000 A 
ATOM      3  N   UNL     1       2.468   8.850  17.636  0.00  0.00    +0.000 NA
ATOM      4  C   UNL     1       2.383   7.953  18.651  0.00  0.00    +0.000 A 
ATOM      5  C   UNL     1       1.657   8.109  19.808  0.00  0.00    +0.000 A 
ATOM      6  C   UNL     1       1.842   6.938  20.540  0.00  0.00    +0.000 A 
ATOM      7  N   UNL     1       2.612   6.060  19.894  0.00  0.00    +0.000 NA
ATOM      8  N   UNL     1       2.951   6.679  18.718  0.00  0.00    +0.000 N 
ATOM      9  C   UNL     1       0.894   9.308  20.017  0.00  0.00    +0.000 A 
ATOM     10  O   UNL     1       0.256   9.510  21.044  0.00  0.00    +0.000 OA
ENDROOT
BRANCH   8  11
ATOM     11  C   UNL     1       3.756   5.996  17.754  0.00  0.00    +0.000 A 
ATOM     12  C   UNL     1       3.542   4.624  17.528  0.00  0.00    +0.000 A 
ATOM     13  C   UNL     1       4.292   3.943  16.566  0.00  0.00    +0.000 A 
ATOM     14  C   UNL     1       5.260   4.624  15.840  0.00  0.00    +0.000 A 
ATOM     15  F   UNL     1       5.978   3.972  14.915  0.00  0.00    +0.000 F 
ATOM     16  C   UNL     1       5.496   5.975  16.058  0.00  0.00    +0.000 A 
ATOM     17  C   UNL     1       4.743   6.663  17.014  0.00  0.00    +0.000 A 
ENDBRANCH   8  11
BRANCH   1  18
ATOM     18  C   UNL     1       0.142  11.384  18.947  0.00  0.00    +0.000 C 
BRANCH  18  25
ATOM     19  C   UNL     1      -3.060   9.752  15.357  0.00  0.00    +0.000 C 
ATOM     20  C   UNL     1      -2.831  10.444  16.669  0.00  0.00    +0.000 A 
ATOM     21  C   UNL     1      -3.894  10.994  17.384  0.00  0.00    +0.000 A 
ATOM     22  C   UNL     1      -3.663  11.640  18.598  0.00  0.00    +0.000 A 
ATOM     23  C   UNL     1      -2.364  11.759  19.118  0.00  0.00    +0.000 A 
ATOM     24  C   UNL     1      -2.176  12.463  20.435  0.00  0.00    +0.000 C 
ATOM     25  C   UNL     1      -1.271  11.217  18.401  0.00  0.00    +0.000 A 
ATOM     26  C   UNL     1      -1.532  10.552  17.186  0.00  0.00    +0.000 A 
ENDBRANCH  18  25
ENDBRANCH   1  18
TORSDOF 3
ENDMDL
MODEL 2
REMARK VINA RESULT:      -8.4      0.480      1.049
REMARK  Name = 
REMARK  5 active torsions:
REMARK  status: ('A' for Active; 'I' for Inactive)
REMARK    1  A    between atoms: C_1  and  C_2
REMARK    2  A    between atoms: C_5  and  C_6
REMARK    3  A    between atoms: C_7  and  C_8
REMARK    4  A    between atoms: C_8  and  N_9
REMARK    5  A    between atoms: N_16  and  C_17
REMARK                            x       y       z     vdW  Elec       q    Type
REMARK                         _______ _______ _______ _____ _____    ______ ____
ROOT
ATOM      1  N   UNL     1       0.819  10.188  18.881  0.00  0.00    +0.000 N 
ATOM      2  C   UNL     1       1.588   9.760  17.807  0.00  0.00    +0.000 A 
ATOM      3  N   UNL     1       2.257   8.649  17.746  0.00  0.00    +0.000 NA
ATOM      4  C   UNL     1       2.140   7.879  18.858  0.00  0.00    +0.000 A 
ATOM      5  C   UNL     1       1.431   8.200  19.991  0.00  0.00    +0.000 A 
ATOM      6  C   UNL     1       1.569   7.113  20.852  0.00  0.00    +0.000 A 
ATOM      7  N   UNL     1       2.294   6.133  20.310  0.00  0.00    +0.000 NA
ATOM      8  N   UNL     1       2.650   6.597  19.069  0.00  0.00    +0.000 N 
ATOM      9  C   UNL     1       0.725   9.448  20.063  0.00  0.00    +0.000 A 
ATOM     10  O   UNL     1       0.105   9.796  21.062  0.00  0.00    +0.000 OA
ENDROOT
BRANCH   8  11
ATOM     11  C   UNL     1       3.415   5.772  18.188  0.00  0.00    +0.000 A 
ATOM     12  C   UNL     1       4.631   6.258  17.673  0.00  0.00    +0.000 A 
ATOM     13  C   UNL     1       5.414   5.456  16.838  0.00  0.00    +0.000 A 
ATOM     14  C   UNL     1       4.981   4.178  16.508  0.00  0.00    +0.000 A 
ATOM     15  F   UNL     1       5.732   3.408  15.710  0.00  0.00    +0.000 F 
ATOM     16  C   UNL     1       3.777   3.686  16.994  0.00  0.00    +0.000 A 
ATOM     17  C   UNL     1       2.994   4.481  17.836  0.00  0.00    +0.000 A 
ENDBRANCH   8  11
BRANCH   1  18
ATOM     18  C   UNL     1       0.059  11.420  18.763  0.00  0.00    +0.000 C 
BRANCH  18  25
ATOM     19  C   UNL     1      -3.256   9.796  15.273  0.00  0.00    +0.000 C 
ATOM     20  C   UNL     1      -2.985  10.486  16.579  0.00  0.00    +0.000 A 
ATOM     21  C   UNL     1      -4.024  11.035  17.328  0.00  0.00    +0.000 A 
ATOM     22  C   UNL     1      -3.755  11.678  18.535  0.00  0.00    +0.000 A 
ATOM     23  C   UNL     1      -2.441  11.796  19.014  0.00  0.00    +0.000 A 
ATOM     24  C   UNL     1      -2.211  12.497  20.327  0.00  0.00    +0.000 C 
ATOM     25  C   UNL     1      -1.371  11.255  18.263  0.00  0.00    +0.000 A 
ATOM     26  C   UNL     1      -1.670  10.593  17.054  0.00  0.00    +0.000 A 
ENDBRANCH  18  25
ENDBRANCH   1  18
TORSDOF 3
ENDMDL
MODEL 3
REMARK VINA RESULT:      -8.0      3.436      8.218
REMARK  Name = 
REMARK  5 active torsions:
REMARK  status: ('A' for Active; 'I' for Inactive)
REMARK    1  A    between atoms: C_1  and  C_2
REMARK    2  A    between atoms: C_5  and  C_6
REMARK    3  A    between atoms: C_7  and  C_8
REMARK    4  A    between atoms: C_8  and  N_9
REMARK    5  A    between atoms: N_16  and  C_17
REMARK                            x       y       z     vdW  Elec       q    Type
REMARK                         _______ _______ _______ _____ _____    ______ ____
ROOT
ATOM      1  N   UNL     1       2.662   6.965  18.353  0.00  0.00    +0.000 N 
ATOM      2  C   UNL     1       2.426   8.093  17.578  0.00  0.00    +0.000 A 
ATOM      3  N   UNL     1       1.842   9.181  17.979  0.00  0.00    +0.000 NA
ATOM      4  C   UNL     1       1.466   9.151  19.283  0.00  0.00    +0.000 A 
ATOM      5  C   UNL     1       1.623   8.091  20.144  0.00  0.00    +0.000 A 
ATOM      6  C   UNL     1       1.123   8.517  21.373  0.00  0.00    +0.000 A 
ATOM      7  N   UNL     1       0.696   9.780  21.330  0.00  0.00    +0.000 NA
ATOM      8  N   UNL     1       0.908  10.185  20.037  0.00  0.00    +0.000 N 
ATOM      9  C   UNL     1       2.237   6.878  19.682  0.00  0.00    +0.000 A 
ATOM     10  O   UNL     1       2.371   5.894  20.399  0.00  0.00    +0.000 OA
ENDROOT
BRANCH   8  11
ATOM     11  C   UNL     1       0.590  11.522  19.643  0.00  0.00    +0.000 A 
ATOM     12  C   UNL     1      -0.491  11.743  18.769  0.00  0.00    +0.000 A 
ATOM     13  C   UNL     1      -0.844  13.043  18.398  0.00  0.00    +0.000 A 
ATOM     14  C   UNL     1      -0.113  14.119  18.886  0.00  0.00    +0.000 A 
ATOM     15  F   UNL     1      -0.452  15.366  18.533  0.00  0.00    +0.000 F 
ATOM     16  C   UNL     1       0.965  13.921  19.738  0.00  0.00    +0.000 A 
ATOM     17  C   UNL     1       1.317  12.623  20.118  0.00  0.00    +0.000 A 
ENDBRANCH   8  11
BRANCH   1  18
ATOM     18  C   UNL     1       3.406   5.855  17.782  0.00  0.00    +0.000 C 
BRANCH  18  25
ATOM     19  C   UNL     1       7.933   8.133  17.434  0.00  0.00    +0.000 C 
ATOM     20  C   UNL     1       7.105   6.961  17.874  0.00  0.00    +0.000 A 
ATOM     21  C   UNL     1       7.696   5.852  18.477  0.00  0.00    +0.000 A 
ATOM     22  C   UNL     1       6.913   4.769  18.873  0.00  0.00    +0.000 A 
ATOM     23  C   UNL     1       5.525   4.766  18.665  0.00  0.00    +0.000 A 
ATOM     24  C   UNL     1       4.729   3.571  19.118  0.00  0.00    +0.000 C 
ATOM     25  C   UNL     1       4.907   5.878  18.045  0.00  0.00    +0.000 A 
ATOM     26  C   UNL     1       5.718   6.969  17.670  0.00  0.00    +0.000 A 
ENDBRANCH  18  25
ENDBRANCH   1  18
TORSDOF 3
ENDMDL
MODEL 4
REMARK VINA RESULT:      -7.6      3.823      8.736
REMARK  Name = 
REMARK  5 active torsions:
REMARK  status: ('A' for Active; 'I' for Inactive)
REMARK    1  A    between atoms: C_1  and  C_2
REMARK    2  A    between atoms: C_5  and  C_6
REMARK    3  A    between atoms: C_7  and  C_8
REMARK    4  A    between atoms: C_8  and  N_9
REMARK    5  A    between atoms: N_16  and  C_17
REMARK                            x       y       z     vdW  Elec       q    Type
REMARK                         _______ _______ _______ _____ _____    ______ ____
ROOT
ATOM      1  N   UNL     1       2.879   6.220  18.812  0.00  0.00    +0.000 N 
ATOM      2  C   UNL     1       2.250   6.349  20.044  0.00  0.00    +0.000 A 
ATOM      3  N   UNL     1       1.661   7.418  20.487  0.00  0.00    +0.000 NA
ATOM      4  C   UNL     1       1.687   8.458  19.615  0.00  0.00    +0.000 A 
ATOM      5  C   UNL     1       2.295   8.463  18.382  0.00  0.00    +0.000 A 
ATOM      6  C   UNL     1       2.045   9.719  17.835  0.00  0.00    +0.000 A 
ATOM      7  N   UNL     1       1.299  10.477  18.641  0.00  0.00    +0.000 NA
ATOM      8  N   UNL     1       1.068   9.702  19.748  0.00  0.00    +0.000 N 
ATOM      9  C   UNL     1       2.976   7.288  17.916  0.00  0.00    +0.000 A 
ATOM     10  O   UNL     1       3.560   7.250  16.839  0.00  0.00    +0.000 OA
ENDROOT
BRANCH   8  11
ATOM     11  C   UNL     1       0.258  10.200  20.815  0.00  0.00    +0.000 A 
ATOM     12  C   UNL     1      -0.515  11.357  20.610  0.00  0.00    +0.000 A 
ATOM     13  C   UNL     1      -1.343  11.843  21.626  0.00  0.00    +0.000 A 
ATOM     14  C   UNL     1      -1.389  11.184  22.848  0.00  0.00    +0.000 A 
ATOM     15  F   UNL     1      -2.184  11.647  23.822  0.00  0.00    +0.000 F 
ATOM     16  C   UNL     1      -0.623  10.048  23.075  0.00  0.00    +0.000 A 
ATOM     17  C   UNL     1       0.200   9.554  22.059  0.00  0.00    +0.000 A 
ENDBRANCH   8  11
BRANCH   1  18
ATOM     18  C   UNL     1       3.420   4.928  18.424  0.00  0.00    +0.000 C 
BRANCH  18  25
ATOM     19  C   UNL     1       8.173   5.817  19.982  0.00  0.00    +0.000 C 
ATOM     20  C   UNL     1       7.228   5.337  18.919  0.00  0.00    +0.000 A 
ATOM     21  C   UNL     1       7.701   4.913  17.678  0.00  0.00    +0.000 A 
ATOM     22  C   UNL     1       6.809   4.477  16.699  0.00  0.00    +0.000 A 
ATOM     23  C   UNL     1       5.425   4.465  16.936  0.00  0.00    +0.000 A 
ATOM     24  C   UNL     1       4.510   3.979  15.843  0.00  0.00    +0.000 C 
ATOM     25  C   UNL     1       4.925   4.902  18.185  0.00  0.00    +0.000 A 
ATOM     26  C   UNL     1       5.848   5.321  19.165  0.00  0.00    +0.000 A 
ENDBRANCH  18  25
ENDBRANCH   1  18
TORSDOF 3
ENDMDL
MODEL 5
REMARK VINA RESULT:      -7.6      2.021      3.198
REMARK  Name = 
REMARK  5 active torsions:
REMARK  status: ('A' for Active; 'I' for Inactive)
REMARK    1  A    between atoms: C_1  and  C_2
REMARK    2  A    between atoms: C_5  and  C_6
REMARK    3  A    between atoms: C_7  and  C_8
REMARK    4  A    between atoms: C_8  and  N_9
REMARK    5  A    between atoms: N_16  and  C_17
REMARK                            x       y       z     vdW  Elec       q    Type
REMARK                         _______ _______ _______ _____ _____    ______ ____
ROOT
ATOM      1  N   UNL     1       1.113   9.651  18.991  0.00  0.00    +0.000 N 
ATOM      2  C   UNL     1       1.833   9.471  17.817  0.00  0.00    +0.000 A 
ATOM      3  N   UNL     1       2.594   8.457  17.540  0.00  0.00    +0.000 NA
ATOM      4  C   UNL     1       2.636   7.520  18.523  0.00  0.00    +0.000 A 
ATOM      5  C   UNL     1       1.990   7.593  19.735  0.00  0.00    +0.000 A 
ATOM      6  C   UNL     1       2.295   6.410  20.404  0.00  0.00    +0.000 A 
ATOM      7  N   UNL     1       3.062   5.602  19.670  0.00  0.00    +0.000 NA
ATOM      8  N   UNL     1       3.277   6.281  18.498  0.00  0.00    +0.000 N 
ATOM      9  C   UNL     1       1.180   8.737  20.046  0.00  0.00    +0.000 A 
ATOM     10  O   UNL     1       0.610   8.865  21.123  0.00  0.00    +0.000 OA
ENDROOT
BRANCH   8  11
ATOM     11  C   UNL     1       4.044   5.680  17.452  0.00  0.00    +0.000 A 
ATOM     12  C   UNL     1       4.062   4.279  17.329  0.00  0.00    +0.000 A 
ATOM     13  C   UNL     1       4.775   3.670  16.293  0.00  0.00    +0.000 A 
ATOM     14  C   UNL     1       5.480   4.456  15.390  0.00  0.00    +0.000 A 
ATOM     15  F   UNL     1       6.162   3.873  14.395  0.00  0.00    +0.000 F 
ATOM     16  C   UNL     1       5.487   5.840  15.503  0.00  0.00    +0.000 A 
ATOM     17  C   UNL     1       4.769   6.453  16.533  0.00  0.00    +0.000 A 
ENDBRANCH   8  11
BRANCH   1  18
ATOM     18  C   UNL     1       0.236  10.802  19.116  0.00  0.00    +0.000 C 
BRANCH  18  25
ATOM     19  C   UNL     1       3.631  14.490  18.292  0.00  0.00    +0.000 C 
ATOM     20  C   UNL     1       2.566  13.881  19.158  0.00  0.00    +0.000 A 
ATOM     21  C   UNL     1       2.225  14.452  20.383  0.00  0.00    +0.000 A 
ATOM     22  C   UNL     1       1.240  13.869  21.178  0.00  0.00    +0.000 A 
ATOM     23  C   UNL     1       0.582  12.698  20.771  0.00  0.00    +0.000 A 
ATOM     24  C   UNL     1      -0.478  12.116  21.669  0.00  0.00    +0.000 C 
ATOM     25  C   UNL     1       0.922  12.097  19.536  0.00  0.00    +0.000 A 
ATOM     26  C   UNL     1       1.909  12.715  18.741  0.00  0.00    +0.000 A 
ENDBRANCH  18  25
ENDBRANCH   1  18
TORSDOF 3
ENDMDL
MODEL 6
REMARK VINA RESULT:      -7.5      3.343      8.223
REMARK  Name = 
REMARK  5 active torsions:
REMARK  status: ('A' for Active; 'I' for Inactive)
REMARK    1  A    between atoms: C_1  and  C_2
REMARK    2  A    between atoms: C_5  and  C_6
REMARK    3  A    between atoms: C_7  and  C_8
REMARK    4  A    between atoms: C_8  and  N_9
REMARK    5  A    between atoms: N_16  and  C_17
REMARK                            x       y       z     vdW  Elec       q    Type
REMARK                         _______ _______ _______ _____ _____    ______ ____
ROOT
ATOM      1  N   UNL     1       2.800   6.707  18.413  0.00  0.00    +0.000 N 
ATOM      2  C   UNL     1       2.561   7.806  17.598  0.00  0.00    +0.000 A 
ATOM      3  N   UNL     1       1.950   8.896  17.952  0.00  0.00    +0.000 NA
ATOM      4  C   UNL     1       1.547   8.899  19.249  0.00  0.00    +0.000 A 
ATOM      5  C   UNL     1       1.702   7.869  20.145  0.00  0.00    +0.000 A 
ATOM      6  C   UNL     1       1.168   8.324  21.350  0.00  0.00    +0.000 A 
ATOM      7  N   UNL     1       0.720   9.577  21.258  0.00  0.00    +0.000 NA
ATOM      8  N   UNL     1       0.954   9.946  19.958  0.00  0.00    +0.000 N 
ATOM      9  C   UNL     1       2.346   6.654  19.734  0.00  0.00    +0.000 A 
ATOM     10  O   UNL     1       2.481   5.694  20.484  0.00  0.00    +0.000 OA
ENDROOT
BRANCH   8  11
ATOM     11  C   UNL     1       0.622  11.264  19.516  0.00  0.00    +0.000 A 
ATOM     12  C   UNL     1      -0.716  11.569  19.205  0.00  0.00    +0.000 A 
ATOM     13  C   UNL     1      -1.071  12.860  18.806  0.00  0.00    +0.000 A 
ATOM     14  C   UNL     1      -0.093  13.841  18.703  0.00  0.00    +0.000 A 
ATOM     15  F   UNL     1      -0.433  15.079  18.323  0.00  0.00    +0.000 F 
ATOM     16  C   UNL     1       1.235  13.556  18.991  0.00  0.00    +0.000 A 
ATOM     17  C   UNL     1       1.594  12.268  19.398  0.00  0.00    +0.000 A 
ENDBRANCH   8  11
BRANCH   1  18
ATOM     18  C   UNL     1       3.575   5.594  17.893  0.00  0.00    +0.000 C 
BRANCH  18  25
ATOM     19  C   UNL     1       8.001   5.413  20.380  0.00  0.00    +0.000 C 
ATOM     20  C   UNL     1       7.232   5.711  19.125  0.00  0.00    +0.000 A 
ATOM     21  C   UNL     1       7.874   6.217  17.995  0.00  0.00    +0.000 A 
ATOM     22  C   UNL     1       7.145   6.494  16.840  0.00  0.00    +0.000 A 
ATOM     23  C   UNL     1       5.758   6.284  16.793  0.00  0.00    +0.000 A 
ATOM     24  C   UNL     1       5.023   6.597  15.516  0.00  0.00    +0.000 C 
ATOM     25  C   UNL     1       5.087   5.782  17.933  0.00  0.00    +0.000 A 
ATOM     26  C   UNL     1       5.849   5.491  19.083  0.00  0.00    +0.000 A 
ENDBRANCH  18  25
ENDBRANCH   1  18
TORSDOF 3
ENDMDL
MODEL 7
REMARK VINA RESULT:      -7.5      3.675      8.238
REMARK  Name = 
REMARK  5 active torsions:
REMARK  status: ('A' for Active; 'I' for Inactive)
REMARK    1  A    between atoms: C_1  and  C_2
REMARK    2  A    between atoms: C_5  and  C_6
REMARK    3  A    between atoms: C_7  and  C_8
REMARK    4  A    between atoms: C_8  and  N_9
REMARK    5  A    between atoms: N_16  and  C_17
REMARK                            x       y       z     vdW  Elec       q    Type
REMARK                         _______ _______ _______ _____ _____    ______ ____
ROOT
ATOM      1  N   UNL     1       4.081   4.373  18.011  0.00  0.00    +0.000 N 
ATOM      2  C   UNL     1       3.942   5.625  17.426  0.00  0.00    +0.000 A 
ATOM      3  N   UNL     1       3.228   6.605  17.888  0.00  0.00    +0.000 NA
ATOM      4  C   UNL     1       2.598   6.318  19.057  0.00  0.00    +0.000 A 
ATOM      5  C   UNL     1       2.637   5.115  19.720  0.00  0.00    +0.000 A 
ATOM      6  C   UNL     1       1.874   5.288  20.874  0.00  0.00    +0.000 A 
ATOM      7  N   UNL     1       1.393   6.528  20.975  0.00  0.00    +0.000 NA
ATOM      8  N   UNL     1       1.840   7.178  19.853  0.00  0.00    +0.000 N 
ATOM      9  C   UNL     1       3.400   4.025  19.181  0.00  0.00    +0.000 A 
ATOM     10  O   UNL     1       3.441   2.923  19.716  0.00  0.00    +0.000 OA
ENDROOT
BRANCH   8  11
ATOM     11  C   UNL     1       1.533   8.560  19.655  0.00  0.00    +0.000 A 
ATOM     12  C   UNL     1       0.997   9.305  20.721  0.00  0.00    +0.000 A 
ATOM     13  C   UNL     1       0.722  10.666  20.563  0.00  0.00    +0.000 A 
ATOM     14  C   UNL     1       0.968  11.279  19.341  0.00  0.00    +0.000 A 
ATOM     15  F   UNL     1       0.707  12.584  19.189  0.00  0.00    +0.000 F 
ATOM     16  C   UNL     1       1.483  10.557  18.273  0.00  0.00    +0.000 A 
ATOM     17  C   UNL     1       1.767   9.198  18.429  0.00  0.00    +0.000 A 
ENDBRANCH   8  11
BRANCH   1  18
ATOM     18  C   UNL     1       4.987   3.407  17.414  0.00  0.00    +0.000 C 
BRANCH  18  25
ATOM     19  C   UNL     1       5.325   3.676  12.353  0.00  0.00    +0.000 C 
ATOM     20  C   UNL     1       5.882   4.009  13.707  0.00  0.00    +0.000 A 
ATOM     21  C   UNL     1       7.084   4.703  13.836  0.00  0.00    +0.000 A 
ATOM     22  C   UNL     1       7.591   4.998  15.101  0.00  0.00    +0.000 A 
ATOM     23  C   UNL     1       6.914   4.595  16.263  0.00  0.00    +0.000 A 
ATOM     24  C   UNL     1       7.507   4.945  17.602  0.00  0.00    +0.000 C 
ATOM     25  C   UNL     1       5.698   3.879  16.152  0.00  0.00    +0.000 A 
ATOM     26  C   UNL     1       5.196   3.610  14.862  0.00  0.00    +0.000 A 
ENDBRANCH  18  25
ENDBRANCH   1  18
TORSDOF 3
ENDMDL
MODEL 8
REMARK VINA RESULT:      -7.5      1.615      3.085
REMARK  Name = 
REMARK  5 active torsions:
REMARK  status: ('A' for Active; 'I' for Inactive)
REMARK    1  A    between atoms: C_1  and  C_2
REMARK    2  A    between atoms: C_5  and  C_6
REMARK    3  A    between atoms: C_7  and  C_8
REMARK    4  A    between atoms: C_8  and  N_9
REMARK    5  A    between atoms: N_16  and  C_17
REMARK                            x       y       z     vdW  Elec       q    Type
REMARK                         _______ _______ _______ _____ _____    ______ ____
ROOT
ATOM      1  N   UNL     1       0.875   9.260  19.554  0.00  0.00    +0.000 N 
ATOM      2  C   UNL     1       1.522   9.248  18.325  0.00  0.00    +0.000 A 
ATOM      3  N   UNL     1       2.356   8.342  17.915  0.00  0.00    +0.000 NA
ATOM      4  C   UNL     1       2.560   7.341  18.809  0.00  0.00    +0.000 A 
ATOM      5  C   UNL     1       2.001   7.252  20.062  0.00  0.00    +0.000 A 
ATOM      6  C   UNL     1       2.467   6.057  20.607  0.00  0.00    +0.000 A 
ATOM      7  N   UNL     1       3.255   5.393  19.759  0.00  0.00    +0.000 NA
ATOM      8  N   UNL     1       3.316   6.181  18.637  0.00  0.00    +0.000 N 
ATOM      9  C   UNL     1       1.108   8.278  20.521  0.00  0.00    +0.000 A 
ATOM     10  O   UNL     1       0.608   8.262  21.640  0.00  0.00    +0.000 OA
ENDROOT
BRANCH   8  11
ATOM     11  C   UNL     1       4.060   5.746  17.496  0.00  0.00    +0.000 A 
ATOM     12  C   UNL     1       4.124   4.373  17.199  0.00  0.00    +0.000 A 
ATOM     13  C   UNL     1       4.815   3.927  16.069  0.00  0.00    +0.000 A 
ATOM     14  C   UNL     1       5.451   4.846  15.246  0.00  0.00    +0.000 A 
ATOM     15  F   UNL     1       6.112   4.420  14.161  0.00  0.00    +0.000 F 
ATOM     16  C   UNL     1       5.413   6.205  15.530  0.00  0.00    +0.000 A 
ATOM     17  C   UNL     1       4.716   6.656  16.655  0.00  0.00    +0.000 A 
ENDBRANCH   8  11
BRANCH   1  18
ATOM     18  C   UNL     1      -0.099  10.301  19.833  0.00  0.00    +0.000 C 
BRANCH  18  25
ATOM     19  C   UNL     1       3.124  14.066  20.950  0.00  0.00    +0.000 C 
ATOM     20  C   UNL     1       1.944  13.561  20.171  0.00  0.00    +0.000 A 
ATOM     21  C   UNL     1       1.252  14.396  19.296  0.00  0.00    +0.000 A 
ATOM     22  C   UNL     1       0.155  13.913  18.585  0.00  0.00    +0.000 A 
ATOM     23  C   UNL     1      -0.281  12.588  18.742  0.00  0.00    +0.000 A 
ATOM     24  C   UNL     1      -1.469  12.120  17.945  0.00  0.00    +0.000 C 
ATOM     25  C   UNL     1       0.402  11.727  19.634  0.00  0.00    +0.000 A 
ATOM     26  C   UNL     1       1.520  12.234  20.327  0.00  0.00    +0.000 A 
ENDBRANCH  18  25
ENDBRANCH   1  18
TORSDOF 3
ENDMDL
MODEL 9
REMARK VINA RESULT:      -7.5      1.295      1.851
REMARK  Name = 
REMARK  5 active torsions:
REMARK  status: ('A' for Active; 'I' for Inactive)
REMARK    1  A    between atoms: C_1  and  C_2
REMARK    2  A    between atoms: C_5  and  C_6
REMARK    3  A    between atoms: C_7  and  C_8
REMARK    4  A    between atoms: C_8  and  N_9
REMARK    5  A    between atoms: N_16  and  C_17
REMARK                            x       y       z     vdW  Elec       q    Type
REMARK                         _______ _______ _______ _____ _____    ______ ____
ROOT
ATOM      1  N   UNL     1       1.298   8.929  19.933  0.00  0.00    +0.000 N 
ATOM      2  C   UNL     1       1.993   9.066  18.738  0.00  0.00    +0.000 A 
ATOM      3  N   UNL     1       2.729   8.155  18.179  0.00  0.00    +0.000 NA
ATOM      4  C   UNL     1       2.768   6.985  18.867  0.00  0.00    +0.000 A 
ATOM      5  C   UNL     1       2.145   6.733  20.066  0.00  0.00    +0.000 A 
ATOM      6  C   UNL     1       2.436   5.407  20.380  0.00  0.00    +0.000 A 
ATOM      7  N   UNL     1       3.175   4.820  19.437  0.00  0.00    +0.000 NA
ATOM      8  N   UNL     1       3.383   5.790  18.490  0.00  0.00    +0.000 N 
ATOM      9  C   UNL     1       1.364   7.760  20.696  0.00  0.00    +0.000 A 
ATOM     10  O   UNL     1       0.815   7.597  21.780  0.00  0.00    +0.000 OA
ENDROOT
BRANCH   8  11
ATOM     11  C   UNL     1       4.120   5.488  17.303  0.00  0.00    +0.000 A 
ATOM     12  C   UNL     1       4.699   6.537  16.567  0.00  0.00    +0.000 A 
ATOM     13  C   UNL     1       5.454   6.263  15.423  0.00  0.00    +0.000 A 
ATOM     14  C   UNL     1       5.620   4.948  15.008  0.00  0.00    +0.000 A 
ATOM     15  F   UNL     1       6.346   4.685  13.913  0.00  0.00    +0.000 F 
ATOM     16  C   UNL     1       5.044   3.900  15.712  0.00  0.00    +0.000 A 
ATOM     17  C   UNL     1       4.295   4.168  16.861  0.00  0.00    +0.000 A 
ENDBRANCH   8  11
BRANCH   1  18
ATOM     18  C   UNL     1       0.446  10.015  20.387  0.00  0.00    +0.000 C 
BRANCH  18  25
ATOM     19  C   UNL     1      -3.209   9.678  16.876  0.00  0.00    +0.000 C 
ATOM     20  C   UNL     1      -2.183  10.499  17.600  0.00  0.00    +0.000 A 
ATOM     21  C   UNL     1      -1.968  11.835  17.266  0.00  0.00    +0.000 A 
ATOM     22  C   UNL     1      -1.007  12.582  17.944  0.00  0.00    +0.000 A 
ATOM     23  C   UNL     1      -0.231  12.007  18.963  0.00  0.00    +0.000 A 
ATOM     24  C   UNL     1       0.790  12.863  19.664  0.00  0.00    +0.000 C 
ATOM     25  C   UNL     1      -0.426  10.649  19.309  0.00  0.00    +0.000 A 
ATOM     26  C   UNL     1      -1.417   9.919  18.622  0.00  0.00    +0.000 A 
ENDBRANCH  18  25
ENDBRANCH   1  18
TORSDOF 3
ENDMDL
