MODEL 1
REMARK VINA RESULT:      -7.0      0.000      0.000
REMARK  Name = 
REMARK  6 active torsions:
REMARK  status: ('A' for Active; 'I' for Inactive)
REMARK    1  A    between atoms: C_1  and  C_2
REMARK    2  A    between atoms: C_2  and  C_3
REMARK    3  A    between atoms: C_3  and  N_4
REMARK    4  A    between atoms: N_4  and  C_5
REMARK    5  A    between atoms: C_5  and  C_6
REMARK    6  A    between atoms: C_9  and  C_11
REMARK                            x       y       z     vdW  Elec       q    Type
REMARK                         _______ _______ _______ _____ _____    ______ ____
ROOT
ATOM      1  N   UNL     1       5.622   5.969  17.806  0.00  0.00    +0.000 N 
ATOM      2  C   UNL     1       5.382   4.666  18.280  0.00  0.00    +0.000 C 
ATOM      3  O   UNL     1       6.248   4.041  18.897  0.00  0.00    +0.000 OA
ENDROOT
BRANCH   2   4
ATOM      4  C   UNL     1       4.081   4.028  18.065  0.00  0.00    +0.000 A 
ATOM      5  C   UNL     1       3.638   3.357  16.941  0.00  0.00    +0.000 A 
ATOM      6  O   UNL     1       2.398   2.843  17.127  0.00  0.00    +0.000 OA
ATOM      7  C   UNL     1       2.033   3.136  18.402  0.00  0.00    +0.000 A 
ATOM      8  C   UNL     1       0.845   2.740  19.005  0.00  0.00    +0.000 A 
ATOM      9  C   UNL     1       0.662   3.114  20.336  0.00  0.00    +0.000 A 
ATOM     10  C   UNL     1       1.626   3.866  21.011  0.00  0.00    +0.000 A 
ATOM     11  C   UNL     1       2.816   4.257  20.372  0.00  0.00    +0.000 A 
ATOM     12  C   UNL     1       3.034   3.868  19.032  0.00  0.00    +0.000 A 
ENDBRANCH   2   4
BRANCH   1  13
ATOM     13  C   UNL     1       7.002   6.459  17.927  0.00  0.00    +0.000 C 
BRANCH  13  15
ATOM     14  C   UNL     1       8.244   8.722  18.012  0.00  0.00    +0.000 C 
ATOM     15  C   UNL     1       7.256   7.826  17.282  0.00  0.00    +0.000 C 
ENDBRANCH  13  15
ENDBRANCH   1  13
BRANCH   1  16
ATOM     16  C   UNL     1       4.574   6.807  17.204  0.00  0.00    +0.000 C 
BRANCH  16  17
ATOM     17  C   UNL     1       3.616   7.494  18.127  0.00  0.00    +0.000 C 
ATOM     18  C   UNL     1       2.597   8.505  17.656  0.00  0.00    +0.000 C 
ATOM     19  C   UNL     1       2.143   7.138  18.070  0.00  0.00    +0.000 C 
ENDBRANCH  16  17
ENDBRANCH   1  16
TORSDOF 5
ENDMDL
MODEL 2
REMARK VINA RESULT:      -6.9      1.740      2.619
REMARK  Name = 
REMARK  6 active torsions:
REMARK  status: ('A' for Active; 'I' for Inactive)
REMARK    1  A    between atoms: C_1  and  C_2
REMARK    2  A    between atoms: C_2  and  C_3
REMARK    3  A    between atoms: C_3  and  N_4
REMARK    4  A    between atoms: N_4  and  C_5
REMARK    5  A    between atoms: C_5  and  C_6
REMARK    6  A    between atoms: C_9  and  C_11
REMARK                            x       y       z     vdW  Elec       q    Type
REMARK                         _______ _______ _______ _____ _____    ______ ____
ROOT
ATOM      1  N   UNL     1       6.210   5.413  17.541  0.00  0.00    +0.000 N 
ATOM      2  C   UNL     1       5.646   4.842  18.697  0.00  0.00    +0.000 C 
ATOM      3  O   UNL     1       6.088   5.102  19.819  0.00  0.00    +0.000 OA
ENDROOT
BRANCH   2   4
ATOM      4  C   UNL     1       4.499   3.937  18.591  0.00  0.00    +0.000 A 
ATOM      5  C   UNL     1       4.428   2.729  17.921  0.00  0.00    +0.000 A 
ATOM      6  O   UNL     1       3.221   2.137  18.096  0.00  0.00    +0.000 OA
ATOM      7  C   UNL     1       2.502   2.936  18.926  0.00  0.00    +0.000 A 
ATOM      8  C   UNL     1       1.223   2.658  19.392  0.00  0.00    +0.000 A 
ATOM      9  C   UNL     1       0.657   3.590  20.263  0.00  0.00    +0.000 A 
ATOM     10  C   UNL     1       1.345   4.749  20.622  0.00  0.00    +0.000 A 
ATOM     11  C   UNL     1       2.637   5.006  20.127  0.00  0.00    +0.000 A 
ATOM     12  C   UNL     1       3.239   4.065  19.265  0.00  0.00    +0.000 A 
ENDBRANCH   2   4
BRANCH   1  13
ATOM     13  C   UNL     1       7.450   6.176  17.734  0.00  0.00    +0.000 C 
BRANCH  13  15
ATOM     14  C   UNL     1       8.259   8.603  18.091  0.00  0.00    +0.000 C 
ATOM     15  C   UNL     1       7.370   7.647  17.310  0.00  0.00    +0.000 C 
ENDBRANCH  13  15
ENDBRANCH   1  13
BRANCH   1  16
ATOM     16  C   UNL     1       5.622   5.256  16.202  0.00  0.00    +0.000 C 
BRANCH  16  17
ATOM     17  C   UNL     1       6.302   4.327  15.246  0.00  0.00    +0.000 C 
ATOM     18  C   UNL     1       5.769   4.026  13.865  0.00  0.00    +0.000 C 
ATOM     19  C   UNL     1       6.983   4.892  14.014  0.00  0.00    +0.000 C 
ENDBRANCH  16  17
ENDBRANCH   1  16
TORSDOF 5
ENDMDL
MODEL 3
REMARK VINA RESULT:      -6.8      1.705      4.968
REMARK  Name = 
REMARK  6 active torsions:
REMARK  status: ('A' for Active; 'I' for Inactive)
REMARK    1  A    between atoms: C_1  and  C_2
REMARK    2  A    between atoms: C_2  and  C_3
REMARK    3  A    between atoms: C_3  and  N_4
REMARK    4  A    between atoms: N_4  and  C_5
REMARK    5  A    between atoms: C_5  and  C_6
REMARK    6  A    between atoms: C_9  and  C_11
REMARK                            x       y       z     vdW  Elec       q    Type
REMARK                         _______ _______ _______ _____ _____    ______ ____
ROOT
ATOM      1  N   UNL     1       2.214   3.795  18.301  0.00  0.00    +0.000 N 
ATOM      2  C   UNL     1       3.422   3.132  18.019  0.00  0.00    +0.000 C 
ATOM      3  O   UNL     1       3.590   1.950  18.328  0.00  0.00    +0.000 OA
ENDROOT
BRANCH   2   4
ATOM      4  C   UNL     1       4.507   3.834  17.328  0.00  0.00    +0.000 A 
ATOM      5  C   UNL     1       4.681   3.999  15.966  0.00  0.00    +0.000 A 
ATOM      6  O   UNL     1       5.768   4.761  15.694  0.00  0.00    +0.000 OA
ATOM      7  C   UNL     1       6.294   5.144  16.887  0.00  0.00    +0.000 A 
ATOM      8  C   UNL     1       7.393   5.979  17.044  0.00  0.00    +0.000 A 
ATOM      9  C   UNL     1       7.767   6.283  18.354  0.00  0.00    +0.000 A 
ATOM     10  C   UNL     1       7.074   5.750  19.441  0.00  0.00    +0.000 A 
ATOM     11  C   UNL     1       5.969   4.901  19.250  0.00  0.00    +0.000 A 
ATOM     12  C   UNL     1       5.556   4.601  17.934  0.00  0.00    +0.000 A 
ENDBRANCH   2   4
BRANCH   1  13
ATOM     13  C   UNL     1       1.252   3.062  19.135  0.00  0.00    +0.000 C 
BRANCH  13  15
ATOM     14  C   UNL     1       2.075   2.905  21.578  0.00  0.00    +0.000 C 
ATOM     15  C   UNL     1       1.139   3.566  20.578  0.00  0.00    +0.000 C 
ENDBRANCH  13  15
ENDBRANCH   1  13
BRANCH   1  16
ATOM     16  C   UNL     1       1.911   5.150  17.816  0.00  0.00    +0.000 C 
BRANCH  16  17
ATOM     17  C   UNL     1       2.551   6.303  18.525  0.00  0.00    +0.000 C 
ATOM     18  C   UNL     1       3.414   7.327  17.827  0.00  0.00    +0.000 C 
ATOM     19  C   UNL     1       2.036   7.709  18.277  0.00  0.00    +0.000 C 
ENDBRANCH  16  17
ENDBRANCH   1  16
TORSDOF 5
ENDMDL
MODEL 4
REMARK VINA RESULT:      -6.7      2.044      5.419
REMARK  Name = 
REMARK  6 active torsions:
REMARK  status: ('A' for Active; 'I' for Inactive)
REMARK    1  A    between atoms: C_1  and  C_2
REMARK    2  A    between atoms: C_2  and  C_3
REMARK    3  A    between atoms: C_3  and  N_4
REMARK    4  A    between atoms: N_4  and  C_5
REMARK    5  A    between atoms: C_5  and  C_6
REMARK    6  A    between atoms: C_9  and  C_11
REMARK                            x       y       z     vdW  Elec       q    Type
REMARK                         _______ _______ _______ _____ _____    ______ ____
ROOT
ATOM      1  N   UNL     1       2.699   3.304  18.673  0.00  0.00    +0.000 N 
ATOM      2  C   UNL     1       4.066   3.155  18.970  0.00  0.00    +0.000 C 
ATOM      3  O   UNL     1       4.476   2.199  19.633  0.00  0.00    +0.000 OA
ENDROOT
BRANCH   2   4
ATOM      4  C   UNL     1       5.041   4.130  18.474  0.00  0.00    +0.000 A 
ATOM      5  C   UNL     1       5.757   5.062  19.203  0.00  0.00    +0.000 A 
ATOM      6  O   UNL     1       6.616   5.753  18.414  0.00  0.00    +0.000 OA
ATOM      7  C   UNL     1       6.502   5.244  17.160  0.00  0.00    +0.000 A 
ATOM      8  C   UNL     1       7.251   5.649  16.063  0.00  0.00    +0.000 A 
ATOM      9  C   UNL     1       7.010   4.986  14.859  0.00  0.00    +0.000 A 
ATOM     10  C   UNL     1       6.045   3.981  14.773  0.00  0.00    +0.000 A 
ATOM     11  C   UNL     1       5.297   3.597  15.901  0.00  0.00    +0.000 A 
ATOM     12  C   UNL     1       5.542   4.238  17.135  0.00  0.00    +0.000 A 
ENDBRANCH   2   4
BRANCH   1  13
ATOM     13  C   UNL     1       1.785   2.370  19.345  0.00  0.00    +0.000 C 
BRANCH  13  15
ATOM     14  C   UNL     1       1.991   2.893  21.866  0.00  0.00    +0.000 C 
ATOM     15  C   UNL     1       1.126   2.920  20.615  0.00  0.00    +0.000 C 
ENDBRANCH  13  15
ENDBRANCH   1  13
BRANCH   1  16
ATOM     16  C   UNL     1       2.185   4.336  17.760  0.00  0.00    +0.000 C 
BRANCH  16  17
ATOM     17  C   UNL     1       1.708   5.623  18.360  0.00  0.00    +0.000 C 
ATOM     18  C   UNL     1       2.302   6.220  19.614  0.00  0.00    +0.000 C 
ATOM     19  C   UNL     1       2.593   6.853  18.286  0.00  0.00    +0.000 C 
ENDBRANCH  16  17
ENDBRANCH   1  16
TORSDOF 5
ENDMDL
MODEL 5
REMARK VINA RESULT:      -6.6      1.927      5.237
REMARK  Name = 
REMARK  6 active torsions:
REMARK  status: ('A' for Active; 'I' for Inactive)
REMARK    1  A    between atoms: C_1  and  C_2
REMARK    2  A    between atoms: C_2  and  C_3
REMARK    3  A    between atoms: C_3  and  N_4
REMARK    4  A    between atoms: N_4  and  C_5
REMARK    5  A    between atoms: C_5  and  C_6
REMARK    6  A    between atoms: C_9  and  C_11
REMARK                            x       y       z     vdW  Elec       q    Type
REMARK                         _______ _______ _______ _____ _____    ______ ____
ROOT
ATOM      1  N   UNL     1       3.497   4.886  19.773  0.00  0.00    +0.000 N 
ATOM      2  C   UNL     1       4.483   4.008  19.287  0.00  0.00    +0.000 C 
ATOM      3  O   UNL     1       4.419   2.794  19.499  0.00  0.00    +0.000 OA
ENDROOT
BRANCH   2   4
ATOM      4  C   UNL     1       5.603   4.520  18.494  0.00  0.00    +0.000 A 
ATOM      5  C   UNL     1       6.821   4.991  18.947  0.00  0.00    +0.000 A 
ATOM      6  O   UNL     1       7.638   5.323  17.918  0.00  0.00    +0.000 OA
ATOM      7  C   UNL     1       6.974   5.026  16.771  0.00  0.00    +0.000 A 
ATOM      8  C   UNL     1       7.488   5.174  15.489  0.00  0.00    +0.000 A 
ATOM      9  C   UNL     1       6.662   4.787  14.433  0.00  0.00    +0.000 A 
ATOM     10  C   UNL     1       5.377   4.296  14.669  0.00  0.00    +0.000 A 
ATOM     11  C   UNL     1       4.881   4.165  15.979  0.00  0.00    +0.000 A 
ATOM     12  C   UNL     1       5.709   4.526  17.063  0.00  0.00    +0.000 A 
ENDBRANCH   2   4
BRANCH   1  13
ATOM     13  C   UNL     1       2.506   4.304  20.689  0.00  0.00    +0.000 C 
BRANCH  13  15
ATOM     14  C   UNL     1       0.851   2.837  19.355  0.00  0.00    +0.000 C 
ATOM     15  C   UNL     1       1.102   4.141  20.095  0.00  0.00    +0.000 C 
ENDBRANCH  13  15
ENDBRANCH   1  13
BRANCH   1  16
ATOM     16  C   UNL     1       3.447   6.311  19.415  0.00  0.00    +0.000 C 
BRANCH  16  17
ATOM     17  C   UNL     1       2.789   6.683  18.123  0.00  0.00    +0.000 C 
ATOM     18  C   UNL     1       2.133   8.023  17.885  0.00  0.00    +0.000 C 
ATOM     19  C   UNL     1       3.443   7.715  17.224  0.00  0.00    +0.000 C 
ENDBRANCH  16  17
ENDBRANCH   1  16
TORSDOF 5
ENDMDL
MODEL 6
REMARK VINA RESULT:      -6.5      1.991      3.344
REMARK  Name = 
REMARK  6 active torsions:
REMARK  status: ('A' for Active; 'I' for Inactive)
REMARK    1  A    between atoms: C_1  and  C_2
REMARK    2  A    between atoms: C_2  and  C_3
REMARK    3  A    between atoms: C_3  and  N_4
REMARK    4  A    between atoms: N_4  and  C_5
REMARK    5  A    between atoms: C_5  and  C_6
REMARK    6  A    between atoms: C_9  and  C_11
REMARK                            x       y       z     vdW  Elec       q    Type
REMARK                         _______ _______ _______ _____ _____    ______ ____
ROOT
ATOM      1  N   UNL     1       6.032   4.903  17.071  0.00  0.00    +0.000 N 
ATOM      2  C   UNL     1       4.814   4.210  17.199  0.00  0.00    +0.000 C 
ATOM      3  O   UNL     1       4.593   3.181  16.555  0.00  0.00    +0.000 OA
ENDROOT
BRANCH   2   4
ATOM      4  C   UNL     1       3.783   4.690  18.122  0.00  0.00    +0.000 A 
ATOM      5  C   UNL     1       2.979   5.808  17.993  0.00  0.00    +0.000 A 
ATOM      6  O   UNL     1       2.094   5.902  19.015  0.00  0.00    +0.000 OA
ATOM      7  C   UNL     1       2.281   4.813  19.805  0.00  0.00    +0.000 A 
ATOM      8  C   UNL     1       1.535   4.510  20.937  0.00  0.00    +0.000 A 
ATOM      9  C   UNL     1       1.860   3.328  21.604  0.00  0.00    +0.000 A 
ATOM     10  C   UNL     1       2.899   2.512  21.156  0.00  0.00    +0.000 A 
ATOM     11  C   UNL     1       3.641   2.849  20.009  0.00  0.00    +0.000 A 
ATOM     12  C   UNL     1       3.314   4.027  19.304  0.00  0.00    +0.000 A 
ENDBRANCH   2   4
BRANCH   1  13
ATOM     13  C   UNL     1       6.933   4.437  16.007  0.00  0.00    +0.000 C 
BRANCH  13  15
ATOM     14  C   UNL     1       6.255   3.846  13.586  0.00  0.00    +0.000 C 
ATOM     15  C   UNL     1       6.575   4.932  14.601  0.00  0.00    +0.000 C 
ENDBRANCH  13  15
ENDBRANCH   1  13
BRANCH   1  16
ATOM     16  C   UNL     1       6.400   6.040  17.927  0.00  0.00    +0.000 C 
BRANCH  16  17
ATOM     17  C   UNL     1       7.620   6.825  17.557  0.00  0.00    +0.000 C 
ATOM     18  C   UNL     1       7.652   8.334  17.522  0.00  0.00    +0.000 C 
ATOM     19  C   UNL     1       8.356   7.608  18.629  0.00  0.00    +0.000 C 
ENDBRANCH  16  17
ENDBRANCH   1  16
TORSDOF 5
ENDMDL
MODEL 7
REMARK VINA RESULT:      -6.5      1.999      4.263
REMARK  Name = 
REMARK  6 active torsions:
REMARK  status: ('A' for Active; 'I' for Inactive)
REMARK    1  A    between atoms: C_1  and  C_2
REMARK    2  A    between atoms: C_2  and  C_3
REMARK    3  A    between atoms: C_3  and  N_4
REMARK    4  A    between atoms: N_4  and  C_5
REMARK    5  A    between atoms: C_5  and  C_6
REMARK    6  A    between atoms: C_9  and  C_11
REMARK                            x       y       z     vdW  Elec       q    Type
REMARK                         _______ _______ _______ _____ _____    ______ ____
ROOT
ATOM      1  N   UNL     1       5.352   4.642  17.422  0.00  0.00    +0.000 N 
ATOM      2  C   UNL     1       3.975   4.400  17.587  0.00  0.00    +0.000 C 
ATOM      3  O   UNL     1       3.381   3.583  16.879  0.00  0.00    +0.000 OA
ENDROOT
BRANCH   2   4
ATOM      4  C   UNL     1       3.219   5.103  18.626  0.00  0.00    +0.000 A 
ATOM      5  C   UNL     1       2.894   4.654  19.892  0.00  0.00    +0.000 A 
ATOM      6  O   UNL     1       2.239   5.605  20.602  0.00  0.00    +0.000 OA
ATOM      7  C   UNL     1       2.170   6.711  19.816  0.00  0.00    +0.000 A 
ATOM      8  C   UNL     1       1.616   7.927  20.195  0.00  0.00    +0.000 A 
ATOM      9  C   UNL     1       1.663   8.958  19.256  0.00  0.00    +0.000 A 
ATOM     10  C   UNL     1       2.226   8.757  17.995  0.00  0.00    +0.000 A 
ATOM     11  C   UNL     1       2.774   7.511  17.638  0.00  0.00    +0.000 A 
ATOM     12  C   UNL     1       2.759   6.461  18.581  0.00  0.00    +0.000 A 
ENDBRANCH   2   4
BRANCH   1  13
ATOM     13  C   UNL     1       5.986   4.012  16.256  0.00  0.00    +0.000 C 
BRANCH  13  15
ATOM     14  C   UNL     1       5.881   3.960  13.676  0.00  0.00    +0.000 C 
ATOM     15  C   UNL     1       5.841   4.795  14.946  0.00  0.00    +0.000 C 
ENDBRANCH  13  15
ENDBRANCH   1  13
BRANCH   1  16
ATOM     16  C   UNL     1       6.131   5.487  18.340  0.00  0.00    +0.000 C 
BRANCH  16  17
ATOM     17  C   UNL     1       7.391   6.105  17.818  0.00  0.00    +0.000 C 
ATOM     18  C   UNL     1       7.501   7.563  17.439  0.00  0.00    +0.000 C 
ATOM     19  C   UNL     1       8.163   7.075  18.692  0.00  0.00    +0.000 C 
ENDBRANCH  16  17
ENDBRANCH   1  16
TORSDOF 5
ENDMDL
MODEL 8
REMARK VINA RESULT:      -6.3      1.700      5.297
REMARK  Name = 
REMARK  6 active torsions:
REMARK  status: ('A' for Active; 'I' for Inactive)
REMARK    1  A    between atoms: C_1  and  C_2
REMARK    2  A    between atoms: C_2  and  C_3
REMARK    3  A    between atoms: C_3  and  N_4
REMARK    4  A    between atoms: N_4  and  C_5
REMARK    5  A    between atoms: C_5  and  C_6
REMARK    6  A    between atoms: C_9  and  C_11
REMARK                            x       y       z     vdW  Elec       q    Type
REMARK                         _______ _______ _______ _____ _____    ______ ____
ROOT
ATOM      1  N   UNL     1       3.112   4.327  18.798  0.00  0.00    +0.000 N 
ATOM      2  C   UNL     1       3.910   4.156  17.652  0.00  0.00    +0.000 C 
ATOM      3  O   UNL     1       3.838   3.131  16.970  0.00  0.00    +0.000 OA
ENDROOT
BRANCH   2   4
ATOM      4  C   UNL     1       4.836   5.211  17.231  0.00  0.00    +0.000 A 
ATOM      5  C   UNL     1       4.710   6.074  16.158  0.00  0.00    +0.000 A 
ATOM      6  O   UNL     1       5.733   6.962  16.115  0.00  0.00    +0.000 OA
ATOM      7  C   UNL     1       6.519   6.717  17.195  0.00  0.00    +0.000 A 
ATOM      8  C   UNL     1       7.649   7.446  17.542  0.00  0.00    +0.000 A 
ATOM      9  C   UNL     1       8.312   7.058  18.707  0.00  0.00    +0.000 A 
ATOM     10  C   UNL     1       7.860   5.977  19.465  0.00  0.00    +0.000 A 
ATOM     11  C   UNL     1       6.715   5.254  19.084  0.00  0.00    +0.000 A 
ATOM     12  C   UNL     1       6.015   5.644  17.923  0.00  0.00    +0.000 A 
ENDBRANCH   2   4
BRANCH   1  13
ATOM     13  C   UNL     1       2.336   3.156  19.228  0.00  0.00    +0.000 C 
BRANCH  13  15
ATOM     14  C   UNL     1       1.605   2.798  21.680  0.00  0.00    +0.000 C 
ATOM     15  C   UNL     1       1.310   3.437  20.332  0.00  0.00    +0.000 C 
ENDBRANCH  13  15
ENDBRANCH   1  13
BRANCH   1  16
ATOM     16  C   UNL     1       3.050   5.590  19.549  0.00  0.00    +0.000 C 
BRANCH  16  17
ATOM     17  C   UNL     1       2.057   6.619  19.104  0.00  0.00    +0.000 C 
ATOM     18  C   UNL     1       1.912   7.968  19.767  0.00  0.00    +0.000 C 
ATOM     19  C   UNL     1       2.547   7.877  18.412  0.00  0.00    +0.000 C 
ENDBRANCH  16  17
ENDBRANCH   1  16
TORSDOF 5
ENDMDL
MODEL 9
REMARK VINA RESULT:      -6.3      2.882      5.671
REMARK  Name = 
REMARK  6 active torsions:
REMARK  status: ('A' for Active; 'I' for Inactive)
REMARK    1  A    between atoms: C_1  and  C_2
REMARK    2  A    between atoms: C_2  and  C_3
REMARK    3  A    between atoms: C_3  and  N_4
REMARK    4  A    between atoms: N_4  and  C_5
REMARK    5  A    between atoms: C_5  and  C_6
REMARK    6  A    between atoms: C_9  and  C_11
REMARK                            x       y       z     vdW  Elec       q    Type
REMARK                         _______ _______ _______ _____ _____    ______ ____
ROOT
ATOM      1  N   UNL     1       3.616   4.920  17.643  0.00  0.00    +0.000 N 
ATOM      2  C   UNL     1       4.523   4.071  16.985  0.00  0.00    +0.000 C 
ATOM      3  O   UNL     1       4.401   2.844  17.032  0.00  0.00    +0.000 OA
ENDROOT
BRANCH   2   4
ATOM      4  C   UNL     1       5.630   4.632  16.205  0.00  0.00    +0.000 A 
ATOM      5  C   UNL     1       6.683   5.405  16.658  0.00  0.00    +0.000 A 
ATOM      6  O   UNL     1       7.553   5.691  15.659  0.00  0.00    +0.000 OA
ATOM      7  C   UNL     1       7.098   5.064  14.543  0.00  0.00    +0.000 A 
ATOM      8  C   UNL     1       7.735   5.067  13.309  0.00  0.00    +0.000 A 
ATOM      9  C   UNL     1       7.125   4.340  12.286  0.00  0.00    +0.000 A 
ATOM     10  C   UNL     1       5.924   3.663  12.503  0.00  0.00    +0.000 A 
ATOM     11  C   UNL     1       5.298   3.684  13.763  0.00  0.00    +0.000 A 
ATOM     12  C   UNL     1       5.910   4.393  14.819  0.00  0.00    +0.000 A 
ENDBRANCH   2   4
BRANCH   1  13
ATOM     13  C   UNL     1       2.640   4.266  18.527  0.00  0.00    +0.000 C 
BRANCH  13  15
ATOM     14  C   UNL     1       2.112   4.706  21.017  0.00  0.00    +0.000 C 
ATOM     15  C   UNL     1       3.082   4.143  19.990  0.00  0.00    +0.000 C 
ENDBRANCH  13  15
ENDBRANCH   1  13
BRANCH   1  16
ATOM     16  C   UNL     1       3.630   6.383  17.488  0.00  0.00    +0.000 C 
BRANCH  16  17
ATOM     17  C   UNL     1       2.374   7.131  17.812  0.00  0.00    +0.000 C 
ATOM     18  C   UNL     1       2.190   7.924  19.084  0.00  0.00    +0.000 C 
ATOM     19  C   UNL     1       2.383   8.648  17.786  0.00  0.00    +0.000 C 
ENDBRANCH  16  17
ENDBRANCH   1  16
TORSDOF 5
ENDMDL
