MODEL 1
REMARK VINA RESULT:      -8.2      0.000      0.000
REMARK  Name = 
REMARK  4 active torsions:
REMARK  status: ('A' for Active; 'I' for Inactive)
REMARK    1  A    between atoms: C_1  and  C_2
REMARK    2  A    between atoms: C_5  and  N_6
REMARK    3  A    between atoms: C_11  and  N_12
REMARK    4  A    between atoms: C_13  and  C_15
REMARK                            x       y       z     vdW  Elec       q    Type
REMARK                         _______ _______ _______ _____ _____    ______ ____
ROOT
ATOM      1  N   UNL     1       1.105   8.589  20.499  0.00  0.00    +0.000 N 
ATOM      2  N   UNL     1       1.369   7.389  21.063  0.00  0.00    +0.000 NA
ATOM      3  C   UNL     1       2.095   6.767  20.131  0.00  0.00    +0.000 A 
ATOM      4  C   UNL     1       2.643   5.481  20.170  0.00  0.00    +0.000 A 
ATOM      5  C   UNL     1       3.381   5.128  19.024  0.00  0.00    +0.000 A 
ATOM      6  C   UNL     1       3.583   5.983  17.900  0.00  0.00    +0.000 A 
ATOM      7  C   UNL     1       3.012   7.280  17.851  0.00  0.00    +0.000 A 
ATOM      8  C   UNL     1       2.262   7.657  18.991  0.00  0.00    +0.000 A 
ATOM      9  N   UNL     1       1.603   8.800  19.250  0.00  0.00    +0.000 NA
ENDROOT
BRANCH   1  14
ATOM     10  C   UNL     1      -1.973  12.545  23.286  0.00  0.00    +0.000 C 
ATOM     11  C   UNL     1      -1.166  11.514  22.554  0.00  0.00    +0.000 A 
ATOM     12  C   UNL     1      -0.712  11.753  21.254  0.00  0.00    +0.000 A 
ATOM     13  C   UNL     1       0.043  10.789  20.582  0.00  0.00    +0.000 A 
ATOM     14  C   UNL     1       0.347   9.566  21.201  0.00  0.00    +0.000 A 
ATOM     15  C   UNL     1      -0.102   9.323  22.505  0.00  0.00    +0.000 A 
ATOM     16  C   UNL     1      -0.849  10.297  23.176  0.00  0.00    +0.000 A 
ENDBRANCH   1  14
BRANCH   6  17
ATOM     17  N   UNL     1       4.359   5.580  16.784  0.00  0.00    +0.000 N 
ATOM     18  C   UNL     1       5.745   5.581  16.667  0.00  0.00    +0.000 C 
ATOM     19  O   UNL     1       6.528   5.956  17.533  0.00  0.00    +0.000 OA
ATOM     20  H   UNL     1       3.864   5.268  15.954  0.00  0.00    +0.000 HD
BRANCH  18  21
ATOM     21  C   UNL     1       6.233   5.091  15.391  0.00  0.00    +0.000 A 
ATOM     22  C   UNL     1       5.695   4.144  14.538  0.00  0.00    +0.000 A 
ATOM     23  C   UNL     1       6.562   4.057  13.426  0.00  0.00    +0.000 A 
ATOM     24  C   UNL     1       7.580   4.950  13.668  0.00  0.00    +0.000 A 
ATOM     25  O   UNL     1       7.395   5.583  14.857  0.00  0.00    +0.000 OA
ENDBRANCH  18  21
ENDBRANCH   6  17
TORSDOF 3
ENDMDL
MODEL 2
REMARK VINA RESULT:      -8.2      0.621      1.160
REMARK  Name = 
REMARK  4 active torsions:
REMARK  status: ('A' for Active; 'I' for Inactive)
REMARK    1  A    between atoms: C_1  and  C_2
REMARK    2  A    between atoms: C_5  and  N_6
REMARK    3  A    between atoms: C_11  and  N_12
REMARK    4  A    between atoms: C_13  and  C_15
REMARK                            x       y       z     vdW  Elec       q    Type
REMARK                         _______ _______ _______ _____ _____    ______ ____
ROOT
ATOM      1  N   UNL     1       1.469   8.286  20.178  0.00  0.00    +0.000 N 
ATOM      2  N   UNL     1       1.835   7.105  20.727  0.00  0.00    +0.000 NA
ATOM      3  C   UNL     1       2.556   6.530  19.762  0.00  0.00    +0.000 A 
ATOM      4  C   UNL     1       3.187   5.282  19.773  0.00  0.00    +0.000 A 
ATOM      5  C   UNL     1       3.893   4.976  18.594  0.00  0.00    +0.000 A 
ATOM      6  C   UNL     1       3.989   5.841  17.465  0.00  0.00    +0.000 A 
ATOM      7  C   UNL     1       3.334   7.099  17.444  0.00  0.00    +0.000 A 
ATOM      8  C   UNL     1       2.615   7.428  18.617  0.00  0.00    +0.000 A 
ATOM      9  N   UNL     1       1.896   8.527  18.909  0.00  0.00    +0.000 NA
ENDROOT
BRANCH   1  14
ATOM     10  C   UNL     1      -1.675  12.011  23.200  0.00  0.00    +0.000 C 
ATOM     11  C   UNL     1      -0.854  11.033  22.412  0.00  0.00    +0.000 A 
ATOM     12  C   UNL     1      -0.337   9.883  23.017  0.00  0.00    +0.000 A 
ATOM     13  C   UNL     1       0.422   8.976  22.276  0.00  0.00    +0.000 A 
ATOM     14  C   UNL     1       0.682   9.212  20.916  0.00  0.00    +0.000 A 
ATOM     15  C   UNL     1       0.164  10.359  20.304  0.00  0.00    +0.000 A 
ATOM     16  C   UNL     1      -0.605  11.258  21.051  0.00  0.00    +0.000 A 
ENDBRANCH   1  14
BRANCH   6  17
ATOM     17  N   UNL     1       4.738   5.488  16.313  0.00  0.00    +0.000 N 
ATOM     18  C   UNL     1       6.115   5.319  16.214  0.00  0.00    +0.000 C 
ATOM     19  O   UNL     1       6.914   5.469  17.132  0.00  0.00    +0.000 OA
ATOM     20  H   UNL     1       4.231   5.358  15.443  0.00  0.00    +0.000 HD
BRANCH  18  21
ATOM     21  C   UNL     1       6.572   4.940  14.890  0.00  0.00    +0.000 A 
ATOM     22  C   UNL     1       6.075   3.989  14.016  0.00  0.00    +0.000 A 
ATOM     23  C   UNL     1       6.881   4.039  12.858  0.00  0.00    +0.000 A 
ATOM     24  C   UNL     1       7.825   5.011  13.093  0.00  0.00    +0.000 A 
ATOM     25  O   UNL     1       7.652   5.564  14.322  0.00  0.00    +0.000 OA
ENDBRANCH  18  21
ENDBRANCH   6  17
TORSDOF 3
ENDMDL
MODEL 3
REMARK VINA RESULT:      -7.6      0.886      1.055
REMARK  Name = 
REMARK  4 active torsions:
REMARK  status: ('A' for Active; 'I' for Inactive)
REMARK    1  A    between atoms: C_1  and  C_2
REMARK    2  A    between atoms: C_5  and  N_6
REMARK    3  A    between atoms: C_11  and  N_12
REMARK    4  A    between atoms: C_13  and  C_15
REMARK                            x       y       z     vdW  Elec       q    Type
REMARK                         _______ _______ _______ _____ _____    ______ ____
ROOT
ATOM      1  N   UNL     1       1.486   8.150  20.236  0.00  0.00    +0.000 N 
ATOM      2  N   UNL     1       1.851   6.981  20.811  0.00  0.00    +0.000 NA
ATOM      3  C   UNL     1       2.526   6.361  19.840  0.00  0.00    +0.000 A 
ATOM      4  C   UNL     1       3.134   5.102  19.871  0.00  0.00    +0.000 A 
ATOM      5  C   UNL     1       3.791   4.744  18.678  0.00  0.00    +0.000 A 
ATOM      6  C   UNL     1       3.862   5.570  17.517  0.00  0.00    +0.000 A 
ATOM      7  C   UNL     1       3.229   6.839  17.478  0.00  0.00    +0.000 A 
ATOM      8  C   UNL     1       2.559   7.220  18.665  0.00  0.00    +0.000 A 
ATOM      9  N   UNL     1       1.871   8.342  18.945  0.00  0.00    +0.000 NA
ENDROOT
BRANCH   1  14
ATOM     10  C   UNL     1      -1.538  12.052  23.156  0.00  0.00    +0.000 C 
ATOM     11  C   UNL     1      -0.745  11.034  22.388  0.00  0.00    +0.000 A 
ATOM     12  C   UNL     1      -0.536  11.180  21.014  0.00  0.00    +0.000 A 
ATOM     13  C   UNL     1       0.207  10.231  20.309  0.00  0.00    +0.000 A 
ATOM     14  C   UNL     1       0.744   9.115  20.971  0.00  0.00    +0.000 A 
ATOM     15  C   UNL     1       0.541   8.965  22.347  0.00  0.00    +0.000 A 
ATOM     16  C   UNL     1      -0.196   9.926  23.049  0.00  0.00    +0.000 A 
ENDBRANCH   1  14
BRANCH   6  17
ATOM     17  N   UNL     1       4.562   5.166  16.352  0.00  0.00    +0.000 N 
ATOM     18  C   UNL     1       5.764   5.668  15.866  0.00  0.00    +0.000 C 
ATOM     19  O   UNL     1       6.412   6.573  16.380  0.00  0.00    +0.000 OA
ATOM     20  H   UNL     1       4.144   4.438  15.780  0.00  0.00    +0.000 HD
BRANCH  18  21
ATOM     21  C   UNL     1       6.226   5.025  14.650  0.00  0.00    +0.000 A 
ATOM     22  C   UNL     1       7.403   5.199  13.944  0.00  0.00    +0.000 A 
ATOM     23  C   UNL     1       7.355   4.313  12.845  0.00  0.00    +0.000 A 
ATOM     24  C   UNL     1       6.152   3.655  12.940  0.00  0.00    +0.000 A 
ATOM     25  O   UNL     1       5.455   4.078  14.028  0.00  0.00    +0.000 OA
ENDBRANCH  18  21
ENDBRANCH   6  17
TORSDOF 3
ENDMDL
MODEL 4
REMARK VINA RESULT:      -7.6      1.029      1.504
REMARK  Name = 
REMARK  4 active torsions:
REMARK  status: ('A' for Active; 'I' for Inactive)
REMARK    1  A    between atoms: C_1  and  C_2
REMARK    2  A    between atoms: C_5  and  N_6
REMARK    3  A    between atoms: C_11  and  N_12
REMARK    4  A    between atoms: C_13  and  C_15
REMARK                            x       y       z     vdW  Elec       q    Type
REMARK                         _______ _______ _______ _____ _____    ______ ____
ROOT
ATOM      1  N   UNL     1       0.942   8.792  20.488  0.00  0.00    +0.000 N 
ATOM      2  N   UNL     1       1.224   7.606  21.075  0.00  0.00    +0.000 NA
ATOM      3  C   UNL     1       2.018   7.007  20.185  0.00  0.00    +0.000 A 
ATOM      4  C   UNL     1       2.613   5.743  20.261  0.00  0.00    +0.000 A 
ATOM      5  C   UNL     1       3.419   5.412  19.155  0.00  0.00    +0.000 A 
ATOM      6  C   UNL     1       3.644   6.267  18.036  0.00  0.00    +0.000 A 
ATOM      7  C   UNL     1       3.027   7.541  17.949  0.00  0.00    +0.000 A 
ATOM      8  C   UNL     1       2.208   7.895  19.047  0.00  0.00    +0.000 A 
ATOM      9  N   UNL     1       1.493   9.014  19.265  0.00  0.00    +0.000 NA
ENDROOT
BRANCH   1  14
ATOM     10  C   UNL     1      -2.375  12.618  23.183  0.00  0.00    +0.000 C 
ATOM     11  C   UNL     1      -1.509  11.613  22.481  0.00  0.00    +0.000 A 
ATOM     12  C   UNL     1      -1.001  10.505  23.166  0.00  0.00    +0.000 A 
ATOM     13  C   UNL     1      -0.200   9.573  22.504  0.00  0.00    +0.000 A 
ATOM     14  C   UNL     1       0.113   9.743  21.145  0.00  0.00    +0.000 A 
ATOM     15  C   UNL     1      -0.396  10.848  20.453  0.00  0.00    +0.000 A 
ATOM     16  C   UNL     1      -1.207  11.772  21.121  0.00  0.00    +0.000 A 
ENDBRANCH   1  14
BRANCH   6  17
ATOM     17  N   UNL     1       4.489   5.888  16.963  0.00  0.00    +0.000 N 
ATOM     18  C   UNL     1       4.648   4.620  16.413  0.00  0.00    +0.000 C 
ATOM     19  O   UNL     1       4.074   3.606  16.795  0.00  0.00    +0.000 OA
ATOM     20  H   UNL     1       5.070   6.608  16.543  0.00  0.00    +0.000 HD
BRANCH  18  21
ATOM     21  C   UNL     1       5.584   4.567  15.306  0.00  0.00    +0.000 A 
ATOM     22  C   UNL     1       6.860   5.092  15.194  0.00  0.00    +0.000 A 
ATOM     23  C   UNL     1       7.336   4.738  13.912  0.00  0.00    +0.000 A 
ATOM     24  C   UNL     1       6.324   4.024  13.315  0.00  0.00    +0.000 A 
ATOM     25  O   UNL     1       5.254   3.915  14.147  0.00  0.00    +0.000 OA
ENDBRANCH  18  21
ENDBRANCH   6  17
TORSDOF 3
ENDMDL
MODEL 5
REMARK VINA RESULT:      -7.3      1.231      1.681
REMARK  Name = 
REMARK  4 active torsions:
REMARK  status: ('A' for Active; 'I' for Inactive)
REMARK    1  A    between atoms: C_1  and  C_2
REMARK    2  A    between atoms: C_5  and  N_6
REMARK    3  A    between atoms: C_11  and  N_12
REMARK    4  A    between atoms: C_13  and  C_15
REMARK                            x       y       z     vdW  Elec       q    Type
REMARK                         _______ _______ _______ _____ _____    ______ ____
ROOT
ATOM      1  N   UNL     1       1.606   8.183  20.041  0.00  0.00    +0.000 N 
ATOM      2  N   UNL     1       1.998   6.994  20.556  0.00  0.00    +0.000 NA
ATOM      3  C   UNL     1       2.743   6.471  19.580  0.00  0.00    +0.000 A 
ATOM      4  C   UNL     1       3.406   5.240  19.558  0.00  0.00    +0.000 A 
ATOM      5  C   UNL     1       4.131   4.991  18.376  0.00  0.00    +0.000 A 
ATOM      6  C   UNL     1       4.216   5.895  17.277  0.00  0.00    +0.000 A 
ATOM      7  C   UNL     1       3.528   7.136  17.291  0.00  0.00    +0.000 A 
ATOM      8  C   UNL     1       2.789   7.407  18.466  0.00  0.00    +0.000 A 
ATOM      9  N   UNL     1       2.038   8.477  18.786  0.00  0.00    +0.000 NA
ENDROOT
BRANCH   1  14
ATOM     10  C   UNL     1      -1.660  11.730  23.148  0.00  0.00    +0.000 C 
ATOM     11  C   UNL     1      -0.806  10.798  22.339  0.00  0.00    +0.000 A 
ATOM     12  C   UNL     1      -0.122   9.743  22.949  0.00  0.00    +0.000 A 
ATOM     13  C   UNL     1       0.666   8.878  22.188  0.00  0.00    +0.000 A 
ATOM     14  C   UNL     1       0.788   9.064  20.801  0.00  0.00    +0.000 A 
ATOM     15  C   UNL     1       0.102  10.116  20.183  0.00  0.00    +0.000 A 
ATOM     16  C   UNL     1      -0.694  10.972  20.952  0.00  0.00    +0.000 A 
ENDBRANCH   1  14
BRANCH   6  17
ATOM     17  N   UNL     1       4.985   5.600  16.123  0.00  0.00    +0.000 N 
ATOM     18  C   UNL     1       5.397   4.350  15.673  0.00  0.00    +0.000 C 
ATOM     19  O   UNL     1       5.162   3.284  16.232  0.00  0.00    +0.000 OA
ATOM     20  H   UNL     1       5.298   6.380  15.553  0.00  0.00    +0.000 HD
BRANCH  18  21
ATOM     21  C   UNL     1       6.164   4.386  14.442  0.00  0.00    +0.000 A 
ATOM     22  C   UNL     1       7.296   5.113  14.120  0.00  0.00    +0.000 A 
ATOM     23  C   UNL     1       7.644   4.763  12.797  0.00  0.00    +0.000 A 
ATOM     24  C   UNL     1       6.703   3.848  12.386  0.00  0.00    +0.000 A 
ATOM     25  O   UNL     1       5.797   3.612  13.372  0.00  0.00    +0.000 OA
ENDBRANCH  18  21
ENDBRANCH   6  17
TORSDOF 3
ENDMDL
MODEL 6
REMARK VINA RESULT:      -7.2      3.473      9.458
REMARK  Name = 
REMARK  4 active torsions:
REMARK  status: ('A' for Active; 'I' for Inactive)
REMARK    1  A    between atoms: C_1  and  C_2
REMARK    2  A    between atoms: C_5  and  N_6
REMARK    3  A    between atoms: C_11  and  N_12
REMARK    4  A    between atoms: C_13  and  C_15
REMARK                            x       y       z     vdW  Elec       q    Type
REMARK                         _______ _______ _______ _____ _____    ______ ____
ROOT
ATOM      1  N   UNL     1       3.204   6.596  18.143  0.00  0.00    +0.000 N 
ATOM      2  N   UNL     1       2.792   5.932  19.247  0.00  0.00    +0.000 NA
ATOM      3  C   UNL     1       2.070   6.845  19.900  0.00  0.00    +0.000 A 
ATOM      4  C   UNL     1       1.401   6.714  21.121  0.00  0.00    +0.000 A 
ATOM      5  C   UNL     1       0.706   7.868  21.531  0.00  0.00    +0.000 A 
ATOM      6  C   UNL     1       0.657   9.085  20.789  0.00  0.00    +0.000 A 
ATOM      7  C   UNL     1       1.351   9.226  19.560  0.00  0.00    +0.000 A 
ATOM      8  C   UNL     1       2.060   8.080  19.129  0.00  0.00    +0.000 A 
ATOM      9  N   UNL     1       2.807   7.892  18.026  0.00  0.00    +0.000 NA
ENDROOT
BRANCH   1  14
ATOM     10  C   UNL     1       6.472   4.009  14.204  0.00  0.00    +0.000 C 
ATOM     11  C   UNL     1       5.617   4.690  15.231  0.00  0.00    +0.000 A 
ATOM     12  C   UNL     1       5.556   6.084  15.300  0.00  0.00    +0.000 A 
ATOM     13  C   UNL     1       4.754   6.710  16.256  0.00  0.00    +0.000 A 
ATOM     14  C   UNL     1       4.006   5.944  17.165  0.00  0.00    +0.000 A 
ATOM     15  C   UNL     1       4.059   4.548  17.099  0.00  0.00    +0.000 A 
ATOM     16  C   UNL     1       4.857   3.928  16.131  0.00  0.00    +0.000 A 
ENDBRANCH   1  14
BRANCH   6  17
ATOM     17  N   UNL     1      -0.082  10.208  21.242  0.00  0.00    +0.000 N 
ATOM     18  C   UNL     1      -0.319  10.595  22.556  0.00  0.00    +0.000 C 
ATOM     19  O   UNL     1       0.075   9.999  23.552  0.00  0.00    +0.000 OA
ATOM     20  H   UNL     1      -0.514  10.802  20.540  0.00  0.00    +0.000 HD
BRANCH  18  21
ATOM     21  C   UNL     1      -1.105  11.808  22.684  0.00  0.00    +0.000 A 
ATOM     22  C   UNL     1      -2.423  11.978  23.067  0.00  0.00    +0.000 A 
ATOM     23  C   UNL     1      -2.682  13.366  23.038  0.00  0.00    +0.000 A 
ATOM     24  C   UNL     1      -1.511  13.962  22.634  0.00  0.00    +0.000 A 
ATOM     25  O   UNL     1      -0.546  13.030  22.413  0.00  0.00    +0.000 OA
ENDBRANCH  18  21
ENDBRANCH   6  17
TORSDOF 3
ENDMDL
MODEL 7
REMARK VINA RESULT:      -7.2      3.671      9.527
REMARK  Name = 
REMARK  4 active torsions:
REMARK  status: ('A' for Active; 'I' for Inactive)
REMARK    1  A    between atoms: C_1  and  C_2
REMARK    2  A    between atoms: C_5  and  N_6
REMARK    3  A    between atoms: C_11  and  N_12
REMARK    4  A    between atoms: C_13  and  C_15
REMARK                            x       y       z     vdW  Elec       q    Type
REMARK                         _______ _______ _______ _____ _____    ______ ____
ROOT
ATOM      1  N   UNL     1       2.908   7.164  18.283  0.00  0.00    +0.000 N 
ATOM      2  N   UNL     1       2.632   6.835  19.566  0.00  0.00    +0.000 NA
ATOM      3  C   UNL     1       1.837   7.829  19.971  0.00  0.00    +0.000 A 
ATOM      4  C   UNL     1       1.247   8.015  21.225  0.00  0.00    +0.000 A 
ATOM      5  C   UNL     1       0.440   9.164  21.323  0.00  0.00    +0.000 A 
ATOM      6  C   UNL     1       0.210  10.082  20.256  0.00  0.00    +0.000 A 
ATOM      7  C   UNL     1       0.822   9.905  18.990  0.00  0.00    +0.000 A 
ATOM      8  C   UNL     1       1.642   8.758  18.867  0.00  0.00    +0.000 A 
ATOM      9  N   UNL     1       2.354   8.315  17.815  0.00  0.00    +0.000 NA
ENDROOT
BRANCH   1  14
ATOM     10  C   UNL     1       6.203   3.749  15.062  0.00  0.00    +0.000 C 
ATOM     11  C   UNL     1       5.341   4.639  15.908  0.00  0.00    +0.000 A 
ATOM     12  C   UNL     1       4.359   4.098  16.744  0.00  0.00    +0.000 A 
ATOM     13  C   UNL     1       3.564   4.933  17.531  0.00  0.00    +0.000 A 
ATOM     14  C   UNL     1       3.735   6.326  17.486  0.00  0.00    +0.000 A 
ATOM     15  C   UNL     1       4.719   6.873  16.654  0.00  0.00    +0.000 A 
ATOM     16  C   UNL     1       5.519   6.029  15.875  0.00  0.00    +0.000 A 
ENDBRANCH   1  14
BRANCH   6  17
ATOM     17  N   UNL     1      -0.637  11.210  20.408  0.00  0.00    +0.000 N 
ATOM     18  C   UNL     1      -0.362  12.392  21.086  0.00  0.00    +0.000 C 
ATOM     19  O   UNL     1       0.680  12.640  21.684  0.00  0.00    +0.000 OA
ATOM     20  H   UNL     1      -1.564  11.161  19.998  0.00  0.00    +0.000 HD
BRANCH  18  21
ATOM     21  C   UNL     1      -1.439  13.364  21.043  0.00  0.00    +0.000 A 
ATOM     22  C   UNL     1      -1.391  14.746  21.061  0.00  0.00    +0.000 A 
ATOM     23  C   UNL     1      -2.725  15.203  20.983  0.00  0.00    +0.000 A 
ATOM     24  C   UNL     1      -3.510  14.074  20.928  0.00  0.00    +0.000 A 
ATOM     25  O   UNL     1      -2.744  12.952  20.966  0.00  0.00    +0.000 OA
ENDBRANCH  18  21
ENDBRANCH   6  17
TORSDOF 3
ENDMDL
MODEL 8
REMARK VINA RESULT:      -7.2      3.656      9.464
REMARK  Name = 
REMARK  4 active torsions:
REMARK  status: ('A' for Active; 'I' for Inactive)
REMARK    1  A    between atoms: C_1  and  C_2
REMARK    2  A    between atoms: C_5  and  N_6
REMARK    3  A    between atoms: C_11  and  N_12
REMARK    4  A    between atoms: C_13  and  C_15
REMARK                            x       y       z     vdW  Elec       q    Type
REMARK                         _______ _______ _______ _____ _____    ______ ____
ROOT
ATOM      1  N   UNL     1       2.993   7.132  18.242  0.00  0.00    +0.000 N 
ATOM      2  N   UNL     1       2.642   6.743  19.490  0.00  0.00    +0.000 NA
ATOM      3  C   UNL     1       1.889   7.756  19.924  0.00  0.00    +0.000 A 
ATOM      4  C   UNL     1       1.256   7.900  21.163  0.00  0.00    +0.000 A 
ATOM      5  C   UNL     1       0.512   9.088  21.301  0.00  0.00    +0.000 A 
ATOM      6  C   UNL     1       0.381  10.080  20.286  0.00  0.00    +0.000 A 
ATOM      7  C   UNL     1       1.038   9.944  19.036  0.00  0.00    +0.000 A 
ATOM      8  C   UNL     1       1.795   8.760  18.874  0.00  0.00    +0.000 A 
ATOM      9  N   UNL     1       2.525   8.339  17.825  0.00  0.00    +0.000 NA
ENDROOT
BRANCH   1  14
ATOM     10  C   UNL     1       6.226   3.724  14.952  0.00  0.00    +0.000 C 
ATOM     11  C   UNL     1       5.380   4.612  15.816  0.00  0.00    +0.000 A 
ATOM     12  C   UNL     1       4.440   4.067  16.697  0.00  0.00    +0.000 A 
ATOM     13  C   UNL     1       3.660   4.900  17.500  0.00  0.00    +0.000 A 
ATOM     14  C   UNL     1       3.804   6.295  17.427  0.00  0.00    +0.000 A 
ATOM     15  C   UNL     1       4.746   6.847  16.551  0.00  0.00    +0.000 A 
ATOM     16  C   UNL     1       5.532   6.004  15.756  0.00  0.00    +0.000 A 
ENDBRANCH   1  14
BRANCH   6  17
ATOM     17  N   UNL     1      -0.405  11.245  20.475  0.00  0.00    +0.000 N 
ATOM     18  C   UNL     1      -1.561  11.610  19.793  0.00  0.00    +0.000 C 
ATOM     19  O   UNL     1      -2.082  10.966  18.888  0.00  0.00    +0.000 OA
ATOM     20  H   UNL     1      -0.095  11.915  21.172  0.00  0.00    +0.000 HD
BRANCH  18  21
ATOM     21  C   UNL     1      -2.140  12.864  20.236  0.00  0.00    +0.000 A 
ATOM     22  C   UNL     1      -3.442  13.165  20.595  0.00  0.00    +0.000 A 
ATOM     23  C   UNL     1      -3.460  14.528  20.963  0.00  0.00    +0.000 A 
ATOM     24  C   UNL     1      -2.172  14.982  20.802  0.00  0.00    +0.000 A 
ATOM     25  O   UNL     1      -1.360  13.984  20.360  0.00  0.00    +0.000 OA
ENDBRANCH  18  21
ENDBRANCH   6  17
TORSDOF 3
ENDMDL
MODEL 9
REMARK VINA RESULT:      -7.2      3.599      9.557
REMARK  Name = 
REMARK  4 active torsions:
REMARK  status: ('A' for Active; 'I' for Inactive)
REMARK    1  A    between atoms: C_1  and  C_2
REMARK    2  A    between atoms: C_5  and  N_6
REMARK    3  A    between atoms: C_11  and  N_12
REMARK    4  A    between atoms: C_13  and  C_15
REMARK                            x       y       z     vdW  Elec       q    Type
REMARK                         _______ _______ _______ _____ _____    ______ ____
ROOT
ATOM      1  N   UNL     1       2.999   6.966  18.307  0.00  0.00    +0.000 N 
ATOM      2  N   UNL     1       2.674   6.492  19.532  0.00  0.00    +0.000 NA
ATOM      3  C   UNL     1       1.894   7.453  20.033  0.00  0.00    +0.000 A 
ATOM      4  C   UNL     1       1.271   7.503  21.284  0.00  0.00    +0.000 A 
ATOM      5  C   UNL     1       0.493   8.656  21.501  0.00  0.00    +0.000 A 
ATOM      6  C   UNL     1       0.321   9.703  20.549  0.00  0.00    +0.000 A 
ATOM      7  C   UNL     1       0.967   9.663  19.287  0.00  0.00    +0.000 A 
ATOM      8  C   UNL     1       1.759   8.515  19.047  0.00  0.00    +0.000 A 
ATOM      9  N   UNL     1       2.490   8.182  17.968  0.00  0.00    +0.000 NA
ENDROOT
BRANCH   1  14
ATOM     10  C   UNL     1       6.300   3.864  14.789  0.00  0.00    +0.000 C 
ATOM     11  C   UNL     1       5.436   4.672  15.713  0.00  0.00    +0.000 A 
ATOM     12  C   UNL     1       4.569   4.044  16.611  0.00  0.00    +0.000 A 
ATOM     13  C   UNL     1       3.772   4.804  17.470  0.00  0.00    +0.000 A 
ATOM     14  C   UNL     1       3.827   6.206  17.435  0.00  0.00    +0.000 A 
ATOM     15  C   UNL     1       4.696   6.841  16.541  0.00  0.00    +0.000 A 
ATOM     16  C   UNL     1       5.500   6.073  15.690  0.00  0.00    +0.000 A 
ENDBRANCH   1  14
BRANCH   6  17
ATOM     17  N   UNL     1      -0.499  10.829  20.815  0.00  0.00    +0.000 N 
ATOM     18  C   UNL     1      -0.767  11.412  22.049  0.00  0.00    +0.000 C 
ATOM     19  O   UNL     1      -0.333  11.020  23.126  0.00  0.00    +0.000 OA
ATOM     20  H   UNL     1      -0.971  11.265  20.028  0.00  0.00    +0.000 HD
BRANCH  18  21
ATOM     21  C   UNL     1      -1.638  12.570  21.980  0.00  0.00    +0.000 A 
ATOM     22  C   UNL     1      -2.634  12.987  22.846  0.00  0.00    +0.000 A 
ATOM     23  C   UNL     1      -3.160  14.186  22.317  0.00  0.00    +0.000 A 
ATOM     24  C   UNL     1      -2.462  14.429  21.158  0.00  0.00    +0.000 A 
ATOM     25  O   UNL     1      -1.537  13.456  20.939  0.00  0.00    +0.000 OA
ENDBRANCH  18  21
ENDBRANCH   6  17
TORSDOF 3
ENDMDL
