MODEL 1
REMARK VINA RESULT:      -8.8      0.000      0.000
REMARK  Name = 
REMARK  11 active torsions:
REMARK  status: ('A' for Active; 'I' for Inactive)
REMARK    1  A    between atoms: C_1  and  C_2
REMARK    2  A    between atoms: C_2  and  C_3
REMARK    3  A    between atoms: C_3  and  C_4
REMARK    4  A    between atoms: C_4  and  C_5
REMARK    5  A    between atoms: C_4  and  C_30
REMARK    6  A    between atoms: C_5  and  C_6
REMARK    7  A    between atoms: C_6  and  C_7
REMARK    8  A    between atoms: C_10  and  C_11
REMARK    9  A    between atoms: N_16  and  C_17
REMARK   10  A    between atoms: C_17  and  C_18
REMARK   11  A    between atoms: C_30  and  O_32
REMARK                            x       y       z     vdW  Elec       q    Type
REMARK                         _______ _______ _______ _____ _____    ______ ____
ROOT
ATOM      1  C   UNL     1       3.143   5.403  18.736  0.00  0.00    +0.000 A 
ATOM      2  N   UNL     1       3.427   6.252  17.769  0.00  0.00    +0.000 NA
ATOM      3  N   UNL     1       2.883   7.462  18.119  0.00  0.00    +0.000 NA
ATOM      4  C   UNL     1       2.257   7.320  19.281  0.00  0.00    +0.000 A 
ATOM      5  O   UNL     1       2.343   5.985  19.680  0.00  0.00    +0.000 OA
ENDROOT
BRANCH   4   6
ATOM      6  C   UNL     1       1.617   8.368  20.043  0.00  0.00    +0.000 A 
ATOM      7  C   UNL     1       1.464   8.366  21.489  0.00  0.00    +0.000 A 
ATOM      8  C   UNL     1       0.781   9.325  22.131  0.00  0.00    +0.000 A 
ATOM      9  C   UNL     1       0.146  10.432  21.373  0.00  0.00    +0.000 A 
ATOM     10  O   UNL     1      -0.553  11.241  21.977  0.00  0.00    +0.000 OA
ATOM     11  N   UNL     1       0.419  10.461  20.005  0.00  0.00    +0.000 N 
ATOM     12  C   UNL     1       1.124   9.434  19.374  0.00  0.00    +0.000 A 
BRANCH  11  13
ATOM     13  C   UNL     1      -0.125  11.577  19.214  0.00  0.00    +0.000 C 
BRANCH  13  14
ATOM     14  C   UNL     1      -1.442  11.234  18.544  0.00  0.00    +0.000 A 
ATOM     15  C   UNL     1      -2.622  11.909  18.886  0.00  0.00    +0.000 A 
ATOM     16  C   UNL     1      -3.849  11.509  18.347  0.00  0.00    +0.000 A 
ATOM     17  C   UNL     1      -3.910  10.436  17.460  0.00  0.00    +0.000 A 
ATOM     18  C   UNL     1      -2.739   9.789  17.074  0.00  0.00    +0.000 A 
ATOM     19  C   UNL     1      -1.513  10.194  17.604  0.00  0.00    +0.000 A 
ENDBRANCH  13  14
ENDBRANCH  11  13
ENDBRANCH   4   6
BRANCH   1  20
ATOM     20  C   UNL     1       3.804   4.061  19.023  0.00  0.00    +0.000 C 
ATOM     21  C   UNL     1       3.490   3.123  17.804  0.00  0.00    +0.000 C 
ATOM     22  C   UNL     1       2.079   2.590  18.038  0.00  0.00    +0.000 C 
ATOM     23  C   UNL     1       1.931   2.511  19.549  0.00  0.00    +0.000 C 
ATOM     24  C   UNL     1       3.152   3.225  20.141  0.00  0.00    +0.000 C 
BRANCH  20  25
ATOM     25  C   UNL     1       5.365   4.164  19.124  0.00  0.00    +0.000 C 
BRANCH  25  26
ATOM     26  C   UNL     1       6.263   5.041  18.208  0.00  0.00    +0.000 C 
BRANCH  26  27
ATOM     27  C   UNL     1       7.303   5.909  18.904  0.00  0.00    +0.000 C 
ATOM     28  O   UNL     1       7.835   6.890  18.408  0.00  0.00    +0.000 OA
BRANCH  27  29
ATOM     29  O   UNL     1       7.564   5.536  20.177  0.00  0.00    +0.000 OA
ATOM     30  H   UNL     1       6.863   5.006  20.597  0.00  0.00    +0.000 HD
ENDBRANCH  27  29
ENDBRANCH  26  27
BRANCH  26  31
ATOM     31  C   UNL     1       6.897   4.337  16.990  0.00  0.00    +0.000 C 
BRANCH  31  33
ATOM     32  C   UNL     1       5.593   5.634  15.206  0.00  0.00    +0.000 C 
ATOM     33  C   UNL     1       6.030   4.275  15.728  0.00  0.00    +0.000 C 
ENDBRANCH  31  33
ENDBRANCH  26  31
ENDBRANCH  25  26
ENDBRANCH  20  25
ENDBRANCH   1  20
TORSDOF 10
ENDMDL
MODEL 2
REMARK VINA RESULT:      -8.7      1.660      2.325
REMARK  Name = 
REMARK  11 active torsions:
REMARK  status: ('A' for Active; 'I' for Inactive)
REMARK    1  A    between atoms: C_1  and  C_2
REMARK    2  A    between atoms: C_2  and  C_3
REMARK    3  A    between atoms: C_3  and  C_4
REMARK    4  A    between atoms: C_4  and  C_5
REMARK    5  A    between atoms: C_4  and  C_30
REMARK    6  A    between atoms: C_5  and  C_6
REMARK    7  A    between atoms: C_6  and  C_7
REMARK    8  A    between atoms: C_10  and  C_11
REMARK    9  A    between atoms: N_16  and  C_17
REMARK   10  A    between atoms: C_17  and  C_18
REMARK   11  A    between atoms: C_30  and  O_32
REMARK                            x       y       z     vdW  Elec       q    Type
REMARK                         _______ _______ _______ _____ _____    ______ ____
ROOT
ATOM      1  C   UNL     1       3.096   5.673  19.642  0.00  0.00    +0.000 A 
ATOM      2  N   UNL     1       2.277   5.017  20.438  0.00  0.00    +0.000 NA
ATOM      3  N   UNL     1       1.451   5.943  21.025  0.00  0.00    +0.000 NA
ATOM      4  C   UNL     1       1.801   7.148  20.593  0.00  0.00    +0.000 A 
ATOM      5  O   UNL     1       2.907   7.024  19.750  0.00  0.00    +0.000 OA
ENDROOT
BRANCH   4   6
ATOM      6  C   UNL     1       1.139   8.395  20.902  0.00  0.00    +0.000 A 
ATOM      7  C   UNL     1       0.733   8.810  22.236  0.00  0.00    +0.000 A 
ATOM      8  C   UNL     1       0.040   9.940  22.446  0.00  0.00    +0.000 A 
ATOM      9  C   UNL     1      -0.342  10.811  21.307  0.00  0.00    +0.000 A 
ATOM     10  O   UNL     1      -1.057  11.786  21.520  0.00  0.00    +0.000 OA
ATOM     11  N   UNL     1       0.170  10.439  20.064  0.00  0.00    +0.000 N 
ATOM     12  C   UNL     1       0.875   9.247  19.886  0.00  0.00    +0.000 A 
BRANCH  11  13
ATOM     13  C   UNL     1      -0.117  11.306  18.910  0.00  0.00    +0.000 C 
BRANCH  13  14
ATOM     14  C   UNL     1      -1.430  10.965  18.231  0.00  0.00    +0.000 A 
ATOM     15  C   UNL     1      -1.502   9.948  17.269  0.00  0.00    +0.000 A 
ATOM     16  C   UNL     1      -2.689   9.719  16.568  0.00  0.00    +0.000 A 
ATOM     17  C   UNL     1      -3.817  10.498  16.823  0.00  0.00    +0.000 A 
ATOM     18  C   UNL     1      -3.774  11.476  17.811  0.00  0.00    +0.000 A 
ATOM     19  C   UNL     1      -2.591  11.700  18.518  0.00  0.00    +0.000 A 
ENDBRANCH  13  14
ENDBRANCH  11  13
ENDBRANCH   4   6
BRANCH   1  20
ATOM     20  C   UNL     1       3.941   5.112  18.506  0.00  0.00    +0.000 C 
ATOM     21  C   UNL     1       2.977   4.869  17.292  0.00  0.00    +0.000 C 
ATOM     22  C   UNL     1       2.285   3.536  17.567  0.00  0.00    +0.000 C 
ATOM     23  C   UNL     1       3.302   2.714  18.342  0.00  0.00    +0.000 C 
ATOM     24  C   UNL     1       4.446   3.670  18.704  0.00  0.00    +0.000 C 
BRANCH  20  25
ATOM     25  C   UNL     1       5.041   6.116  18.016  0.00  0.00    +0.000 C 
BRANCH  25  26
ATOM     26  C   UNL     1       6.502   5.729  17.650  0.00  0.00    +0.000 C 
BRANCH  26  27
ATOM     27  C   UNL     1       6.760   5.338  16.201  0.00  0.00    +0.000 C 
ATOM     28  O   UNL     1       6.117   5.745  15.245  0.00  0.00    +0.000 OA
BRANCH  27  29
ATOM     29  O   UNL     1       7.825   4.523  16.035  0.00  0.00    +0.000 OA
ATOM     30  H   UNL     1       8.526   4.627  16.705  0.00  0.00    +0.000 HD
ENDBRANCH  27  29
ENDBRANCH  26  27
BRANCH  26  31
ATOM     31  C   UNL     1       7.609   6.686  18.140  0.00  0.00    +0.000 C 
BRANCH  31  33
ATOM     32  C   UNL     1       8.367   9.131  18.240  0.00  0.00    +0.000 C 
ATOM     33  C   UNL     1       7.684   8.042  17.429  0.00  0.00    +0.000 C 
ENDBRANCH  31  33
ENDBRANCH  26  31
ENDBRANCH  25  26
ENDBRANCH  20  25
ENDBRANCH   1  20
TORSDOF 10
ENDMDL
MODEL 3
REMARK VINA RESULT:      -8.7      1.568      3.555
REMARK  Name = 
REMARK  11 active torsions:
REMARK  status: ('A' for Active; 'I' for Inactive)
REMARK    1  A    between atoms: C_1  and  C_2
REMARK    2  A    between atoms: C_2  and  C_3
REMARK    3  A    between atoms: C_3  and  C_4
REMARK    4  A    between atoms: C_4  and  C_5
REMARK    5  A    between atoms: C_4  and  C_30
REMARK    6  A    between atoms: C_5  and  C_6
REMARK    7  A    between atoms: C_6  and  C_7
REMARK    8  A    between atoms: C_10  and  C_11
REMARK    9  A    between atoms: N_16  and  C_17
REMARK   10  A    between atoms: C_17  and  C_18
REMARK   11  A    between atoms: C_30  and  O_32
REMARK                            x       y       z     vdW  Elec       q    Type
REMARK                         _______ _______ _______ _____ _____    ______ ____
ROOT
ATOM      1  C   UNL     1       4.101   5.861  18.020  0.00  0.00    +0.000 A 
ATOM      2  N   UNL     1       4.063   6.779  17.075  0.00  0.00    +0.000 NA
ATOM      3  N   UNL     1       3.222   7.773  17.508  0.00  0.00    +0.000 NA
ATOM      4  C   UNL     1       2.746   7.430  18.698  0.00  0.00    +0.000 A 
ATOM      5  O   UNL     1       3.237   6.167  19.035  0.00  0.00    +0.000 OA
ENDROOT
BRANCH   4   6
ATOM      6  C   UNL     1       1.889   8.231  19.542  0.00  0.00    +0.000 A 
ATOM      7  C   UNL     1       1.544   7.909  20.918  0.00  0.00    +0.000 A 
ATOM      8  C   UNL     1       0.670   8.646  21.620  0.00  0.00    +0.000 A 
ATOM      9  C   UNL     1       0.017   9.828  21.005  0.00  0.00    +0.000 A 
ATOM     10  O   UNL     1      -0.848  10.425  21.639  0.00  0.00    +0.000 OA
ATOM     11  N   UNL     1       0.467  10.171  19.730  0.00  0.00    +0.000 N 
ATOM     12  C   UNL     1       1.368   9.367  19.027  0.00  0.00    +0.000 A 
BRANCH  11  13
ATOM     13  C   UNL     1      -0.094  11.376  19.099  0.00  0.00    +0.000 C 
BRANCH  13  14
ATOM     14  C   UNL     1      -1.456  11.134  18.478  0.00  0.00    +0.000 A 
ATOM     15  C   UNL     1      -2.568  11.898  18.857  0.00  0.00    +0.000 A 
ATOM     16  C   UNL     1      -3.840  11.592  18.364  0.00  0.00    +0.000 A 
ATOM     17  C   UNL     1      -4.014  10.524  17.485  0.00  0.00    +0.000 A 
ATOM     18  C   UNL     1      -2.911   9.790  17.061  0.00  0.00    +0.000 A 
ATOM     19  C   UNL     1      -1.640  10.100  17.545  0.00  0.00    +0.000 A 
ENDBRANCH  13  14
ENDBRANCH  11  13
ENDBRANCH   4   6
BRANCH   1  20
ATOM     20  C   UNL     1       5.136   4.760  18.208  0.00  0.00    +0.000 C 
ATOM     21  C   UNL     1       6.476   5.455  18.638  0.00  0.00    +0.000 C 
ATOM     22  C   UNL     1       7.113   5.970  17.350  0.00  0.00    +0.000 C 
ATOM     23  C   UNL     1       6.686   4.984  16.275  0.00  0.00    +0.000 C 
ATOM     24  C   UNL     1       5.625   4.080  16.914  0.00  0.00    +0.000 C 
BRANCH  20  25
ATOM     25  C   UNL     1       4.756   3.760  19.354  0.00  0.00    +0.000 C 
BRANCH  25  26
ATOM     26  C   UNL     1       3.407   2.996  19.461  0.00  0.00    +0.000 C 
BRANCH  26  27
ATOM     27  C   UNL     1       3.222   1.808  18.526  0.00  0.00    +0.000 C 
ATOM     28  O   UNL     1       4.043   0.918  18.361  0.00  0.00    +0.000 OA
BRANCH  27  29
ATOM     29  O   UNL     1       2.018   1.776  17.912  0.00  0.00    +0.000 OA
ATOM     30  H   UNL     1       1.945   1.121  17.194  0.00  0.00    +0.000 HD
ENDBRANCH  27  29
ENDBRANCH  26  27
BRANCH  26  31
ATOM     31  C   UNL     1       2.940   2.622  20.884  0.00  0.00    +0.000 C 
BRANCH  31  33
ATOM     32  C   UNL     1       0.933   4.103  20.295  0.00  0.00    +0.000 C 
ATOM     33  C   UNL     1       1.661   3.313  21.371  0.00  0.00    +0.000 C 
ENDBRANCH  31  33
ENDBRANCH  26  31
ENDBRANCH  25  26
ENDBRANCH  20  25
ENDBRANCH   1  20
TORSDOF 10
ENDMDL
MODEL 4
REMARK VINA RESULT:      -8.6      1.776      2.547
REMARK  Name = 
REMARK  11 active torsions:
REMARK  status: ('A' for Active; 'I' for Inactive)
REMARK    1  A    between atoms: C_1  and  C_2
REMARK    2  A    between atoms: C_2  and  C_3
REMARK    3  A    between atoms: C_3  and  C_4
REMARK    4  A    between atoms: C_4  and  C_5
REMARK    5  A    between atoms: C_4  and  C_30
REMARK    6  A    between atoms: C_5  and  C_6
REMARK    7  A    between atoms: C_6  and  C_7
REMARK    8  A    between atoms: C_10  and  C_11
REMARK    9  A    between atoms: N_16  and  C_17
REMARK   10  A    between atoms: C_17  and  C_18
REMARK   11  A    between atoms: C_30  and  O_32
REMARK                            x       y       z     vdW  Elec       q    Type
REMARK                         _______ _______ _______ _____ _____    ______ ____
ROOT
ATOM      1  C   UNL     1       2.748   7.042  18.456  0.00  0.00    +0.000 A 
ATOM      2  N   UNL     1       2.704   8.106  17.679  0.00  0.00    +0.000 NA
ATOM      3  N   UNL     1       2.038   9.087  18.370  0.00  0.00    +0.000 NA
ATOM      4  C   UNL     1       1.668   8.593  19.546  0.00  0.00    +0.000 A 
ATOM      5  O   UNL     1       2.048   7.251  19.612  0.00  0.00    +0.000 OA
ENDROOT
BRANCH   4   6
ATOM      6  C   UNL     1       1.011   9.316  20.611  0.00  0.00    +0.000 A 
ATOM      7  C   UNL     1       0.920   8.860  21.989  0.00  0.00    +0.000 A 
ATOM      8  C   UNL     1       0.219   9.534  22.913  0.00  0.00    +0.000 A 
ATOM      9  C   UNL     1      -0.499  10.782  22.552  0.00  0.00    +0.000 A 
ATOM     10  O   UNL     1      -1.209  11.323  23.394  0.00  0.00    +0.000 OA
ATOM     11  N   UNL     1      -0.286  11.246  21.253  0.00  0.00    +0.000 N 
ATOM     12  C   UNL     1       0.440  10.506  20.317  0.00  0.00    +0.000 A 
BRANCH  11  13
ATOM     13  C   UNL     1      -0.915  12.517  20.861  0.00  0.00    +0.000 C 
BRANCH  13  14
ATOM     14  C   UNL     1      -2.313  12.332  20.302  0.00  0.00    +0.000 A 
ATOM     15  C   UNL     1      -2.514  11.790  19.025  0.00  0.00    +0.000 A 
ATOM     16  C   UNL     1      -3.798  11.730  18.474  0.00  0.00    +0.000 A 
ATOM     17  C   UNL     1      -4.893  12.206  19.194  0.00  0.00    +0.000 A 
ATOM     18  C   UNL     1      -4.714  12.700  20.482  0.00  0.00    +0.000 A 
ATOM     19  C   UNL     1      -3.434  12.752  21.036  0.00  0.00    +0.000 A 
ENDBRANCH  13  14
ENDBRANCH  11  13
ENDBRANCH   4   6
BRANCH   1  20
ATOM     20  C   UNL     1       3.666   5.834  18.330  0.00  0.00    +0.000 C 
ATOM     21  C   UNL     1       2.817   4.674  17.700  0.00  0.00    +0.000 C 
ATOM     22  C   UNL     1       2.014   4.069  18.849  0.00  0.00    +0.000 C 
ATOM     23  C   UNL     1       2.891   4.242  20.079  0.00  0.00    +0.000 C 
ATOM     24  C   UNL     1       4.052   5.152  19.658  0.00  0.00    +0.000 C 
BRANCH  20  25
ATOM     25  C   UNL     1       4.874   6.087  17.364  0.00  0.00    +0.000 C 
BRANCH  25  26
ATOM     26  C   UNL     1       6.281   5.441  17.506  0.00  0.00    +0.000 C 
BRANCH  26  27
ATOM     27  C   UNL     1       6.761   4.594  16.335  0.00  0.00    +0.000 C 
ATOM     28  O   UNL     1       7.741   4.847  15.649  0.00  0.00    +0.000 OA
BRANCH  27  29
ATOM     29  O   UNL     1       6.036   3.471  16.137  0.00  0.00    +0.000 OA
ATOM     30  H   UNL     1       5.140   3.623  15.784  0.00  0.00    +0.000 HD
ENDBRANCH  27  29
ENDBRANCH  26  27
BRANCH  26  31
ATOM     31  C   UNL     1       7.417   6.368  17.984  0.00  0.00    +0.000 C 
BRANCH  31  33
ATOM     32  C   UNL     1       8.430   8.720  18.074  0.00  0.00    +0.000 C 
ATOM     33  C   UNL     1       7.323   7.830  17.533  0.00  0.00    +0.000 C 
ENDBRANCH  31  33
ENDBRANCH  26  31
ENDBRANCH  25  26
ENDBRANCH  20  25
ENDBRANCH   1  20
TORSDOF 10
ENDMDL
MODEL 5
REMARK VINA RESULT:      -8.6      1.410      2.143
REMARK  Name = 
REMARK  11 active torsions:
REMARK  status: ('A' for Active; 'I' for Inactive)
REMARK    1  A    between atoms: C_1  and  C_2
REMARK    2  A    between atoms: C_2  and  C_3
REMARK    3  A    between atoms: C_3  and  C_4
REMARK    4  A    between atoms: C_4  and  C_5
REMARK    5  A    between atoms: C_4  and  C_30
REMARK    6  A    between atoms: C_5  and  C_6
REMARK    7  A    between atoms: C_6  and  C_7
REMARK    8  A    between atoms: C_10  and  C_11
REMARK    9  A    between atoms: N_16  and  C_17
REMARK   10  A    between atoms: C_17  and  C_18
REMARK   11  A    between atoms: C_30  and  O_32
REMARK                            x       y       z     vdW  Elec       q    Type
REMARK                         _______ _______ _______ _____ _____    ______ ____
ROOT
ATOM      1  C   UNL     1       3.423   5.679  17.678  0.00  0.00    +0.000 A 
ATOM      2  N   UNL     1       4.077   6.738  17.245  0.00  0.00    +0.000 NA
ATOM      3  N   UNL     1       3.521   7.835  17.854  0.00  0.00    +0.000 NA
ATOM      4  C   UNL     1       2.524   7.425  18.628  0.00  0.00    +0.000 A 
ATOM      5  O   UNL     1       2.383   6.043  18.489  0.00  0.00    +0.000 OA
ENDROOT
BRANCH   4   6
ATOM      6  C   UNL     1       1.725   8.249  19.506  0.00  0.00    +0.000 A 
ATOM      7  C   UNL     1       1.474   7.964  20.910  0.00  0.00    +0.000 A 
ATOM      8  C   UNL     1       0.650   8.720  21.650  0.00  0.00    +0.000 A 
ATOM      9  C   UNL     1      -0.045   9.886  21.050  0.00  0.00    +0.000 A 
ATOM     10  O   UNL     1      -0.866  10.500  21.725  0.00  0.00    +0.000 OA
ATOM     11  N   UNL     1       0.317  10.194  19.738  0.00  0.00    +0.000 N 
ATOM     12  C   UNL     1       1.169   9.371  18.997  0.00  0.00    +0.000 A 
BRANCH  11  13
ATOM     13  C   UNL     1      -0.286  11.383  19.114  0.00  0.00    +0.000 C 
BRANCH  13  14
ATOM     14  C   UNL     1      -1.604  11.080  18.427  0.00  0.00    +0.000 A 
ATOM     15  C   UNL     1      -1.675  10.151  17.380  0.00  0.00    +0.000 A 
ATOM     16  C   UNL     1      -2.870   9.964  16.678  0.00  0.00    +0.000 A 
ATOM     17  C   UNL     1      -4.006  10.698  17.017  0.00  0.00    +0.000 A 
ATOM     18  C   UNL     1      -3.962  11.587  18.087  0.00  0.00    +0.000 A 
ATOM     19  C   UNL     1      -2.773  11.768  18.794  0.00  0.00    +0.000 A 
ENDBRANCH  13  14
ENDBRANCH  11  13
ENDBRANCH   4   6
BRANCH   1  20
ATOM     20  C   UNL     1       3.859   4.222  17.609  0.00  0.00    +0.000 C 
ATOM     21  C   UNL     1       2.558   3.357  17.463  0.00  0.00    +0.000 C 
ATOM     22  C   UNL     1       1.983   3.222  18.871  0.00  0.00    +0.000 C 
ATOM     23  C   UNL     1       3.191   3.237  19.794  0.00  0.00    +0.000 C 
ATOM     24  C   UNL     1       4.394   3.626  18.926  0.00  0.00    +0.000 C 
BRANCH  20  25
ATOM     25  C   UNL     1       4.751   3.914  16.357  0.00  0.00    +0.000 C 
BRANCH  25  26
ATOM     26  C   UNL     1       6.273   4.211  16.251  0.00  0.00    +0.000 C 
BRANCH  26  27
ATOM     27  C   UNL     1       6.688   5.292  15.262  0.00  0.00    +0.000 C 
ATOM     28  O   UNL     1       7.751   5.313  14.659  0.00  0.00    +0.000 OA
BRANCH  27  29
ATOM     29  O   UNL     1       5.740   6.232  15.047  0.00  0.00    +0.000 OA
ATOM     30  H   UNL     1       5.391   6.650  15.856  0.00  0.00    +0.000 HD
ENDBRANCH  27  29
ENDBRANCH  26  27
BRANCH  26  31
ATOM     31  C   UNL     1       7.031   4.397  17.582  0.00  0.00    +0.000 C 
BRANCH  31  33
ATOM     32  C   UNL     1       7.918   6.012  19.363  0.00  0.00    +0.000 C 
ATOM     33  C   UNL     1       7.405   5.839  17.942  0.00  0.00    +0.000 C 
ENDBRANCH  31  33
ENDBRANCH  26  31
ENDBRANCH  25  26
ENDBRANCH  20  25
ENDBRANCH   1  20
TORSDOF 10
ENDMDL
MODEL 6
REMARK VINA RESULT:      -8.5      1.591      2.045
REMARK  Name = 
REMARK  11 active torsions:
REMARK  status: ('A' for Active; 'I' for Inactive)
REMARK    1  A    between atoms: C_1  and  C_2
REMARK    2  A    between atoms: C_2  and  C_3
REMARK    3  A    between atoms: C_3  and  C_4
REMARK    4  A    between atoms: C_4  and  C_5
REMARK    5  A    between atoms: C_4  and  C_30
REMARK    6  A    between atoms: C_5  and  C_6
REMARK    7  A    between atoms: C_6  and  C_7
REMARK    8  A    between atoms: C_10  and  C_11
REMARK    9  A    between atoms: N_16  and  C_17
REMARK   10  A    between atoms: C_17  and  C_18
REMARK   11  A    between atoms: C_30  and  O_32
REMARK                            x       y       z     vdW  Elec       q    Type
REMARK                         _______ _______ _______ _____ _____    ______ ____
ROOT
ATOM      1  C   UNL     1       3.249   6.349  18.167  0.00  0.00    +0.000 A 
ATOM      2  N   UNL     1       3.923   6.860  17.156  0.00  0.00    +0.000 NA
ATOM      3  N   UNL     1       3.498   8.155  16.998  0.00  0.00    +0.000 NA
ATOM      4  C   UNL     1       2.556   8.400  17.901  0.00  0.00    +0.000 A 
ATOM      5  O   UNL     1       2.317   7.234  18.633  0.00  0.00    +0.000 OA
ENDROOT
BRANCH   4   6
ATOM      6  C   UNL     1       1.899   9.665  18.132  0.00  0.00    +0.000 A 
ATOM      7  C   UNL     1       2.547  10.964  18.048  0.00  0.00    +0.000 A 
ATOM      8  C   UNL     1       1.905  12.099  18.363  0.00  0.00    +0.000 A 
ATOM      9  C   UNL     1       0.492  12.063  18.816  0.00  0.00    +0.000 A 
ATOM     10  O   UNL     1      -0.039  13.105  19.188  0.00  0.00    +0.000 OA
ATOM     11  N   UNL     1      -0.127  10.813  18.766  0.00  0.00    +0.000 N 
ATOM     12  C   UNL     1       0.583   9.654  18.446  0.00  0.00    +0.000 A 
BRANCH  11  13
ATOM     13  C   UNL     1      -1.548  10.729  19.135  0.00  0.00    +0.000 C 
BRANCH  13  14
ATOM     14  C   UNL     1      -2.468  10.696  17.929  0.00  0.00    +0.000 A 
ATOM     15  C   UNL     1      -2.134   9.955  16.788  0.00  0.00    +0.000 A 
ATOM     16  C   UNL     1      -2.931  10.023  15.641  0.00  0.00    +0.000 A 
ATOM     17  C   UNL     1      -4.069  10.827  15.623  0.00  0.00    +0.000 A 
ATOM     18  C   UNL     1      -4.439  11.529  16.766  0.00  0.00    +0.000 A 
ATOM     19  C   UNL     1      -3.650  11.455  17.915  0.00  0.00    +0.000 A 
ENDBRANCH  13  14
ENDBRANCH  11  13
ENDBRANCH   4   6
BRANCH   1  20
ATOM     20  C   UNL     1       3.586   5.103  18.977  0.00  0.00    +0.000 C 
ATOM     21  C   UNL     1       3.279   3.864  18.065  0.00  0.00    +0.000 C 
ATOM     22  C   UNL     1       1.772   3.638  18.158  0.00  0.00    +0.000 C 
ATOM     23  C   UNL     1       1.389   4.090  19.558  0.00  0.00    +0.000 C 
ATOM     24  C   UNL     1       2.624   4.788  20.140  0.00  0.00    +0.000 C 
BRANCH  20  25
ATOM     25  C   UNL     1       5.104   5.020  19.359  0.00  0.00    +0.000 C 
BRANCH  25  26
ATOM     26  C   UNL     1       6.282   5.418  18.425  0.00  0.00    +0.000 C 
BRANCH  26  27
ATOM     27  C   UNL     1       7.512   6.012  19.098  0.00  0.00    +0.000 C 
ATOM     28  O   UNL     1       8.179   6.929  18.643  0.00  0.00    +0.000 OA
BRANCH  27  29
ATOM     29  O   UNL     1       7.791   5.473  20.306  0.00  0.00    +0.000 OA
ATOM     30  H   UNL     1       7.388   5.938  21.062  0.00  0.00    +0.000 HD
ENDBRANCH  27  29
ENDBRANCH  26  27
BRANCH  26  31
ATOM     31  C   UNL     1       6.711   4.371  17.376  0.00  0.00    +0.000 C 
BRANCH  31  33
ATOM     32  C   UNL     1       5.701   4.724  15.048  0.00  0.00    +0.000 C 
ATOM     33  C   UNL     1       6.912   4.896  15.951  0.00  0.00    +0.000 C 
ENDBRANCH  31  33
ENDBRANCH  26  31
ENDBRANCH  25  26
ENDBRANCH  20  25
ENDBRANCH   1  20
TORSDOF 10
ENDMDL
MODEL 7
REMARK VINA RESULT:      -8.5      2.135      9.028
REMARK  Name = 
REMARK  11 active torsions:
REMARK  status: ('A' for Active; 'I' for Inactive)
REMARK    1  A    between atoms: C_1  and  C_2
REMARK    2  A    between atoms: C_2  and  C_3
REMARK    3  A    between atoms: C_3  and  C_4
REMARK    4  A    between atoms: C_4  and  C_5
REMARK    5  A    between atoms: C_4  and  C_30
REMARK    6  A    between atoms: C_5  and  C_6
REMARK    7  A    between atoms: C_6  and  C_7
REMARK    8  A    between atoms: C_10  and  C_11
REMARK    9  A    between atoms: N_16  and  C_17
REMARK   10  A    between atoms: C_17  and  C_18
REMARK   11  A    between atoms: C_30  and  O_32
REMARK                            x       y       z     vdW  Elec       q    Type
REMARK                         _______ _______ _______ _____ _____    ______ ____
ROOT
ATOM      1  C   UNL     1       1.189   9.901  18.696  0.00  0.00    +0.000 A 
ATOM      2  N   UNL     1       1.887   9.774  17.586  0.00  0.00    +0.000 NA
ATOM      3  N   UNL     1       2.412   8.506  17.580  0.00  0.00    +0.000 NA
ATOM      4  C   UNL     1       2.043   7.894  18.698  0.00  0.00    +0.000 A 
ATOM      5  O   UNL     1       1.307   8.787  19.480  0.00  0.00    +0.000 OA
ENDROOT
BRANCH   4   6
ATOM      6  C   UNL     1       2.314   6.520  19.054  0.00  0.00    +0.000 A 
ATOM      7  C   UNL     1       2.135   5.956  20.382  0.00  0.00    +0.000 A 
ATOM      8  C   UNL     1       2.490   4.695  20.670  0.00  0.00    +0.000 A 
ATOM      9  C   UNL     1       3.089   3.825  19.627  0.00  0.00    +0.000 A 
ATOM     10  O   UNL     1       3.492   2.710  19.945  0.00  0.00    +0.000 OA
ATOM     11  N   UNL     1       3.130   4.365  18.341  0.00  0.00    +0.000 N 
ATOM     12  C   UNL     1       2.763   5.688  18.087  0.00  0.00    +0.000 A 
BRANCH  11  13
ATOM     13  C   UNL     1       3.648   3.521  17.253  0.00  0.00    +0.000 C 
BRANCH  13  14
ATOM     14  C   UNL     1       5.003   3.978  16.748  0.00  0.00    +0.000 A 
ATOM     15  C   UNL     1       6.060   4.219  17.636  0.00  0.00    +0.000 A 
ATOM     16  C   UNL     1       7.268   4.750  17.173  0.00  0.00    +0.000 A 
ATOM     17  C   UNL     1       7.434   5.041  15.820  0.00  0.00    +0.000 A 
ATOM     18  C   UNL     1       6.411   4.759  14.920  0.00  0.00    +0.000 A 
ATOM     19  C   UNL     1       5.208   4.221  15.380  0.00  0.00    +0.000 A 
ENDBRANCH  13  14
ENDBRANCH  11  13
ENDBRANCH   4   6
BRANCH   1  20
ATOM     20  C   UNL     1       0.127  10.946  19.015  0.00  0.00    +0.000 C 
ATOM     21  C   UNL     1       0.844  12.342  19.028  0.00  0.00    +0.000 C 
ATOM     22  C   UNL     1       1.510  12.458  20.397  0.00  0.00    +0.000 C 
ATOM     23  C   UNL     1       0.611  11.678  21.342  0.00  0.00    +0.000 C 
ATOM     24  C   UNL     1      -0.402  10.935  20.462  0.00  0.00    +0.000 C 
BRANCH  20  25
ATOM     25  C   UNL     1      -0.995  11.023  17.922  0.00  0.00    +0.000 C 
BRANCH  25  26
ATOM     26  C   UNL     1      -2.475  10.597  18.132  0.00  0.00    +0.000 C 
BRANCH  26  27
ATOM     27  C   UNL     1      -3.428  11.672  18.638  0.00  0.00    +0.000 C 
ATOM     28  O   UNL     1      -4.636  11.532  18.753  0.00  0.00    +0.000 OA
BRANCH  27  29
ATOM     29  O   UNL     1      -2.813  12.814  19.019  0.00  0.00    +0.000 OA
ATOM     30  H   UNL     1      -1.859  12.722  19.196  0.00  0.00    +0.000 HD
ENDBRANCH  27  29
ENDBRANCH  26  27
BRANCH  26  31
ATOM     31  C   UNL     1      -3.134   9.812  16.978  0.00  0.00    +0.000 C 
BRANCH  31  33
ATOM     32  C   UNL     1      -2.962  10.066  14.434  0.00  0.00    +0.000 C 
ATOM     33  C   UNL     1      -3.503  10.633  15.737  0.00  0.00    +0.000 C 
ENDBRANCH  31  33
ENDBRANCH  26  31
ENDBRANCH  25  26
ENDBRANCH  20  25
ENDBRANCH   1  20
TORSDOF 10
ENDMDL
MODEL 8
REMARK VINA RESULT:      -8.4      2.287      3.410
REMARK  Name = 
REMARK  11 active torsions:
REMARK  status: ('A' for Active; 'I' for Inactive)
REMARK    1  A    between atoms: C_1  and  C_2
REMARK    2  A    between atoms: C_2  and  C_3
REMARK    3  A    between atoms: C_3  and  C_4
REMARK    4  A    between atoms: C_4  and  C_5
REMARK    5  A    between atoms: C_4  and  C_30
REMARK    6  A    between atoms: C_5  and  C_6
REMARK    7  A    between atoms: C_6  and  C_7
REMARK    8  A    between atoms: C_10  and  C_11
REMARK    9  A    between atoms: N_16  and  C_17
REMARK   10  A    between atoms: C_17  and  C_18
REMARK   11  A    between atoms: C_30  and  O_32
REMARK                            x       y       z     vdW  Elec       q    Type
REMARK                         _______ _______ _______ _____ _____    ______ ____
ROOT
ATOM      1  C   UNL     1       2.728   7.156  18.489  0.00  0.00    +0.000 A 
ATOM      2  N   UNL     1       2.534   8.159  17.657  0.00  0.00    +0.000 NA
ATOM      3  N   UNL     1       1.821   9.117  18.335  0.00  0.00    +0.000 NA
ATOM      4  C   UNL     1       1.574   8.667  19.559  0.00  0.00    +0.000 A 
ATOM      5  O   UNL     1       2.085   7.373  19.677  0.00  0.00    +0.000 OA
ENDROOT
BRANCH   4   6
ATOM      6  C   UNL     1       0.920   9.393  20.623  0.00  0.00    +0.000 A 
ATOM      7  C   UNL     1       0.908   8.987  22.020  0.00  0.00    +0.000 A 
ATOM      8  C   UNL     1       0.206   9.657  22.946  0.00  0.00    +0.000 A 
ATOM      9  C   UNL     1      -0.595  10.848  22.569  0.00  0.00    +0.000 A 
ATOM     10  O   UNL     1      -1.302  11.381  23.419  0.00  0.00    +0.000 OA
ATOM     11  N   UNL     1      -0.459  11.273  21.247  0.00  0.00    +0.000 N 
ATOM     12  C   UNL     1       0.271  10.538  20.310  0.00  0.00    +0.000 A 
BRANCH  11  13
ATOM     13  C   UNL     1      -1.174  12.490  20.834  0.00  0.00    +0.000 C 
BRANCH  13  14
ATOM     14  C   UNL     1      -0.238  13.638  20.506  0.00  0.00    +0.000 A 
ATOM     15  C   UNL     1       0.803  13.992  21.375  0.00  0.00    +0.000 A 
ATOM     16  C   UNL     1       1.587  15.121  21.120  0.00  0.00    +0.000 A 
ATOM     17  C   UNL     1       1.343  15.905  19.993  0.00  0.00    +0.000 A 
ATOM     18  C   UNL     1       0.346  15.536  19.095  0.00  0.00    +0.000 A 
ATOM     19  C   UNL     1      -0.432  14.404  19.345  0.00  0.00    +0.000 A 
ENDBRANCH  13  14
ENDBRANCH  11  13
ENDBRANCH   4   6
BRANCH   1  20
ATOM     20  C   UNL     1       3.748   6.032  18.371  0.00  0.00    +0.000 C 
ATOM     21  C   UNL     1       3.063   4.871  17.566  0.00  0.00    +0.000 C 
ATOM     22  C   UNL     1       2.199   4.115  18.572  0.00  0.00    +0.000 C 
ATOM     23  C   UNL     1       2.930   4.247  19.899  0.00  0.00    +0.000 C 
ATOM     24  C   UNL     1       4.050   5.270  19.677  0.00  0.00    +0.000 C 
BRANCH  20  25
ATOM     25  C   UNL     1       5.024   6.452  17.564  0.00  0.00    +0.000 C 
BRANCH  25  26
ATOM     26  C   UNL     1       6.414   5.765  17.670  0.00  0.00    +0.000 C 
BRANCH  26  27
ATOM     27  C   UNL     1       6.794   4.820  16.538  0.00  0.00    +0.000 C 
ATOM     28  O   UNL     1       7.661   5.044  15.706  0.00  0.00    +0.000 OA
BRANCH  27  29
ATOM     29  O   UNL     1       6.122   3.648  16.553  0.00  0.00    +0.000 OA
ATOM     30  H   UNL     1       5.713   3.402  15.703  0.00  0.00    +0.000 HD
ENDBRANCH  27  29
ENDBRANCH  26  27
BRANCH  26  31
ATOM     31  C   UNL     1       7.608   6.680  18.013  0.00  0.00    +0.000 C 
BRANCH  31  33
ATOM     32  C   UNL     1       8.383   9.113  18.227  0.00  0.00    +0.000 C 
ATOM     33  C   UNL     1       7.536   8.108  17.462  0.00  0.00    +0.000 C 
ENDBRANCH  31  33
ENDBRANCH  26  31
ENDBRANCH  25  26
ENDBRANCH  20  25
ENDBRANCH   1  20
TORSDOF 10
ENDMDL
MODEL 9
REMARK VINA RESULT:      -8.4      1.010      1.324
REMARK  Name = 
REMARK  11 active torsions:
REMARK  status: ('A' for Active; 'I' for Inactive)
REMARK    1  A    between atoms: C_1  and  C_2
REMARK    2  A    between atoms: C_2  and  C_3
REMARK    3  A    between atoms: C_3  and  C_4
REMARK    4  A    between atoms: C_4  and  C_5
REMARK    5  A    between atoms: C_4  and  C_30
REMARK    6  A    between atoms: C_5  and  C_6
REMARK    7  A    between atoms: C_6  and  C_7
REMARK    8  A    between atoms: C_10  and  C_11
REMARK    9  A    between atoms: N_16  and  C_17
REMARK   10  A    between atoms: C_17  and  C_18
REMARK   11  A    between atoms: C_30  and  O_32
REMARK                            x       y       z     vdW  Elec       q    Type
REMARK                         _______ _______ _______ _____ _____    ______ ____
ROOT
ATOM      1  C   UNL     1       3.186   6.229  18.473  0.00  0.00    +0.000 A 
ATOM      2  N   UNL     1       3.361   7.244  17.652  0.00  0.00    +0.000 NA
ATOM      3  N   UNL     1       2.674   8.311  18.172  0.00  0.00    +0.000 NA
ATOM      4  C   UNL     1       2.074   7.918  19.289  0.00  0.00    +0.000 A 
ATOM      5  O   UNL     1       2.324   6.558  19.483  0.00  0.00    +0.000 OA
ENDROOT
BRANCH   4   6
ATOM      6  C   UNL     1       1.313   8.751  20.192  0.00  0.00    +0.000 A 
ATOM      7  C   UNL     1       1.265   8.581  21.636  0.00  0.00    +0.000 A 
ATOM      8  C   UNL     1       0.468   9.331  22.412  0.00  0.00    +0.000 A 
ATOM      9  C   UNL     1      -0.405  10.371  21.811  0.00  0.00    +0.000 A 
ATOM     10  O   UNL     1      -1.192  10.974  22.534  0.00  0.00    +0.000 OA
ATOM     11  N   UNL     1      -0.238  10.582  20.442  0.00  0.00    +0.000 N 
ATOM     12  C   UNL     1       0.593   9.768  19.668  0.00  0.00    +0.000 A 
BRANCH  11  13
ATOM     13  C   UNL     1      -1.025  11.650  19.805  0.00  0.00    +0.000 C 
BRANCH  13  14
ATOM     14  C   UNL     1      -1.835  11.156  18.622  0.00  0.00    +0.000 A 
ATOM     15  C   UNL     1      -2.627  10.004  18.720  0.00  0.00    +0.000 A 
ATOM     16  C   UNL     1      -3.278   9.493  17.592  0.00  0.00    +0.000 A 
ATOM     17  C   UNL     1      -3.149  10.130  16.359  0.00  0.00    +0.000 A 
ATOM     18  C   UNL     1      -2.408  11.303  16.259  0.00  0.00    +0.000 A 
ATOM     19  C   UNL     1      -1.765  11.819  17.386  0.00  0.00    +0.000 A 
ENDBRANCH  13  14
ENDBRANCH  11  13
ENDBRANCH   4   6
BRANCH   1  20
ATOM     20  C   UNL     1       4.008   4.950  18.563  0.00  0.00    +0.000 C 
ATOM     21  C   UNL     1       3.758   4.148  17.237  0.00  0.00    +0.000 C 
ATOM     22  C   UNL     1       2.428   3.424  17.430  0.00  0.00    +0.000 C 
ATOM     23  C   UNL     1       2.348   3.132  18.919  0.00  0.00    +0.000 C 
ATOM     24  C   UNL     1       3.500   3.903  19.574  0.00  0.00    +0.000 C 
BRANCH  20  25
ATOM     25  C   UNL     1       5.550   5.223  18.642  0.00  0.00    +0.000 C 
BRANCH  25  26
ATOM     26  C   UNL     1       6.413   5.810  17.490  0.00  0.00    +0.000 C 
BRANCH  26  27
ATOM     27  C   UNL     1       7.477   6.825  17.885  0.00  0.00    +0.000 C 
ATOM     28  O   UNL     1       8.204   6.725  18.862  0.00  0.00    +0.000 OA
BRANCH  27  29
ATOM     29  O   UNL     1       7.605   7.852  17.016  0.00  0.00    +0.000 OA
ATOM     30  H   UNL     1       7.593   8.736  17.426  0.00  0.00    +0.000 HD
ENDBRANCH  27  29
ENDBRANCH  26  27
BRANCH  26  31
ATOM     31  C   UNL     1       7.001   4.794  16.488  0.00  0.00    +0.000 C 
BRANCH  31  33
ATOM     32  C   UNL     1       6.175   3.778  14.286  0.00  0.00    +0.000 C 
ATOM     33  C   UNL     1       6.647   5.026  15.015  0.00  0.00    +0.000 C 
ENDBRANCH  31  33
ENDBRANCH  26  31
ENDBRANCH  25  26
ENDBRANCH  20  25
ENDBRANCH   1  20
TORSDOF 10
ENDMDL
