MODEL 1
REMARK VINA RESULT:      -5.8      0.000      0.000
REMARK  Name = 
REMARK  3 active torsions:
REMARK  status: ('A' for Active; 'I' for Inactive)
REMARK    1  A    between atoms: C_1  and  C_2
REMARK    2  A    between atoms: C_2  and  C_3
REMARK    3  A    between atoms: C_6  and  C_7
REMARK                            x       y       z     vdW  Elec       q    Type
REMARK                         _______ _______ _______ _____ _____    ______ ____
ROOT
ATOM      1  C   UNL     1       6.429   7.084  17.061  0.00  0.00    +0.000 C 
ATOM      2  C   UNL     1       6.308   5.563  17.093  0.00  0.00    +0.000 C 
ATOM      3  C   UNL     1       5.957   5.006  15.711  0.00  0.00    +0.000 C 
ATOM      4  C   UNL     1       7.507   4.846  17.769  0.00  0.00    +0.000 C 
ATOM      5  N   UNL     1       6.550   3.989  18.491  0.00  0.00    +0.000 NA
ATOM      6  C   UNL     1       5.492   5.015  18.317  0.00  0.00    +0.000 C 
ATOM      7  H   UNL     1       6.792   3.796  19.461  0.00  0.00    +0.000 HD
ENDROOT
BRANCH   6   8
ATOM      8  C   UNL     1       4.058   4.376  18.097  0.00  0.00    +0.000 A 
ATOM      9  C   UNL     1       3.825   2.996  17.948  0.00  0.00    +0.000 A 
ATOM     10  C   UNL     1       2.539   2.516  17.744  0.00  0.00    +0.000 A 
ATOM     11  N   UNL     1       1.447   3.301  17.679  0.00  0.00    +0.000 NA
ATOM     12  C   UNL     1       1.658   4.623  17.825  0.00  0.00    +0.000 A 
ATOM     13  C   UNL     1       2.912   5.186  18.032  0.00  0.00    +0.000 A 
ENDBRANCH   6   8
TORSDOF 1
ENDMDL
MODEL 2
REMARK VINA RESULT:      -5.7      1.601      4.395
REMARK  Name = 
REMARK  3 active torsions:
REMARK  status: ('A' for Active; 'I' for Inactive)
REMARK    1  A    between atoms: C_1  and  C_2
REMARK    2  A    between atoms: C_2  and  C_3
REMARK    3  A    between atoms: C_6  and  C_7
REMARK                            x       y       z     vdW  Elec       q    Type
REMARK                         _______ _______ _______ _____ _____    ______ ____
ROOT
ATOM      1  C   UNL     1       1.568   4.211  17.769  0.00  0.00    +0.000 C 
ATOM      2  C   UNL     1       2.939   4.170  18.437  0.00  0.00    +0.000 C 
ATOM      3  C   UNL     1       3.338   5.549  18.968  0.00  0.00    +0.000 C 
ATOM      4  C   UNL     1       3.104   3.029  19.477  0.00  0.00    +0.000 C 
ATOM      5  N   UNL     1       4.428   2.735  18.901  0.00  0.00    +0.000 NA
ATOM      6  C   UNL     1       4.021   3.373  17.625  0.00  0.00    +0.000 C 
ATOM      7  H   UNL     1       4.652   1.745  18.822  0.00  0.00    +0.000 HD
ENDROOT
BRANCH   6   8
ATOM      8  C   UNL     1       5.216   4.141  16.922  0.00  0.00    +0.000 A 
ATOM      9  C   UNL     1       6.330   4.661  17.609  0.00  0.00    +0.000 A 
ATOM     10  C   UNL     1       7.330   5.335  16.922  0.00  0.00    +0.000 A 
ATOM     11  N   UNL     1       7.320   5.537  15.590  0.00  0.00    +0.000 NA
ATOM     12  C   UNL     1       6.260   5.041  14.924  0.00  0.00    +0.000 A 
ATOM     13  C   UNL     1       5.218   4.354  15.533  0.00  0.00    +0.000 A 
ENDBRANCH   6   8
TORSDOF 1
ENDMDL
MODEL 3
REMARK VINA RESULT:      -5.6      1.617      4.398
REMARK  Name = 
REMARK  3 active torsions:
REMARK  status: ('A' for Active; 'I' for Inactive)
REMARK    1  A    between atoms: C_1  and  C_2
REMARK    2  A    between atoms: C_2  and  C_3
REMARK    3  A    between atoms: C_6  and  C_7
REMARK                            x       y       z     vdW  Elec       q    Type
REMARK                         _______ _______ _______ _____ _____    ______ ____
ROOT
ATOM      1  C   UNL     1       1.577   4.056  17.794  0.00  0.00    +0.000 C 
ATOM      2  C   UNL     1       2.952   4.144  18.450  0.00  0.00    +0.000 C 
ATOM      3  C   UNL     1       3.277   5.580  18.864  0.00  0.00    +0.000 C 
ATOM      4  C   UNL     1       3.184   3.101  19.576  0.00  0.00    +0.000 C 
ATOM      5  N   UNL     1       4.519   2.834  19.013  0.00  0.00    +0.000 NA
ATOM      6  C   UNL     1       4.071   3.344  17.694  0.00  0.00    +0.000 C 
ATOM      7  H   UNL     1       4.797   1.854  19.011  0.00  0.00    +0.000 HD
ENDROOT
BRANCH   6   8
ATOM      8  C   UNL     1       5.218   4.117  16.920  0.00  0.00    +0.000 A 
ATOM      9  C   UNL     1       5.207   4.360  15.534  0.00  0.00    +0.000 A 
ATOM     10  C   UNL     1       6.259   5.033  14.927  0.00  0.00    +0.000 A 
ATOM     11  N   UNL     1       7.335   5.495  15.592  0.00  0.00    +0.000 NA
ATOM     12  C   UNL     1       7.354   5.271  16.919  0.00  0.00    +0.000 A 
ATOM     13  C   UNL     1       6.344   4.606  17.604  0.00  0.00    +0.000 A 
ENDBRANCH   6   8
TORSDOF 1
ENDMDL
MODEL 4
REMARK VINA RESULT:      -5.6      0.878      1.571
REMARK  Name = 
REMARK  3 active torsions:
REMARK  status: ('A' for Active; 'I' for Inactive)
REMARK    1  A    between atoms: C_1  and  C_2
REMARK    2  A    between atoms: C_2  and  C_3
REMARK    3  A    between atoms: C_6  and  C_7
REMARK                            x       y       z     vdW  Elec       q    Type
REMARK                         _______ _______ _______ _____ _____    ______ ____
ROOT
ATOM      1  C   UNL     1       5.627   6.578  16.328  0.00  0.00    +0.000 C 
ATOM      2  C   UNL     1       5.728   5.116  16.753  0.00  0.00    +0.000 C 
ATOM      3  C   UNL     1       5.347   4.178  15.605  0.00  0.00    +0.000 C 
ATOM      4  C   UNL     1       7.070   4.748  17.441  0.00  0.00    +0.000 C 
ATOM      5  N   UNL     1       6.309   4.004  18.460  0.00  0.00    +0.000 NA
ATOM      6  C   UNL     1       5.104   4.817  18.162  0.00  0.00    +0.000 C 
ATOM      7  H   UNL     1       6.656   4.103  19.413  0.00  0.00    +0.000 HD
ENDROOT
BRANCH   6   8
ATOM      8  C   UNL     1       3.763   3.979  18.278  0.00  0.00    +0.000 A 
ATOM      9  C   UNL     1       2.481   4.511  18.047  0.00  0.00    +0.000 A 
ATOM     10  C   UNL     1       1.352   3.714  18.184  0.00  0.00    +0.000 A 
ATOM     11  N   UNL     1       1.390   2.414  18.531  0.00  0.00    +0.000 NA
ATOM     12  C   UNL     1       2.613   1.894  18.750  0.00  0.00    +0.000 A 
ATOM     13  C   UNL     1       3.792   2.621  18.636  0.00  0.00    +0.000 A 
ENDBRANCH   6   8
TORSDOF 1
ENDMDL
MODEL 5
REMARK VINA RESULT:      -5.6      1.447      4.620
REMARK  Name = 
REMARK  3 active torsions:
REMARK  status: ('A' for Active; 'I' for Inactive)
REMARK    1  A    between atoms: C_1  and  C_2
REMARK    2  A    between atoms: C_2  and  C_3
REMARK    3  A    between atoms: C_6  and  C_7
REMARK                            x       y       z     vdW  Elec       q    Type
REMARK                         _______ _______ _______ _____ _____    ______ ____
ROOT
ATOM      1  C   UNL     1       3.081   2.732  20.434  0.00  0.00    +0.000 C 
ATOM      2  C   UNL     1       3.017   2.956  18.926  0.00  0.00    +0.000 C 
ATOM      3  C   UNL     1       3.491   1.717  18.162  0.00  0.00    +0.000 C 
ATOM      4  C   UNL     1       1.658   3.516  18.426  0.00  0.00    +0.000 C 
ATOM      5  N   UNL     1       2.397   4.469  17.579  0.00  0.00    +0.000 NA
ATOM      6  C   UNL     1       3.582   4.345  18.464  0.00  0.00    +0.000 C 
ATOM      7  H   UNL     1       2.000   5.407  17.540  0.00  0.00    +0.000 HD
ENDROOT
BRANCH   6   8
ATOM      8  C   UNL     1       4.948   4.424  17.663  0.00  0.00    +0.000 A 
ATOM      9  C   UNL     1       5.050   4.284  16.266  0.00  0.00    +0.000 A 
ATOM     10  C   UNL     1       6.287   4.351  15.640  0.00  0.00    +0.000 A 
ATOM     11  N   UNL     1       7.448   4.552  16.293  0.00  0.00    +0.000 NA
ATOM     12  C   UNL     1       7.360   4.691  17.629  0.00  0.00    +0.000 A 
ATOM     13  C   UNL     1       6.164   4.637  18.334  0.00  0.00    +0.000 A 
ENDBRANCH   6   8
TORSDOF 1
ENDMDL
MODEL 6
REMARK VINA RESULT:      -5.5      1.356      1.562
REMARK  Name = 
REMARK  3 active torsions:
REMARK  status: ('A' for Active; 'I' for Inactive)
REMARK    1  A    between atoms: C_1  and  C_2
REMARK    2  A    between atoms: C_2  and  C_3
REMARK    3  A    between atoms: C_6  and  C_7
REMARK                            x       y       z     vdW  Elec       q    Type
REMARK                         _______ _______ _______ _____ _____    ______ ____
ROOT
ATOM      1  C   UNL     1       7.292   6.606  17.407  0.00  0.00    +0.000 C 
ATOM      2  C   UNL     1       6.290   5.708  16.688  0.00  0.00    +0.000 C 
ATOM      3  C   UNL     1       5.207   6.534  15.990  0.00  0.00    +0.000 C 
ATOM      4  C   UNL     1       6.941   4.634  15.776  0.00  0.00    +0.000 C 
ATOM      5  N   UNL     1       6.000   3.641  16.323  0.00  0.00    +0.000 NA
ATOM      6  C   UNL     1       5.817   4.475  17.537  0.00  0.00    +0.000 C 
ATOM      7  H   UNL     1       6.400   2.722  16.503  0.00  0.00    +0.000 HD
ENDROOT
BRANCH   6   8
ATOM      8  C   UNL     1       4.335   4.414  18.097  0.00  0.00    +0.000 A 
ATOM      9  C   UNL     1       3.269   3.774  17.436  0.00  0.00    +0.000 A 
ATOM     10  C   UNL     1       1.995   3.777  17.986  0.00  0.00    +0.000 A 
ATOM     11  N   UNL     1       1.685   4.368  19.156  0.00  0.00    +0.000 NA
ATOM     12  C   UNL     1       2.698   4.979  19.798  0.00  0.00    +0.000 A 
ATOM     13  C   UNL     1       4.002   5.023  19.318  0.00  0.00    +0.000 A 
ENDBRANCH   6   8
TORSDOF 1
ENDMDL
MODEL 7
REMARK VINA RESULT:      -5.5      1.967      2.052
REMARK  Name = 
REMARK  3 active torsions:
REMARK  status: ('A' for Active; 'I' for Inactive)
REMARK    1  A    between atoms: C_1  and  C_2
REMARK    2  A    between atoms: C_2  and  C_3
REMARK    3  A    between atoms: C_6  and  C_7
REMARK                            x       y       z     vdW  Elec       q    Type
REMARK                         _______ _______ _______ _____ _____    ______ ____
ROOT
ATOM      1  C   UNL     1       4.911   6.431  16.870  0.00  0.00    +0.000 C 
ATOM      2  C   UNL     1       5.006   5.034  17.477  0.00  0.00    +0.000 C 
ATOM      3  C   UNL     1       4.178   4.026  16.678  0.00  0.00    +0.000 C 
ATOM      4  C   UNL     1       6.459   4.565  17.760  0.00  0.00    +0.000 C 
ATOM      5  N   UNL     1       6.012   4.072  19.075  0.00  0.00    +0.000 NA
ATOM      6  C   UNL     1       4.860   5.007  19.039  0.00  0.00    +0.000 C 
ATOM      7  H   UNL     1       6.663   4.238  19.840  0.00  0.00    +0.000 HD
ENDROOT
BRANCH   6   8
ATOM      8  C   UNL     1       3.560   4.393  19.707  0.00  0.00    +0.000 A 
ATOM      9  C   UNL     1       3.422   3.038  20.062  0.00  0.00    +0.000 A 
ATOM     10  C   UNL     1       2.244   2.574  20.631  0.00  0.00    +0.000 A 
ATOM     11  N   UNL     1       1.176   3.354  20.884  0.00  0.00    +0.000 NA
ATOM     12  C   UNL     1       1.299   4.653  20.552  0.00  0.00    +0.000 A 
ATOM     13  C   UNL     1       2.442   5.199  19.980  0.00  0.00    +0.000 A 
ENDBRANCH   6   8
TORSDOF 1
ENDMDL
MODEL 8
REMARK VINA RESULT:      -5.5      1.740      4.607
REMARK  Name = 
REMARK  3 active torsions:
REMARK  status: ('A' for Active; 'I' for Inactive)
REMARK    1  A    between atoms: C_1  and  C_2
REMARK    2  A    between atoms: C_2  and  C_3
REMARK    3  A    between atoms: C_6  and  C_7
REMARK                            x       y       z     vdW  Elec       q    Type
REMARK                         _______ _______ _______ _____ _____    ______ ____
ROOT
ATOM      1  C   UNL     1       1.094   4.313  20.475  0.00  0.00    +0.000 C 
ATOM      2  C   UNL     1       1.954   3.505  19.507  0.00  0.00    +0.000 C 
ATOM      3  C   UNL     1       3.277   3.091  20.155  0.00  0.00    +0.000 C 
ATOM      4  C   UNL     1       1.202   2.334  18.819  0.00  0.00    +0.000 C 
ATOM      5  N   UNL     1       1.814   2.732  17.539  0.00  0.00    +0.000 NA
ATOM      6  C   UNL     1       2.020   4.107  18.059  0.00  0.00    +0.000 C 
ATOM      7  H   UNL     1       1.197   2.678  16.731  0.00  0.00    +0.000 HD
ENDROOT
BRANCH   6   8
ATOM      8  C   UNL     1       3.363   4.762  17.529  0.00  0.00    +0.000 A 
ATOM      9  C   UNL     1       4.349   4.062  16.808  0.00  0.00    +0.000 A 
ATOM     10  C   UNL     1       5.506   4.705  16.390  0.00  0.00    +0.000 A 
ATOM     11  N   UNL     1       5.769   6.004  16.628  0.00  0.00    +0.000 NA
ATOM     12  C   UNL     1       4.830   6.683  17.313  0.00  0.00    +0.000 A 
ATOM     13  C   UNL     1       3.645   6.117  17.767  0.00  0.00    +0.000 A 
ENDBRANCH   6   8
TORSDOF 1
ENDMDL
MODEL 9
REMARK VINA RESULT:      -5.5      1.784      4.373
REMARK  Name = 
REMARK  3 active torsions:
REMARK  status: ('A' for Active; 'I' for Inactive)
REMARK    1  A    between atoms: C_1  and  C_2
REMARK    2  A    between atoms: C_2  and  C_3
REMARK    3  A    between atoms: C_6  and  C_7
REMARK                            x       y       z     vdW  Elec       q    Type
REMARK                         _______ _______ _______ _____ _____    ______ ____
ROOT
ATOM      1  C   UNL     1       1.744   3.418  18.688  0.00  0.00    +0.000 C 
ATOM      2  C   UNL     1       3.104   3.736  19.305  0.00  0.00    +0.000 C 
ATOM      3  C   UNL     1       3.098   5.109  19.980  0.00  0.00    +0.000 C 
ATOM      4  C   UNL     1       3.674   2.603  20.199  0.00  0.00    +0.000 C 
ATOM      5  N   UNL     1       4.985   2.792  19.553  0.00  0.00    +0.000 NA
ATOM      6  C   UNL     1       4.321   3.398  18.372  0.00  0.00    +0.000 C 
ATOM      7  H   UNL     1       5.493   1.933  19.352  0.00  0.00    +0.000 HD
ENDROOT
BRANCH   6   8
ATOM      8  C   UNL     1       5.178   4.566  17.727  0.00  0.00    +0.000 A 
ATOM      9  C   UNL     1       6.380   5.053  18.272  0.00  0.00    +0.000 A 
ATOM     10  C   UNL     1       7.066   6.090  17.654  0.00  0.00    +0.000 A 
ATOM     11  N   UNL     1       6.654   6.689  16.520  0.00  0.00    +0.000 NA
ATOM     12  C   UNL     1       5.507   6.227  15.988  0.00  0.00    +0.000 A 
ATOM     13  C   UNL     1       4.760   5.195  16.542  0.00  0.00    +0.000 A 
ENDBRANCH   6   8
TORSDOF 1
ENDMDL
