MODEL 1
REMARK VINA RESULT:      -7.8      0.000      0.000
REMARK  Name = 
REMARK  3 active torsions:
REMARK  status: ('A' for Active; 'I' for Inactive)
REMARK    1  A    between atoms: C_1  and  C_2
REMARK    2  A    between atoms: C_5  and  C_6
REMARK    3  A    between atoms: N_16  and  N_17
REMARK                            x       y       z     vdW  Elec       q    Type
REMARK                         _______ _______ _______ _____ _____    ______ ____
ROOT
ATOM      1  C   UNL     1       4.845   4.375  16.642  0.00  0.00    +0.000 A 
ATOM      2  N   UNL     1       4.812   3.750  15.502  0.00  0.00    +0.000 NA
ATOM      3  C   UNL     1       5.744   4.092  14.509  0.00  0.00    +0.000 A 
ATOM      4  C   UNL     1       5.654   3.471  13.261  0.00  0.00    +0.000 A 
ATOM      5  C   UNL     1       6.546   3.798  12.234  0.00  0.00    +0.000 A 
ATOM      6  C   UNL     1       7.546   4.744  12.450  0.00  0.00    +0.000 A 
ATOM      7  C   UNL     1       7.655   5.363  13.693  0.00  0.00    +0.000 A 
ATOM      8  C   UNL     1       6.748   5.032  14.710  0.00  0.00    +0.000 A 
ATOM      9  C   UNL     1       6.835   5.680  16.022  0.00  0.00    +0.000 A 
ATOM     10  O   UNL     1       7.761   6.441  16.292  0.00  0.00    +0.000 OA
ATOM     11  N   UNL     1       5.820   5.344  16.930  0.00  0.00    +0.000 N 
ENDROOT
BRANCH   1  16
ATOM     12  C   UNL     1       1.061   3.036  20.844  0.00  0.00    +0.000 C 
ATOM     13  C   UNL     1       2.027   3.339  19.739  0.00  0.00    +0.000 A 
ATOM     14  C   UNL     1       3.226   2.632  19.596  0.00  0.00    +0.000 A 
ATOM     15  C   UNL     1       4.126   2.962  18.575  0.00  0.00    +0.000 A 
ATOM     16  C   UNL     1       3.831   4.000  17.679  0.00  0.00    +0.000 A 
ATOM     17  C   UNL     1       2.596   4.648  17.785  0.00  0.00    +0.000 A 
ATOM     18  C   UNL     1       1.719   4.349  18.825  0.00  0.00    +0.000 A 
ENDBRANCH   1  16
BRANCH  11  19
ATOM     19  N   UNL     1       5.912   5.991  18.205  0.00  0.00    +0.000 N 
ATOM     20  H   UNL     1       6.641   5.492  18.729  0.00  0.00    +0.000 HD
ATOM     21  H   UNL     1       5.042   5.819  18.709  0.00  0.00    +0.000 HD
ENDBRANCH  11  19
TORSDOF 2
ENDMDL
MODEL 2
REMARK VINA RESULT:      -7.6      0.147      1.113
REMARK  Name = 
REMARK  3 active torsions:
REMARK  status: ('A' for Active; 'I' for Inactive)
REMARK    1  A    between atoms: C_1  and  C_2
REMARK    2  A    between atoms: C_5  and  C_6
REMARK    3  A    between atoms: N_16  and  N_17
REMARK                            x       y       z     vdW  Elec       q    Type
REMARK                         _______ _______ _______ _____ _____    ______ ____
ROOT
ATOM      1  C   UNL     1       4.932   4.442  16.710  0.00  0.00    +0.000 A 
ATOM      2  N   UNL     1       4.852   3.783  15.591  0.00  0.00    +0.000 NA
ATOM      3  C   UNL     1       5.746   4.089  14.553  0.00  0.00    +0.000 A 
ATOM      4  C   UNL     1       5.605   3.432  13.329  0.00  0.00    +0.000 A 
ATOM      5  C   UNL     1       6.458   3.722  12.259  0.00  0.00    +0.000 A 
ATOM      6  C   UNL     1       7.471   4.669  12.408  0.00  0.00    +0.000 A 
ATOM      7  C   UNL     1       7.630   5.324  13.627  0.00  0.00    +0.000 A 
ATOM      8  C   UNL     1       6.762   5.029  14.687  0.00  0.00    +0.000 A 
ATOM      9  C   UNL     1       6.902   5.716  15.975  0.00  0.00    +0.000 A 
ATOM     10  O   UNL     1       7.842   6.479  16.185  0.00  0.00    +0.000 OA
ATOM     11  N   UNL     1       5.922   5.413  16.931  0.00  0.00    +0.000 N 
ENDROOT
BRANCH   1  16
ATOM     12  C   UNL     1       1.013   2.991  20.748  0.00  0.00    +0.000 C 
ATOM     13  C   UNL     1       2.028   3.408  19.728  0.00  0.00    +0.000 A 
ATOM     14  C   UNL     1       1.746   4.386  18.767  0.00  0.00    +0.000 A 
ATOM     15  C   UNL     1       2.702   4.730  17.803  0.00  0.00    +0.000 A 
ATOM     16  C   UNL     1       3.957   4.104  17.796  0.00  0.00    +0.000 A 
ATOM     17  C   UNL     1       4.255   3.184  18.807  0.00  0.00    +0.000 A 
ATOM     18  C   UNL     1       3.290   2.811  19.740  0.00  0.00    +0.000 A 
ENDBRANCH   1  16
BRANCH  11  19
ATOM     19  N   UNL     1       6.066   6.097  18.181  0.00  0.00    +0.000 N 
ATOM     20  H   UNL     1       5.877   5.402  18.914  0.00  0.00    +0.000 HD
ATOM     21  H   UNL     1       5.316   6.784  18.253  0.00  0.00    +0.000 HD
ENDBRANCH  11  19
TORSDOF 2
ENDMDL
MODEL 3
REMARK VINA RESULT:      -7.3      2.010      6.505
REMARK  Name = 
REMARK  3 active torsions:
REMARK  status: ('A' for Active; 'I' for Inactive)
REMARK    1  A    between atoms: C_1  and  C_2
REMARK    2  A    between atoms: C_5  and  C_6
REMARK    3  A    between atoms: N_16  and  N_17
REMARK                            x       y       z     vdW  Elec       q    Type
REMARK                         _______ _______ _______ _____ _____    ______ ____
ROOT
ATOM      1  C   UNL     1       4.574   4.753  17.596  0.00  0.00    +0.000 A 
ATOM      2  N   UNL     1       4.400   3.635  18.238  0.00  0.00    +0.000 NA
ATOM      3  C   UNL     1       3.609   3.631  19.398  0.00  0.00    +0.000 A 
ATOM      4  C   UNL     1       3.490   2.444  20.125  0.00  0.00    +0.000 A 
ATOM      5  C   UNL     1       2.731   2.399  21.300  0.00  0.00    +0.000 A 
ATOM      6  C   UNL     1       2.074   3.541  21.753  0.00  0.00    +0.000 A 
ATOM      7  C   UNL     1       2.175   4.729  21.032  0.00  0.00    +0.000 A 
ATOM      8  C   UNL     1       2.946   4.761  19.861  0.00  0.00    +0.000 A 
ATOM      9  C   UNL     1       3.077   6.003  19.093  0.00  0.00    +0.000 A 
ATOM     10  O   UNL     1       2.434   7.005  19.396  0.00  0.00    +0.000 OA
ATOM     11  N   UNL     1       3.948   5.945  17.996  0.00  0.00    +0.000 N 
ENDROOT
BRANCH   1  16
ATOM     12  C   UNL     1       7.775   4.877  12.747  0.00  0.00    +0.000 C 
ATOM     13  C   UNL     1       6.952   4.797  13.996  0.00  0.00    +0.000 A 
ATOM     14  C   UNL     1       5.649   4.288  13.988  0.00  0.00    +0.000 A 
ATOM     15  C   UNL     1       4.891   4.258  15.165  0.00  0.00    +0.000 A 
ATOM     16  C   UNL     1       5.434   4.732  16.368  0.00  0.00    +0.000 A 
ATOM     17  C   UNL     1       6.762   5.168  16.381  0.00  0.00    +0.000 A 
ATOM     18  C   UNL     1       7.503   5.237  15.202  0.00  0.00    +0.000 A 
ENDBRANCH   1  16
BRANCH  11  19
ATOM     19  N   UNL     1       4.074   7.167  17.259  0.00  0.00    +0.000 N 
ATOM     20  H   UNL     1       3.816   7.922  17.907  0.00  0.00    +0.000 HD
ATOM     21  H   UNL     1       3.359   7.172  16.532  0.00  0.00    +0.000 HD
ENDBRANCH  11  19
TORSDOF 2
ENDMDL
MODEL 4
REMARK VINA RESULT:      -7.0      3.582      4.697
REMARK  Name = 
REMARK  3 active torsions:
REMARK  status: ('A' for Active; 'I' for Inactive)
REMARK    1  A    between atoms: C_1  and  C_2
REMARK    2  A    between atoms: C_5  and  C_6
REMARK    3  A    between atoms: N_16  and  N_17
REMARK                            x       y       z     vdW  Elec       q    Type
REMARK                         _______ _______ _______ _____ _____    ______ ____
ROOT
ATOM      1  C   UNL     1       3.112   6.455  18.039  0.00  0.00    +0.000 A 
ATOM      2  N   UNL     1       4.166   6.805  17.360  0.00  0.00    +0.000 NA
ATOM      3  C   UNL     1       4.921   5.813  16.715  0.00  0.00    +0.000 A 
ATOM      4  C   UNL     1       6.093   6.186  16.053  0.00  0.00    +0.000 A 
ATOM      5  C   UNL     1       6.890   5.229  15.416  0.00  0.00    +0.000 A 
ATOM      6  C   UNL     1       6.514   3.886  15.426  0.00  0.00    +0.000 A 
ATOM      7  C   UNL     1       5.341   3.502  16.072  0.00  0.00    +0.000 A 
ATOM      8  C   UNL     1       4.558   4.471  16.714  0.00  0.00    +0.000 A 
ATOM      9  C   UNL     1       3.327   4.088  17.412  0.00  0.00    +0.000 A 
ATOM     10  O   UNL     1       2.902   2.936  17.359  0.00  0.00    +0.000 OA
ATOM     11  N   UNL     1       2.675   5.122  18.098  0.00  0.00    +0.000 N 
ENDROOT
BRANCH   1  16
ATOM     12  C   UNL     1      -0.131  10.536  20.608  0.00  0.00    +0.000 C 
ATOM     13  C   UNL     1       0.740   9.517  19.940  0.00  0.00    +0.000 A 
ATOM     14  C   UNL     1       1.061   9.599  18.580  0.00  0.00    +0.000 A 
ATOM     15  C   UNL     1       1.848   8.612  17.976  0.00  0.00    +0.000 A 
ATOM     16  C   UNL     1       2.332   7.533  18.729  0.00  0.00    +0.000 A 
ATOM     17  C   UNL     1       2.069   7.500  20.102  0.00  0.00    +0.000 A 
ATOM     18  C   UNL     1       1.251   8.459  20.696  0.00  0.00    +0.000 A 
ENDBRANCH   1  16
BRANCH  11  19
ATOM     19  N   UNL     1       1.479   4.732  18.783  0.00  0.00    +0.000 N 
ATOM     20  H   UNL     1       0.753   4.635  18.062  0.00  0.00    +0.000 HD
ATOM     21  H   UNL     1       1.183   5.512  19.369  0.00  0.00    +0.000 HD
ENDBRANCH  11  19
TORSDOF 2
ENDMDL
MODEL 5
REMARK VINA RESULT:      -6.9      2.070      6.489
REMARK  Name = 
REMARK  3 active torsions:
REMARK  status: ('A' for Active; 'I' for Inactive)
REMARK    1  A    between atoms: C_1  and  C_2
REMARK    2  A    between atoms: C_5  and  C_6
REMARK    3  A    between atoms: N_16  and  N_17
REMARK                            x       y       z     vdW  Elec       q    Type
REMARK                         _______ _______ _______ _____ _____    ______ ____
ROOT
ATOM      1  C   UNL     1       4.439   4.847  17.640  0.00  0.00    +0.000 A 
ATOM      2  N   UNL     1       4.306   3.711  18.260  0.00  0.00    +0.000 NA
ATOM      3  C   UNL     1       3.544   3.661  19.437  0.00  0.00    +0.000 A 
ATOM      4  C   UNL     1       3.469   2.456  20.138  0.00  0.00    +0.000 A 
ATOM      5  C   UNL     1       2.741   2.365  21.330  0.00  0.00    +0.000 A 
ATOM      6  C   UNL     1       2.070   3.482  21.827  0.00  0.00    +0.000 A 
ATOM      7  C   UNL     1       2.127   4.688  21.132  0.00  0.00    +0.000 A 
ATOM      8  C   UNL     1       2.868   4.765  19.944  0.00  0.00    +0.000 A 
ATOM      9  C   UNL     1       2.953   6.028  19.203  0.00  0.00    +0.000 A 
ATOM     10  O   UNL     1       2.296   7.007  19.545  0.00  0.00    +0.000 OA
ATOM     11  N   UNL     1       3.798   6.015  18.084  0.00  0.00    +0.000 N 
ENDROOT
BRANCH   1  16
ATOM     12  C   UNL     1       7.787   4.744  12.891  0.00  0.00    +0.000 C 
ATOM     13  C   UNL     1       6.924   4.819  14.113  0.00  0.00    +0.000 A 
ATOM     14  C   UNL     1       7.412   5.309  15.330  0.00  0.00    +0.000 A 
ATOM     15  C   UNL     1       6.592   5.333  16.465  0.00  0.00    +0.000 A 
ATOM     16  C   UNL     1       5.269   4.874  16.392  0.00  0.00    +0.000 A 
ATOM     17  C   UNL     1       4.769   4.458  15.155  0.00  0.00    +0.000 A 
ATOM     18  C   UNL     1       5.596   4.394  14.035  0.00  0.00    +0.000 A 
ENDBRANCH   1  16
BRANCH  11  19
ATOM     19  N   UNL     1       3.878   7.256  17.374  0.00  0.00    +0.000 N 
ATOM     20  H   UNL     1       4.715   7.737  17.726  0.00  0.00    +0.000 HD
ATOM     21  H   UNL     1       3.088   7.834  17.659  0.00  0.00    +0.000 HD
ENDBRANCH  11  19
TORSDOF 2
ENDMDL
MODEL 6
REMARK VINA RESULT:      -6.9      3.586      4.616
REMARK  Name = 
REMARK  3 active torsions:
REMARK  status: ('A' for Active; 'I' for Inactive)
REMARK    1  A    between atoms: C_1  and  C_2
REMARK    2  A    between atoms: C_5  and  C_6
REMARK    3  A    between atoms: N_16  and  N_17
REMARK                            x       y       z     vdW  Elec       q    Type
REMARK                         _______ _______ _______ _____ _____    ______ ____
ROOT
ATOM      1  C   UNL     1       3.091   6.444  18.066  0.00  0.00    +0.000 A 
ATOM      2  N   UNL     1       4.170   6.818  17.442  0.00  0.00    +0.000 NA
ATOM      3  C   UNL     1       4.955   5.850  16.796  0.00  0.00    +0.000 A 
ATOM      4  C   UNL     1       6.151   6.247  16.194  0.00  0.00    +0.000 A 
ATOM      5  C   UNL     1       6.977   5.313  15.560  0.00  0.00    +0.000 A 
ATOM      6  C   UNL     1       6.607   3.969  15.513  0.00  0.00    +0.000 A 
ATOM      7  C   UNL     1       5.411   3.561  16.099  0.00  0.00    +0.000 A 
ATOM      8  C   UNL     1       4.599   4.507  16.739  0.00  0.00    +0.000 A 
ATOM      9  C   UNL     1       3.342   4.098  17.375  0.00  0.00    +0.000 A 
ATOM     10  O   UNL     1       2.925   2.948  17.269  0.00  0.00    +0.000 OA
ATOM     11  N   UNL     1       2.658   5.108  18.066  0.00  0.00    +0.000 N 
ENDROOT
BRANCH   1  16
ATOM     12  C   UNL     1       0.163  10.617  20.855  0.00  0.00    +0.000 C 
ATOM     13  C   UNL     1       0.880   9.512  20.143  0.00  0.00    +0.000 A 
ATOM     14  C   UNL     1       1.342   8.378  20.821  0.00  0.00    +0.000 A 
ATOM     15  C   UNL     1       2.042   7.377  20.135  0.00  0.00    +0.000 A 
ATOM     16  C   UNL     1       2.279   7.497  18.758  0.00  0.00    +0.000 A 
ATOM     17  C   UNL     1       1.748   8.596  18.077  0.00  0.00    +0.000 A 
ATOM     18  C   UNL     1       1.089   9.613  18.766  0.00  0.00    +0.000 A 
ENDBRANCH   1  16
BRANCH  11  19
ATOM     19  N   UNL     1       1.437   4.693  18.689  0.00  0.00    +0.000 N 
ATOM     20  H   UNL     1       0.677   5.013  18.076  0.00  0.00    +0.000 HD
ATOM     21  H   UNL     1       1.331   5.219  19.557  0.00  0.00    +0.000 HD
ENDBRANCH  11  19
TORSDOF 2
ENDMDL
MODEL 7
REMARK VINA RESULT:      -6.8      1.059      1.645
REMARK  Name = 
REMARK  3 active torsions:
REMARK  status: ('A' for Active; 'I' for Inactive)
REMARK    1  A    between atoms: C_1  and  C_2
REMARK    2  A    between atoms: C_5  and  C_6
REMARK    3  A    between atoms: N_16  and  N_17
REMARK                            x       y       z     vdW  Elec       q    Type
REMARK                         _______ _______ _______ _____ _____    ______ ____
ROOT
ATOM      1  C   UNL     1       4.938   4.155  17.849  0.00  0.00    +0.000 A 
ATOM      2  N   UNL     1       4.695   3.683  16.661  0.00  0.00    +0.000 NA
ATOM      3  C   UNL     1       5.539   4.041  15.598  0.00  0.00    +0.000 A 
ATOM      4  C   UNL     1       5.228   3.594  14.312  0.00  0.00    +0.000 A 
ATOM      5  C   UNL     1       6.028   3.945  13.220  0.00  0.00    +0.000 A 
ATOM      6  C   UNL     1       7.158   4.741  13.406  0.00  0.00    +0.000 A 
ATOM      7  C   UNL     1       7.487   5.184  14.685  0.00  0.00    +0.000 A 
ATOM      8  C   UNL     1       6.670   4.831  15.768  0.00  0.00    +0.000 A 
ATOM      9  C   UNL     1       6.991   5.298  17.122  0.00  0.00    +0.000 A 
ATOM     10  O   UNL     1       8.030   5.912  17.350  0.00  0.00    +0.000 OA
ATOM     11  N   UNL     1       6.054   4.966  18.111  0.00  0.00    +0.000 N 
ENDROOT
BRANCH   1  16
ATOM     12  C   UNL     1       1.191   2.545  21.988  0.00  0.00    +0.000 C 
ATOM     13  C   UNL     1       2.166   3.000  20.946  0.00  0.00    +0.000 A 
ATOM     14  C   UNL     1       1.897   4.093  20.114  0.00  0.00    +0.000 A 
ATOM     15  C   UNL     1       2.812   4.473  19.124  0.00  0.00    +0.000 A 
ATOM     16  C   UNL     1       4.013   3.768  18.962  0.00  0.00    +0.000 A 
ATOM     17  C   UNL     1       4.305   2.727  19.847  0.00  0.00    +0.000 A 
ATOM     18  C   UNL     1       3.378   2.320  20.804  0.00  0.00    +0.000 A 
ENDBRANCH   1  16
BRANCH  11  19
ATOM     19  N   UNL     1       6.375   5.435  19.426  0.00  0.00    +0.000 N 
ATOM     20  H   UNL     1       7.285   5.022  19.666  0.00  0.00    +0.000 HD
ATOM     21  H   UNL     1       5.706   5.026  20.079  0.00  0.00    +0.000 HD
ENDBRANCH  11  19
TORSDOF 2
ENDMDL
MODEL 8
REMARK VINA RESULT:      -6.7      3.367      6.652
REMARK  Name = 
REMARK  3 active torsions:
REMARK  status: ('A' for Active; 'I' for Inactive)
REMARK    1  A    between atoms: C_1  and  C_2
REMARK    2  A    between atoms: C_5  and  C_6
REMARK    3  A    between atoms: N_16  and  N_17
REMARK                            x       y       z     vdW  Elec       q    Type
REMARK                         _______ _______ _______ _____ _____    ______ ____
ROOT
ATOM      1  C   UNL     1       4.855   4.920  18.488  0.00  0.00    +0.000 A 
ATOM      2  N   UNL     1       4.051   5.100  19.494  0.00  0.00    +0.000 NA
ATOM      3  C   UNL     1       3.048   4.151  19.745  0.00  0.00    +0.000 A 
ATOM      4  C   UNL     1       2.140   4.390  20.779  0.00  0.00    +0.000 A 
ATOM      5  C   UNL     1       1.110   3.482  21.050  0.00  0.00    +0.000 A 
ATOM      6  C   UNL     1       0.986   2.318  20.293  0.00  0.00    +0.000 A 
ATOM      7  C   UNL     1       1.891   2.061  19.266  0.00  0.00    +0.000 A 
ATOM      8  C   UNL     1       2.912   2.984  19.001  0.00  0.00    +0.000 A 
ATOM      9  C   UNL     1       3.869   2.741  17.916  0.00  0.00    +0.000 A 
ATOM     10  O   UNL     1       3.862   1.683  17.292  0.00  0.00    +0.000 OA
ATOM     11  N   UNL     1       4.787   3.774  17.678  0.00  0.00    +0.000 N 
ENDROOT
BRANCH   1  16
ATOM     12  C   UNL     1       8.801   9.104  17.655  0.00  0.00    +0.000 C 
ATOM     13  C   UNL     1       7.791   8.011  17.824  0.00  0.00    +0.000 A 
ATOM     14  C   UNL     1       6.563   8.032  17.153  0.00  0.00    +0.000 A 
ATOM     15  C   UNL     1       5.624   7.014  17.359  0.00  0.00    +0.000 A 
ATOM     16  C   UNL     1       5.908   5.956  18.235  0.00  0.00    +0.000 A 
ATOM     17  C   UNL     1       7.167   5.904  18.841  0.00  0.00    +0.000 A 
ATOM     18  C   UNL     1       8.085   6.938  18.670  0.00  0.00    +0.000 A 
ENDBRANCH   1  16
BRANCH  11  19
ATOM     19  N   UNL     1       5.710   3.527  16.611  0.00  0.00    +0.000 N 
ATOM     20  H   UNL     1       5.145   3.432  15.758  0.00  0.00    +0.000 HD
ATOM     21  H   UNL     1       6.133   2.613  16.765  0.00  0.00    +0.000 HD
ENDBRANCH  11  19
TORSDOF 2
ENDMDL
MODEL 9
REMARK VINA RESULT:      -6.7      4.078      5.313
REMARK  Name = 
REMARK  3 active torsions:
REMARK  status: ('A' for Active; 'I' for Inactive)
REMARK    1  A    between atoms: C_1  and  C_2
REMARK    2  A    between atoms: C_5  and  C_6
REMARK    3  A    between atoms: N_16  and  N_17
REMARK                            x       y       z     vdW  Elec       q    Type
REMARK                         _______ _______ _______ _____ _____    ______ ____
ROOT
ATOM      1  C   UNL     1       2.610   6.807  18.947  0.00  0.00    +0.000 A 
ATOM      2  N   UNL     1       3.390   7.145  17.962  0.00  0.00    +0.000 NA
ATOM      3  C   UNL     1       4.087   6.142  17.270  0.00  0.00    +0.000 A 
ATOM      4  C   UNL     1       4.981   6.517  16.265  0.00  0.00    +0.000 A 
ATOM      5  C   UNL     1       5.715   5.554  15.564  0.00  0.00    +0.000 A 
ATOM      6  C   UNL     1       5.551   4.200  15.857  0.00  0.00    +0.000 A 
ATOM      7  C   UNL     1       4.654   3.811  16.849  0.00  0.00    +0.000 A 
ATOM      8  C   UNL     1       3.933   4.789  17.548  0.00  0.00    +0.000 A 
ATOM      9  C   UNL     1       2.993   4.403  18.606  0.00  0.00    +0.000 A 
ATOM     10  O   UNL     1       2.740   3.221  18.827  0.00  0.00    +0.000 OA
ATOM     11  N   UNL     1       2.400   5.465  19.303  0.00  0.00    +0.000 N 
ENDROOT
BRANCH   1  16
ATOM     12  C   UNL     1      -0.411  10.955  21.677  0.00  0.00    +0.000 C 
ATOM     13  C   UNL     1       0.404   9.917  20.967  0.00  0.00    +0.000 A 
ATOM     14  C   UNL     1       0.691  10.014  19.601  0.00  0.00    +0.000 A 
ATOM     15  C   UNL     1       1.426   9.009  18.958  0.00  0.00    +0.000 A 
ATOM     16  C   UNL     1       1.889   7.899  19.678  0.00  0.00    +0.000 A 
ATOM     17  C   UNL     1       1.661   7.850  21.057  0.00  0.00    +0.000 A 
ATOM     18  C   UNL     1       0.895   8.827  21.690  0.00  0.00    +0.000 A 
ENDBRANCH   1  16
BRANCH  11  19
ATOM     19  N   UNL     1       1.491   5.074  20.339  0.00  0.00    +0.000 N 
ATOM     20  H   UNL     1       0.855   5.869  20.479  0.00  0.00    +0.000 HD
ATOM     21  H   UNL     1       2.020   4.988  21.206  0.00  0.00    +0.000 HD
ENDBRANCH  11  19
TORSDOF 2
ENDMDL
