MODEL 1
REMARK VINA RESULT:      -7.0      0.000      0.000
REMARK  Name = 
REMARK  10 active torsions:
REMARK  status: ('A' for Active; 'I' for Inactive)
REMARK    1  A    between atoms: C_1  and  O_2
REMARK    2  A    between atoms: O_2  and  C_3
REMARK    3  A    between atoms: C_7  and  C_8
REMARK    4  A    between atoms: C_8  and  N_9
REMARK    5  A    between atoms: N_12  and  S_13
REMARK    6  A    between atoms: S_13  and  C_16
REMARK    7  A    between atoms: C_19  and  N_20
REMARK    8  A    between atoms: C_21  and  C_22
REMARK    9  A    between atoms: C_28  and  O_29
REMARK   10  A    between atoms: O_29  and  C_30
REMARK                            x       y       z     vdW  Elec       q    Type
REMARK                         _______ _______ _______ _____ _____    ______ ____
ROOT
ATOM      1  N   UNL     1       2.065   8.404  19.110  0.00  0.00    +0.000 NA
ATOM      2  C   UNL     1       1.399   9.662  18.699  0.00  0.00    +0.000 C 
ATOM      3  C   UNL     1      -0.071   9.809  19.136  0.00  0.00    +0.000 C 
ATOM      4  N   UNL     1      -0.274   9.543  20.596  0.00  0.00    +0.000 NA
ATOM      5  C   UNL     1       0.254   8.171  20.893  0.00  0.00    +0.000 C 
ATOM      6  C   UNL     1       1.744   8.060  20.510  0.00  0.00    +0.000 C 
ENDROOT
BRANCH   4   7
ATOM      7  S   UNL     1       0.228  10.688  21.767  0.00  0.00    +0.000 S 
ATOM      8  O   UNL     1       0.579   9.945  22.960  0.00  0.00    +0.000 OA
ATOM      9  O   UNL     1       1.179  11.608  21.171  0.00  0.00    +0.000 OA
BRANCH   7  10
ATOM     10  C   UNL     1      -1.217  11.636  22.118  0.00  0.00    +0.000 A 
ATOM     11  C   UNL     1      -1.874  11.524  23.339  0.00  0.00    +0.000 A 
ATOM     12  C   UNL     1      -3.050  12.254  23.544  0.00  0.00    +0.000 A 
ATOM     13  C   UNL     1      -3.568  13.067  22.530  0.00  0.00    +0.000 A 
ATOM     14  C   UNL     1      -2.857  13.214  21.337  0.00  0.00    +0.000 A 
ATOM     15  C   UNL     1      -1.662  12.542  21.150  0.00  0.00    +0.000 A 
BRANCH  13  16
ATOM     16  N   UNL     1      -4.782  13.771  22.622  0.00  0.00    +0.000 N 
ATOM     17  C   UNL     1      -6.049  13.286  22.355  0.00  0.00    +0.000 C 
ATOM     18  C   UNL     1      -7.112  14.332  22.582  0.00  0.00    +0.000 C 
ATOM     19  O   UNL     1      -6.346  12.171  21.961  0.00  0.00    +0.000 OA
ATOM     20  H   UNL     1      -4.711  14.733  22.913  0.00  0.00    +0.000 HD
ENDBRANCH  13  16
ENDBRANCH   7  10
ENDBRANCH   4   7
BRANCH   1  21
ATOM     21  C   UNL     1       1.778   7.278  18.214  0.00  0.00    +0.000 C 
BRANCH  21  26
ATOM     22  C   UNL     1       4.072   4.204  18.183  0.00  0.00    +0.000 A 
ATOM     23  C   UNL     1       5.247   4.811  17.690  0.00  0.00    +0.000 A 
ATOM     24  C   UNL     1       5.304   6.170  17.408  0.00  0.00    +0.000 A 
ATOM     25  C   UNL     1       4.178   6.947  17.605  0.00  0.00    +0.000 A 
ATOM     26  C   UNL     1       2.975   6.362  18.039  0.00  0.00    +0.000 A 
ATOM     27  C   UNL     1       2.900   4.973  18.302  0.00  0.00    +0.000 A 
BRANCH  22  29
ATOM     28  C   UNL     1       4.453   2.630  19.906  0.00  0.00    +0.000 C 
ATOM     29  O   UNL     1       4.064   2.878  18.551  0.00  0.00    +0.000 OA
ENDBRANCH  22  29
BRANCH  27  30
ATOM     30  O   UNL     1       1.645   4.576  18.673  0.00  0.00    +0.000 OA
ATOM     31  C   UNL     1       1.291   4.325  20.020  0.00  0.00    +0.000 C 
ENDBRANCH  27  30
ENDBRANCH  21  26
ENDBRANCH   1  21
TORSDOF 7
ENDMDL
MODEL 2
REMARK VINA RESULT:      -7.0      0.779      1.159
REMARK  Name = 
REMARK  10 active torsions:
REMARK  status: ('A' for Active; 'I' for Inactive)
REMARK    1  A    between atoms: C_1  and  O_2
REMARK    2  A    between atoms: O_2  and  C_3
REMARK    3  A    between atoms: C_7  and  C_8
REMARK    4  A    between atoms: C_8  and  N_9
REMARK    5  A    between atoms: N_12  and  S_13
REMARK    6  A    between atoms: S_13  and  C_16
REMARK    7  A    between atoms: C_19  and  N_20
REMARK    8  A    between atoms: C_21  and  C_22
REMARK    9  A    between atoms: C_28  and  O_29
REMARK   10  A    between atoms: O_29  and  C_30
REMARK                            x       y       z     vdW  Elec       q    Type
REMARK                         _______ _______ _______ _____ _____    ______ ____
ROOT
ATOM      1  N   UNL     1       2.022   8.565  19.085  0.00  0.00    +0.000 NA
ATOM      2  C   UNL     1       1.495   9.786  18.432  0.00  0.00    +0.000 C 
ATOM      3  C   UNL     1      -0.009  10.052  18.635  0.00  0.00    +0.000 C 
ATOM      4  N   UNL     1      -0.422   9.987  20.074  0.00  0.00    +0.000 NA
ATOM      5  C   UNL     1      -0.024   8.644  20.609  0.00  0.00    +0.000 C 
ATOM      6  C   UNL     1       1.495   8.420  20.456  0.00  0.00    +0.000 C 
ENDROOT
BRANCH   4   7
ATOM      7  S   UNL     1      -0.014  11.252  21.154  0.00  0.00    +0.000 S 
ATOM      8  O   UNL     1       0.670  10.644  22.277  0.00  0.00    +0.000 OA
ATOM      9  O   UNL     1       0.608  12.338  20.418  0.00  0.00    +0.000 OA
BRANCH   7  10
ATOM     10  C   UNL     1      -1.562  11.871  21.728  0.00  0.00    +0.000 A 
ATOM     11  C   UNL     1      -2.458  12.489  20.862  0.00  0.00    +0.000 A 
ATOM     12  C   UNL     1      -3.646  13.016  21.379  0.00  0.00    +0.000 A 
ATOM     13  C   UNL     1      -3.919  12.942  22.749  0.00  0.00    +0.000 A 
ATOM     14  C   UNL     1      -3.036  12.261  23.590  0.00  0.00    +0.000 A 
ATOM     15  C   UNL     1      -1.888  11.685  23.075  0.00  0.00    +0.000 A 
BRANCH  13  16
ATOM     16  N   UNL     1      -5.048  13.514  23.364  0.00  0.00    +0.000 N 
ATOM     17  C   UNL     1      -6.326  12.989  23.412  0.00  0.00    +0.000 C 
ATOM     18  C   UNL     1      -7.273  13.880  24.176  0.00  0.00    +0.000 C 
ATOM     19  O   UNL     1      -6.718  11.952  22.904  0.00  0.00    +0.000 OA
ATOM     20  H   UNL     1      -4.900  14.402  23.814  0.00  0.00    +0.000 HD
ENDBRANCH  13  16
ENDBRANCH   7  10
ENDBRANCH   4   7
BRANCH   1  21
ATOM     21  C   UNL     1       1.790   7.345  18.302  0.00  0.00    +0.000 C 
BRANCH  21  26
ATOM     22  C   UNL     1       4.323   4.495  18.721  0.00  0.00    +0.000 A 
ATOM     23  C   UNL     1       5.377   5.021  17.943  0.00  0.00    +0.000 A 
ATOM     24  C   UNL     1       5.283   6.265  17.331  0.00  0.00    +0.000 A 
ATOM     25  C   UNL     1       4.124   7.003  17.480  0.00  0.00    +0.000 A 
ATOM     26  C   UNL     1       3.034   6.482  18.199  0.00  0.00    +0.000 A 
ATOM     27  C   UNL     1       3.111   5.203  18.802  0.00  0.00    +0.000 A 
BRANCH  22  29
ATOM     28  C   UNL     1       3.827   2.184  18.793  0.00  0.00    +0.000 C 
ATOM     29  O   UNL     1       4.473   3.308  19.400  0.00  0.00    +0.000 OA
ENDBRANCH  22  29
BRANCH  27  30
ATOM     30  O   UNL     1       1.946   4.845  19.423  0.00  0.00    +0.000 OA
ATOM     31  C   UNL     1       1.828   4.751  20.829  0.00  0.00    +0.000 C 
ENDBRANCH  27  30
ENDBRANCH  21  26
ENDBRANCH   1  21
TORSDOF 7
ENDMDL
MODEL 3
REMARK VINA RESULT:      -6.9      1.051      1.051
REMARK  Name = 
REMARK  10 active torsions:
REMARK  status: ('A' for Active; 'I' for Inactive)
REMARK    1  A    between atoms: C_1  and  O_2
REMARK    2  A    between atoms: O_2  and  C_3
REMARK    3  A    between atoms: C_7  and  C_8
REMARK    4  A    between atoms: C_8  and  N_9
REMARK    5  A    between atoms: N_12  and  S_13
REMARK    6  A    between atoms: S_13  and  C_16
REMARK    7  A    between atoms: C_19  and  N_20
REMARK    8  A    between atoms: C_21  and  C_22
REMARK    9  A    between atoms: C_28  and  O_29
REMARK   10  A    between atoms: O_29  and  C_30
REMARK                            x       y       z     vdW  Elec       q    Type
REMARK                         _______ _______ _______ _____ _____    ______ ____
ROOT
ATOM      1  N   UNL     1       2.232   8.358  18.871  0.00  0.00    +0.000 NA
ATOM      2  C   UNL     1       1.687   9.603  18.280  0.00  0.00    +0.000 C 
ATOM      3  C   UNL     1       0.203   9.888  18.583  0.00  0.00    +0.000 C 
ATOM      4  N   UNL     1      -0.121   9.795  20.042  0.00  0.00    +0.000 NA
ATOM      5  C   UNL     1       0.287   8.435  20.522  0.00  0.00    +0.000 C 
ATOM      6  C   UNL     1       1.789   8.190  20.269  0.00  0.00    +0.000 C 
ENDROOT
BRANCH   4   7
ATOM      7  S   UNL     1       0.376  11.029  21.123  0.00  0.00    +0.000 S 
ATOM      8  O   UNL     1       1.032  10.374  22.237  0.00  0.00    +0.000 OA
ATOM      9  O   UNL     1       1.057  12.077  20.385  0.00  0.00    +0.000 OA
BRANCH   7  10
ATOM     10  C   UNL     1      -1.125  11.741  21.715  0.00  0.00    +0.000 A 
ATOM     11  C   UNL     1      -1.537  11.565  23.031  0.00  0.00    +0.000 A 
ATOM     12  C   UNL     1      -2.765  12.101  23.433  0.00  0.00    +0.000 A 
ATOM     13  C   UNL     1      -3.576  12.783  22.520  0.00  0.00    +0.000 A 
ATOM     14  C   UNL     1      -3.113  13.003  21.220  0.00  0.00    +0.000 A 
ATOM     15  C   UNL     1      -1.872  12.528  20.833  0.00  0.00    +0.000 A 
BRANCH  13  16
ATOM     16  N   UNL     1      -4.857  13.284  22.817  0.00  0.00    +0.000 N 
ATOM     17  C   UNL     1      -5.162  14.375  23.610  0.00  0.00    +0.000 C 
ATOM     18  C   UNL     1      -6.649  14.619  23.683  0.00  0.00    +0.000 C 
ATOM     19  O   UNL     1      -4.382  15.084  24.223  0.00  0.00    +0.000 OA
ATOM     20  H   UNL     1      -5.629  12.786  22.405  0.00  0.00    +0.000 HD
ENDBRANCH  13  16
ENDBRANCH   7  10
ENDBRANCH   4   7
BRANCH   1  21
ATOM     21  C   UNL     1       1.931   7.161  18.078  0.00  0.00    +0.000 C 
BRANCH  21  26
ATOM     22  C   UNL     1       4.067   4.026  18.648  0.00  0.00    +0.000 A 
ATOM     23  C   UNL     1       5.260   4.457  18.030  0.00  0.00    +0.000 A 
ATOM     24  C   UNL     1       5.380   5.726  17.478  0.00  0.00    +0.000 A 
ATOM     25  C   UNL     1       4.299   6.586  17.524  0.00  0.00    +0.000 A 
ATOM     26  C   UNL     1       3.077   6.166  18.080  0.00  0.00    +0.000 A 
ATOM     27  C   UNL     1       2.938   4.865  18.620  0.00  0.00    +0.000 A 
BRANCH  22  29
ATOM     28  C   UNL     1       3.522   1.732  18.457  0.00  0.00    +0.000 C 
ATOM     29  O   UNL     1       4.000   2.804  19.277  0.00  0.00    +0.000 OA
ENDBRANCH  22  29
BRANCH  27  30
ATOM     30  O   UNL     1       1.672   4.619  19.076  0.00  0.00    +0.000 OA
ATOM     31  C   UNL     1       1.368   4.492  20.452  0.00  0.00    +0.000 C 
ENDBRANCH  27  30
ENDBRANCH  21  26
ENDBRANCH   1  21
TORSDOF 7
ENDMDL
MODEL 4
REMARK VINA RESULT:      -6.8      1.343      1.611
REMARK  Name = 
REMARK  10 active torsions:
REMARK  status: ('A' for Active; 'I' for Inactive)
REMARK    1  A    between atoms: C_1  and  O_2
REMARK    2  A    between atoms: O_2  and  C_3
REMARK    3  A    between atoms: C_7  and  C_8
REMARK    4  A    between atoms: C_8  and  N_9
REMARK    5  A    between atoms: N_12  and  S_13
REMARK    6  A    between atoms: S_13  and  C_16
REMARK    7  A    between atoms: C_19  and  N_20
REMARK    8  A    between atoms: C_21  and  C_22
REMARK    9  A    between atoms: C_28  and  O_29
REMARK   10  A    between atoms: O_29  and  C_30
REMARK                            x       y       z     vdW  Elec       q    Type
REMARK                         _______ _______ _______ _____ _____    ______ ____
ROOT
ATOM      1  N   UNL     1       1.917   8.506  19.684  0.00  0.00    +0.000 NA
ATOM      2  C   UNL     1       1.318   9.757  19.163  0.00  0.00    +0.000 C 
ATOM      3  C   UNL     1      -0.184   9.944  19.450  0.00  0.00    +0.000 C 
ATOM      4  N   UNL     1      -0.531   9.739  20.893  0.00  0.00    +0.000 NA
ATOM      5  C   UNL     1      -0.061   8.372  21.291  0.00  0.00    +0.000 C 
ATOM      6  C   UNL     1       1.456   8.223  21.058  0.00  0.00    +0.000 C 
ENDROOT
BRANCH   4   7
ATOM      7  S   UNL     1      -0.122  10.922  22.063  0.00  0.00    +0.000 S 
ATOM      8  O   UNL     1       0.096  10.221  23.312  0.00  0.00    +0.000 OA
ATOM      9  O   UNL     1       0.901  11.801  21.527  0.00  0.00    +0.000 OA
BRANCH   7  10
ATOM     10  C   UNL     1      -1.575  11.907  22.235  0.00  0.00    +0.000 A 
ATOM     11  C   UNL     1      -1.942  12.827  21.259  0.00  0.00    +0.000 A 
ATOM     12  C   UNL     1      -3.070  13.626  21.472  0.00  0.00    +0.000 A 
ATOM     13  C   UNL     1      -3.805  13.516  22.657  0.00  0.00    +0.000 A 
ATOM     14  C   UNL     1      -3.456  12.540  23.594  0.00  0.00    +0.000 A 
ATOM     15  C   UNL     1      -2.377  11.706  23.362  0.00  0.00    +0.000 A 
BRANCH  13  16
ATOM     16  N   UNL     1      -4.903  14.331  22.987  0.00  0.00    +0.000 N 
ATOM     17  C   UNL     1      -4.877  15.513  23.705  0.00  0.00    +0.000 C 
ATOM     18  C   UNL     1      -6.253  16.117  23.845  0.00  0.00    +0.000 C 
ATOM     19  O   UNL     1      -3.906  16.049  24.211  0.00  0.00    +0.000 OA
ATOM     20  H   UNL     1      -5.801  14.011  22.663  0.00  0.00    +0.000 HD
ENDBRANCH  13  16
ENDBRANCH   7  10
ENDBRANCH   4   7
BRANCH   1  21
ATOM     21  C   UNL     1       1.695   7.350  18.808  0.00  0.00    +0.000 C 
BRANCH  21  26
ATOM     22  C   UNL     1       4.526   4.773  19.056  0.00  0.00    +0.000 A 
ATOM     23  C   UNL     1       5.340   5.238  18.002  0.00  0.00    +0.000 A 
ATOM     24  C   UNL     1       5.002   6.361  17.258  0.00  0.00    +0.000 A 
ATOM     25  C   UNL     1       3.832   7.037  17.552  0.00  0.00    +0.000 A 
ATOM     26  C   UNL     1       2.969   6.565  18.557  0.00  0.00    +0.000 A 
ATOM     27  C   UNL     1       3.293   5.404  19.301  0.00  0.00    +0.000 A 
BRANCH  22  29
ATOM     28  C   UNL     1       4.463   2.436  19.413  0.00  0.00    +0.000 C 
ATOM     29  O   UNL     1       4.927   3.720  19.845  0.00  0.00    +0.000 OA
ENDBRANCH  22  29
BRANCH  27  30
ATOM     30  O   UNL     1       2.321   5.073  20.204  0.00  0.00    +0.000 OA
ATOM     31  C   UNL     1       1.352   4.074  19.950  0.00  0.00    +0.000 C 
ENDBRANCH  27  30
ENDBRANCH  21  26
ENDBRANCH   1  21
TORSDOF 7
ENDMDL
MODEL 5
REMARK VINA RESULT:      -6.5      1.154      1.579
REMARK  Name = 
REMARK  10 active torsions:
REMARK  status: ('A' for Active; 'I' for Inactive)
REMARK    1  A    between atoms: C_1  and  O_2
REMARK    2  A    between atoms: O_2  and  C_3
REMARK    3  A    between atoms: C_7  and  C_8
REMARK    4  A    between atoms: C_8  and  N_9
REMARK    5  A    between atoms: N_12  and  S_13
REMARK    6  A    between atoms: S_13  and  C_16
REMARK    7  A    between atoms: C_19  and  N_20
REMARK    8  A    between atoms: C_21  and  C_22
REMARK    9  A    between atoms: C_28  and  O_29
REMARK   10  A    between atoms: O_29  and  C_30
REMARK                            x       y       z     vdW  Elec       q    Type
REMARK                         _______ _______ _______ _____ _____    ______ ____
ROOT
ATOM      1  N   UNL     1       1.892   8.533  19.870  0.00  0.00    +0.000 NA
ATOM      2  C   UNL     1       1.260   9.731  19.269  0.00  0.00    +0.000 C 
ATOM      3  C   UNL     1      -0.255   9.873  19.506  0.00  0.00    +0.000 C 
ATOM      4  N   UNL     1      -0.634   9.729  20.948  0.00  0.00    +0.000 NA
ATOM      5  C   UNL     1      -0.123   8.404  21.431  0.00  0.00    +0.000 C 
ATOM      6  C   UNL     1       1.405   8.303  21.245  0.00  0.00    +0.000 C 
ENDROOT
BRANCH   4   7
ATOM      7  S   UNL     1      -0.302  10.986  22.064  0.00  0.00    +0.000 S 
ATOM      8  O   UNL     1      -0.155  10.366  23.366  0.00  0.00    +0.000 OA
ATOM      9  O   UNL     1       0.745  11.840  21.537  0.00  0.00    +0.000 OA
BRANCH   7  10
ATOM     10  C   UNL     1      -1.769  11.965  22.088  0.00  0.00    +0.000 A 
ATOM     11  C   UNL     1      -2.184  12.671  20.963  0.00  0.00    +0.000 A 
ATOM     12  C   UNL     1      -3.321  13.479  21.054  0.00  0.00    +0.000 A 
ATOM     13  C   UNL     1      -4.019  13.594  22.261  0.00  0.00    +0.000 A 
ATOM     14  C   UNL     1      -3.622  12.826  23.359  0.00  0.00    +0.000 A 
ATOM     15  C   UNL     1      -2.534  11.978  23.259  0.00  0.00    +0.000 A 
BRANCH  13  16
ATOM     16  N   UNL     1      -5.122  14.443  22.461  0.00  0.00    +0.000 N 
ATOM     17  C   UNL     1      -6.451  14.155  22.210  0.00  0.00    +0.000 C 
ATOM     18  C   UNL     1      -7.354  15.311  22.566  0.00  0.00    +0.000 C 
ATOM     19  O   UNL     1      -6.909  13.128  21.740  0.00  0.00    +0.000 OA
ATOM     20  H   UNL     1      -4.912  15.358  22.826  0.00  0.00    +0.000 HD
ENDBRANCH  13  16
ENDBRANCH   7  10
ENDBRANCH   4   7
BRANCH   1  21
ATOM     21  C   UNL     1       1.740   7.326  19.051  0.00  0.00    +0.000 C 
BRANCH  21  26
ATOM     22  C   UNL     1       5.095   5.526  18.576  0.00  0.00    +0.000 A 
ATOM     23  C   UNL     1       5.464   6.075  17.329  0.00  0.00    +0.000 A 
ATOM     24  C   UNL     1       4.673   7.016  16.682  0.00  0.00    +0.000 A 
ATOM     25  C   UNL     1       3.487   7.417  17.268  0.00  0.00    +0.000 A 
ATOM     26  C   UNL     1       3.061   6.846  18.480  0.00  0.00    +0.000 A 
ATOM     27  C   UNL     1       3.848   5.866  19.133  0.00  0.00    +0.000 A 
BRANCH  22  29
ATOM     28  C   UNL     1       7.240   5.204  19.517  0.00  0.00    +0.000 C 
ATOM     29  O   UNL     1       5.938   4.673  19.249  0.00  0.00    +0.000 OA
ENDBRANCH  22  29
BRANCH  27  30
ATOM     30  O   UNL     1       3.259   5.395  20.273  0.00  0.00    +0.000 OA
ATOM     31  C   UNL     1       2.706   4.097  20.366  0.00  0.00    +0.000 C 
ENDBRANCH  27  30
ENDBRANCH  21  26
ENDBRANCH   1  21
TORSDOF 7
ENDMDL
MODEL 6
REMARK VINA RESULT:      -6.5      1.114      2.128
REMARK  Name = 
REMARK  10 active torsions:
REMARK  status: ('A' for Active; 'I' for Inactive)
REMARK    1  A    between atoms: C_1  and  O_2
REMARK    2  A    between atoms: O_2  and  C_3
REMARK    3  A    between atoms: C_7  and  C_8
REMARK    4  A    between atoms: C_8  and  N_9
REMARK    5  A    between atoms: N_12  and  S_13
REMARK    6  A    between atoms: S_13  and  C_16
REMARK    7  A    between atoms: C_19  and  N_20
REMARK    8  A    between atoms: C_21  and  C_22
REMARK    9  A    between atoms: C_28  and  O_29
REMARK   10  A    between atoms: O_29  and  C_30
REMARK                            x       y       z     vdW  Elec       q    Type
REMARK                         _______ _______ _______ _____ _____    ______ ____
ROOT
ATOM      1  N   UNL     1       2.329   7.565  19.502  0.00  0.00    +0.000 NA
ATOM      2  C   UNL     1       2.147   8.804  18.711  0.00  0.00    +0.000 C 
ATOM      3  C   UNL     1       0.723   9.393  18.716  0.00  0.00    +0.000 C 
ATOM      4  N   UNL     1       0.162   9.545  20.096  0.00  0.00    +0.000 NA
ATOM      5  C   UNL     1       0.205   8.204  20.764  0.00  0.00    +0.000 C 
ATOM      6  C   UNL     1       1.647   7.657  20.808  0.00  0.00    +0.000 C 
ENDROOT
BRANCH   4   7
ATOM      7  S   UNL     1       0.721  10.792  21.130  0.00  0.00    +0.000 S 
ATOM      8  O   UNL     1       1.350  10.147  22.265  0.00  0.00    +0.000 OA
ATOM      9  O   UNL     1       1.448  11.778  20.352  0.00  0.00    +0.000 OA
BRANCH   7  10
ATOM     10  C   UNL     1      -0.742  11.595  21.699  0.00  0.00    +0.000 A 
ATOM     11  C   UNL     1      -1.305  11.281  22.931  0.00  0.00    +0.000 A 
ATOM     12  C   UNL     1      -2.499  11.904  23.309  0.00  0.00    +0.000 A 
ATOM     13  C   UNL     1      -3.128  12.814  22.452  0.00  0.00    +0.000 A 
ATOM     14  C   UNL     1      -2.511  13.163  21.248  0.00  0.00    +0.000 A 
ATOM     15  C   UNL     1      -1.299  12.595  20.896  0.00  0.00    +0.000 A 
BRANCH  13  16
ATOM     16  N   UNL     1      -4.367  13.425  22.717  0.00  0.00    +0.000 N 
ATOM     17  C   UNL     1      -5.615  12.985  22.318  0.00  0.00    +0.000 C 
ATOM     18  C   UNL     1      -6.715  13.896  22.805  0.00  0.00    +0.000 C 
ATOM     19  O   UNL     1      -5.871  12.006  21.638  0.00  0.00    +0.000 OA
ATOM     20  H   UNL     1      -4.330  14.276  23.254  0.00  0.00    +0.000 HD
ENDBRANCH  13  16
ENDBRANCH   7  10
ENDBRANCH   4   7
BRANCH   1  21
ATOM     21  C   UNL     1       1.921   6.354  18.781  0.00  0.00    +0.000 C 
BRANCH  21  26
ATOM     22  C   UNL     1       3.652   3.194  20.099  0.00  0.00    +0.000 A 
ATOM     23  C   UNL     1       2.673   2.777  21.026  0.00  0.00    +0.000 A 
ATOM     24  C   UNL     1       1.484   3.475  21.196  0.00  0.00    +0.000 A 
ATOM     25  C   UNL     1       1.257   4.613  20.445  0.00  0.00    +0.000 A 
ATOM     26  C   UNL     1       2.237   5.088  19.556  0.00  0.00    +0.000 A 
ATOM     27  C   UNL     1       3.463   4.398  19.397  0.00  0.00    +0.000 A 
BRANCH  22  29
ATOM     28  C   UNL     1       5.047   1.449  20.874  0.00  0.00    +0.000 C 
ATOM     29  O   UNL     1       4.777   2.435  19.872  0.00  0.00    +0.000 OA
ENDBRANCH  22  29
BRANCH  27  30
ATOM     30  O   UNL     1       4.309   5.027  18.524  0.00  0.00    +0.000 OA
ATOM     31  C   UNL     1       5.577   5.520  18.912  0.00  0.00    +0.000 C 
ENDBRANCH  27  30
ENDBRANCH  21  26
ENDBRANCH   1  21
TORSDOF 7
ENDMDL
MODEL 7
REMARK VINA RESULT:      -6.5      1.308      1.361
REMARK  Name = 
REMARK  10 active torsions:
REMARK  status: ('A' for Active; 'I' for Inactive)
REMARK    1  A    between atoms: C_1  and  O_2
REMARK    2  A    between atoms: O_2  and  C_3
REMARK    3  A    between atoms: C_7  and  C_8
REMARK    4  A    between atoms: C_8  and  N_9
REMARK    5  A    between atoms: N_12  and  S_13
REMARK    6  A    between atoms: S_13  and  C_16
REMARK    7  A    between atoms: C_19  and  N_20
REMARK    8  A    between atoms: C_21  and  C_22
REMARK    9  A    between atoms: C_28  and  O_29
REMARK   10  A    between atoms: O_29  and  C_30
REMARK                            x       y       z     vdW  Elec       q    Type
REMARK                         _______ _______ _______ _____ _____    ______ ____
ROOT
ATOM      1  N   UNL     1       1.787   8.956  19.257  0.00  0.00    +0.000 NA
ATOM      2  C   UNL     1       1.313  10.122  18.475  0.00  0.00    +0.000 C 
ATOM      3  C   UNL     1      -0.198  10.408  18.559  0.00  0.00    +0.000 C 
ATOM      4  N   UNL     1      -0.703  10.461  19.968  0.00  0.00    +0.000 NA
ATOM      5  C   UNL     1      -0.351   9.166  20.635  0.00  0.00    +0.000 C 
ATOM      6  C   UNL     1       1.172   8.925  20.599  0.00  0.00    +0.000 C 
ENDROOT
BRANCH   4   7
ATOM      7  S   UNL     1      -0.354  11.809  20.967  0.00  0.00    +0.000 S 
ATOM      8  O   UNL     1       0.502  11.333  22.035  0.00  0.00    +0.000 OA
ATOM      9  O   UNL     1       0.058  12.931  20.143  0.00  0.00    +0.000 OA
BRANCH   7  10
ATOM     10  C   UNL     1      -1.906  12.262  21.671  0.00  0.00    +0.000 A 
ATOM     11  C   UNL     1      -2.125  12.187  23.043  0.00  0.00    +0.000 A 
ATOM     12  C   UNL     1      -3.393  12.501  23.543  0.00  0.00    +0.000 A 
ATOM     13  C   UNL     1      -4.430  12.863  22.677  0.00  0.00    +0.000 A 
ATOM     14  C   UNL     1      -4.170  12.994  21.311  0.00  0.00    +0.000 A 
ATOM     15  C   UNL     1      -2.902  12.744  20.816  0.00  0.00    +0.000 A 
BRANCH  13  16
ATOM     16  N   UNL     1      -5.752  13.117  23.086  0.00  0.00    +0.000 N 
ATOM     17  C   UNL     1      -6.222  14.246  23.732  0.00  0.00    +0.000 C 
ATOM     18  C   UNL     1      -7.706  14.167  23.995  0.00  0.00    +0.000 C 
ATOM     19  O   UNL     1      -5.575  15.213  24.095  0.00  0.00    +0.000 OA
ATOM     20  H   UNL     1      -6.421  12.392  22.883  0.00  0.00    +0.000 HD
ENDBRANCH  13  16
ENDBRANCH   7  10
ENDBRANCH   4   7
BRANCH   1  21
ATOM     21  C   UNL     1       1.595   7.678  18.563  0.00  0.00    +0.000 C 
BRANCH  21  26
ATOM     22  C   UNL     1       4.506   5.218  19.007  0.00  0.00    +0.000 A 
ATOM     23  C   UNL     1       5.319   5.644  17.935  0.00  0.00    +0.000 A 
ATOM     24  C   UNL     1       4.954   6.707  17.118  0.00  0.00    +0.000 A 
ATOM     25  C   UNL     1       3.759   7.359  17.355  0.00  0.00    +0.000 A 
ATOM     26  C   UNL     1       2.898   6.922  18.377  0.00  0.00    +0.000 A 
ATOM     27  C   UNL     1       3.250   5.822  19.197  0.00  0.00    +0.000 A 
BRANCH  22  29
ATOM     28  C   UNL     1       4.564   2.902  19.479  0.00  0.00    +0.000 C 
ATOM     29  O   UNL     1       4.931   4.231  19.866  0.00  0.00    +0.000 OA
ENDBRANCH  22  29
BRANCH  27  30
ATOM     30  O   UNL     1       2.277   5.514  20.107  0.00  0.00    +0.000 OA
ATOM     31  C   UNL     1       1.435   4.385  19.973  0.00  0.00    +0.000 C 
ENDBRANCH  27  30
ENDBRANCH  21  26
ENDBRANCH   1  21
TORSDOF 7
ENDMDL
MODEL 8
REMARK VINA RESULT:      -6.5      1.206      1.953
REMARK  Name = 
REMARK  10 active torsions:
REMARK  status: ('A' for Active; 'I' for Inactive)
REMARK    1  A    between atoms: C_1  and  O_2
REMARK    2  A    between atoms: O_2  and  C_3
REMARK    3  A    between atoms: C_7  and  C_8
REMARK    4  A    between atoms: C_8  and  N_9
REMARK    5  A    between atoms: N_12  and  S_13
REMARK    6  A    between atoms: S_13  and  C_16
REMARK    7  A    between atoms: C_19  and  N_20
REMARK    8  A    between atoms: C_21  and  C_22
REMARK    9  A    between atoms: C_28  and  O_29
REMARK   10  A    between atoms: O_29  and  C_30
REMARK                            x       y       z     vdW  Elec       q    Type
REMARK                         _______ _______ _______ _____ _____    ______ ____
ROOT
ATOM      1  N   UNL     1       2.236   8.381  19.020  0.00  0.00    +0.000 NA
ATOM      2  C   UNL     1       1.590   9.595  18.469  0.00  0.00    +0.000 C 
ATOM      3  C   UNL     1       0.099   9.771  18.816  0.00  0.00    +0.000 C 
ATOM      4  N   UNL     1      -0.178   9.630  20.281  0.00  0.00    +0.000 NA
ATOM      5  C   UNL     1       0.336   8.292  20.722  0.00  0.00    +0.000 C 
ATOM      6  C   UNL     1       1.844   8.157  20.426  0.00  0.00    +0.000 C 
ENDROOT
BRANCH   4   7
ATOM      7  S   UNL     1       0.262  10.874  21.373  0.00  0.00    +0.000 S 
ATOM      8  O   UNL     1       0.736  10.229  22.580  0.00  0.00    +0.000 OA
ATOM      9  O   UNL     1       1.091  11.850  20.690  0.00  0.00    +0.000 OA
BRANCH   7  10
ATOM     10  C   UNL     1      -1.252  11.696  21.752  0.00  0.00    +0.000 A 
ATOM     11  C   UNL     1      -1.788  11.666  23.036  0.00  0.00    +0.000 A 
ATOM     12  C   UNL     1      -3.021  12.284  23.269  0.00  0.00    +0.000 A 
ATOM     13  C   UNL     1      -3.715  12.904  22.224  0.00  0.00    +0.000 A 
ATOM     14  C   UNL     1      -3.128  12.978  20.958  0.00  0.00    +0.000 A 
ATOM     15  C   UNL     1      -1.880  12.421  20.735  0.00  0.00    +0.000 A 
BRANCH  13  16
ATOM     16  N   UNL     1      -4.992  13.478  22.352  0.00  0.00    +0.000 N 
ATOM     17  C   UNL     1      -6.208  12.869  22.103  0.00  0.00    +0.000 C 
ATOM     18  C   UNL     1      -7.368  13.798  22.368  0.00  0.00    +0.000 C 
ATOM     19  O   UNL     1      -6.397  11.736  21.696  0.00  0.00    +0.000 OA
ATOM     20  H   UNL     1      -5.013  14.438  22.657  0.00  0.00    +0.000 HD
ENDBRANCH  13  16
ENDBRANCH   7  10
ENDBRANCH   4   7
BRANCH   1  21
ATOM     21  C   UNL     1       1.997   7.181  18.211  0.00  0.00    +0.000 C 
BRANCH  21  26
ATOM     22  C   UNL     1       4.929   4.739  18.600  0.00  0.00    +0.000 A 
ATOM     23  C   UNL     1       4.334   3.820  19.490  0.00  0.00    +0.000 A 
ATOM     24  C   UNL     1       3.022   3.967  19.924  0.00  0.00    +0.000 A 
ATOM     25  C   UNL     1       2.284   5.049  19.480  0.00  0.00    +0.000 A 
ATOM     26  C   UNL     1       2.866   6.014  18.640  0.00  0.00    +0.000 A 
ATOM     27  C   UNL     1       4.211   5.886  18.216  0.00  0.00    +0.000 A 
BRANCH  22  29
ATOM     28  C   UNL     1       7.223   5.299  18.722  0.00  0.00    +0.000 C 
ATOM     29  O   UNL     1       6.194   4.521  18.103  0.00  0.00    +0.000 OA
ENDBRANCH  22  29
BRANCH  27  30
ATOM     30  O   UNL     1       4.618   6.935  17.439  0.00  0.00    +0.000 OA
ATOM     31  C   UNL     1       4.976   6.785  16.079  0.00  0.00    +0.000 C 
ENDBRANCH  27  30
ENDBRANCH  21  26
ENDBRANCH   1  21
TORSDOF 7
ENDMDL
MODEL 9
REMARK VINA RESULT:      -6.4      3.786     10.299
REMARK  Name = 
REMARK  10 active torsions:
REMARK  status: ('A' for Active; 'I' for Inactive)
REMARK    1  A    between atoms: C_1  and  O_2
REMARK    2  A    between atoms: O_2  and  C_3
REMARK    3  A    between atoms: C_7  and  C_8
REMARK    4  A    between atoms: C_8  and  N_9
REMARK    5  A    between atoms: N_12  and  S_13
REMARK    6  A    between atoms: S_13  and  C_16
REMARK    7  A    between atoms: C_19  and  N_20
REMARK    8  A    between atoms: C_21  and  C_22
REMARK    9  A    between atoms: C_28  and  O_29
REMARK   10  A    between atoms: O_29  and  C_30
REMARK                            x       y       z     vdW  Elec       q    Type
REMARK                         _______ _______ _______ _____ _____    ______ ____
ROOT
ATOM      1  N   UNL     1       0.516  14.200  19.244  0.00  0.00    +0.000 NA
ATOM      2  C   UNL     1       1.683  13.461  19.781  0.00  0.00    +0.000 C 
ATOM      3  C   UNL     1       1.353  12.183  20.574  0.00  0.00    +0.000 C 
ATOM      4  N   UNL     1       0.425  11.265  19.839  0.00  0.00    +0.000 NA
ATOM      5  C   UNL     1      -0.814  12.037  19.498  0.00  0.00    +0.000 C 
ATOM      6  C   UNL     1      -0.473  13.279  18.650  0.00  0.00    +0.000 C 
ENDROOT
BRANCH   4   7
ATOM      7  S   UNL     1       0.988  10.341  18.510  0.00  0.00    +0.000 S 
ATOM      8  O   UNL     1      -0.159  10.076  17.665  0.00  0.00    +0.000 OA
ATOM      9  O   UNL     1       2.178  10.961  17.957  0.00  0.00    +0.000 OA
BRANCH   7  10
ATOM     10  C   UNL     1       1.513   8.812  19.215  0.00  0.00    +0.000 A 
ATOM     11  C   UNL     1       2.274   7.905  18.486  0.00  0.00    +0.000 A 
ATOM     12  C   UNL     1       2.613   6.681  19.071  0.00  0.00    +0.000 A 
ATOM     13  C   UNL     1       2.176   6.365  20.363  0.00  0.00    +0.000 A 
ATOM     14  C   UNL     1       1.468   7.317  21.100  0.00  0.00    +0.000 A 
ATOM     15  C   UNL     1       1.181   8.553  20.549  0.00  0.00    +0.000 A 
BRANCH  13  16
ATOM     16  N   UNL     1       2.404   5.130  20.996  0.00  0.00    +0.000 N 
ATOM     17  C   UNL     1       1.679   3.964  20.833  0.00  0.00    +0.000 C 
ATOM     18  C   UNL     1       2.232   2.836  21.668  0.00  0.00    +0.000 C 
ATOM     19  O   UNL     1       0.692   3.799  20.137  0.00  0.00    +0.000 OA
ATOM     20  H   UNL     1       3.180   5.102  21.637  0.00  0.00    +0.000 HD
ENDBRANCH  13  16
ENDBRANCH   7  10
ENDBRANCH   4   7
BRANCH   1  21
ATOM     21  C   UNL     1      -0.115  15.081  20.232  0.00  0.00    +0.000 C 
BRANCH  21  26
ATOM     22  C   UNL     1      -2.611  17.877  19.412  0.00  0.00    +0.000 A 
ATOM     23  C   UNL     1      -1.953  18.439  18.297  0.00  0.00    +0.000 A 
ATOM     24  C   UNL     1      -0.763  17.914  17.810  0.00  0.00    +0.000 A 
ATOM     25  C   UNL     1      -0.202  16.818  18.439  0.00  0.00    +0.000 A 
ATOM     26  C   UNL     1      -0.801  16.272  19.588  0.00  0.00    +0.000 A 
ATOM     27  C   UNL     1      -1.999  16.818  20.107  0.00  0.00    +0.000 A 
BRANCH  22  29
ATOM     28  C   UNL     1      -4.958  17.752  19.153  0.00  0.00    +0.000 C 
ATOM     29  O   UNL     1      -3.839  18.347  19.817  0.00  0.00    +0.000 OA
ENDBRANCH  22  29
BRANCH  27  30
ATOM     30  O   UNL     1      -2.412  16.186  21.248  0.00  0.00    +0.000 OA
ATOM     31  C   UNL     1      -2.391  16.811  22.517  0.00  0.00    +0.000 C 
ENDBRANCH  27  30
ENDBRANCH  21  26
ENDBRANCH   1  21
TORSDOF 7
ENDMDL
