MODEL 1
REMARK VINA RESULT:      -7.4      0.000      0.000
REMARK  Name = 
REMARK  7 active torsions:
REMARK  status: ('A' for Active; 'I' for Inactive)
REMARK    1  A    between atoms: C_1  and  N_2
REMARK    2  A    between atoms: N_2  and  C_3
REMARK    3  A    between atoms: C_3  and  C_4
REMARK    4  A    between atoms: N_16  and  C_17
REMARK    5  A    between atoms: C_17  and  C_18
REMARK    6  A    between atoms: C_18  and  C_19
REMARK    7  A    between atoms: C_19  and  N_20
REMARK                            x       y       z     vdW  Elec       q    Type
REMARK                         _______ _______ _______ _____ _____    ______ ____
ROOT
ATOM      1  C   UNL     1       7.549   6.011  19.213  0.00  0.00    +0.000 C 
ATOM      2  N   UNL     1       6.959   4.865  18.543  0.00  0.00    +0.000 N 
ATOM      3  C   UNL     1       5.787   4.382  19.096  0.00  0.00    +0.000 C 
ATOM      4  O   UNL     1       5.260   4.903  20.083  0.00  0.00    +0.000 OA
ATOM      5  N   UNL     1       5.223   3.312  18.456  0.00  0.00    +0.000 N 
ATOM      6  H   UNL     1       5.870   2.704  17.970  0.00  0.00    +0.000 HD
ENDROOT
BRANCH   2   7
ATOM      7  C   UNL     1       7.435   4.538  17.190  0.00  0.00    +0.000 C 
BRANCH   7   8
ATOM      8  C   UNL     1       7.023   5.556  16.103  0.00  0.00    +0.000 C 
ATOM      9  C   UNL     1       5.526   5.421  15.807  0.00  0.00    +0.000 C 
ATOM     10  O   UNL     1       5.270   4.133  15.223  0.00  0.00    +0.000 OA
ATOM     11  C   UNL     1       5.965   4.077  14.041  0.00  0.00    +0.000 A 
ATOM     12  C   UNL     1       5.403   3.351  12.996  0.00  0.00    +0.000 A 
ATOM     13  C   UNL     1       5.958   3.452  11.720  0.00  0.00    +0.000 A 
ATOM     14  C   UNL     1       7.081   4.254  11.509  0.00  0.00    +0.000 A 
ATOM     15  C   UNL     1       7.700   4.898  12.585  0.00  0.00    +0.000 A 
ATOM     16  C   UNL     1       7.153   4.792  13.861  0.00  0.00    +0.000 A 
ATOM     17  O   UNL     1       7.801   5.426  14.891  0.00  0.00    +0.000 OA
ENDBRANCH   7   8
ENDBRANCH   2   7
BRANCH   5  18
ATOM     18  C   UNL     1       4.011   2.714  18.977  0.00  0.00    +0.000 C 
BRANCH  18  19
ATOM     19  C   UNL     1       2.977   2.478  17.879  0.00  0.00    +0.000 C 
BRANCH  19  20
ATOM     20  C   UNL     1       2.281   3.782  17.510  0.00  0.00    +0.000 C 
BRANCH  20  21
ATOM     21  N   UNL     1       2.137   4.669  18.643  0.00  0.00    +0.000 N 
ATOM     22  C   UNL     1       1.570   4.397  19.848  0.00  0.00    +0.000 A 
ATOM     23  N   UNL     1       1.596   5.477  20.597  0.00  0.00    +0.000 NA
ATOM     24  C   UNL     1       2.201   6.395  19.786  0.00  0.00    +0.000 A 
ATOM     25  N   UNL     1       2.549   5.948  18.575  0.00  0.00    +0.000 NA
ENDBRANCH  20  21
ENDBRANCH  19  20
ENDBRANCH  18  19
ENDBRANCH   5  18
TORSDOF 6
ENDMDL
MODEL 2
REMARK VINA RESULT:      -7.2      1.175      1.534
REMARK  Name = 
REMARK  7 active torsions:
REMARK  status: ('A' for Active; 'I' for Inactive)
REMARK    1  A    between atoms: C_1  and  N_2
REMARK    2  A    between atoms: N_2  and  C_3
REMARK    3  A    between atoms: C_3  and  C_4
REMARK    4  A    between atoms: N_16  and  C_17
REMARK    5  A    between atoms: C_17  and  C_18
REMARK    6  A    between atoms: C_18  and  C_19
REMARK    7  A    between atoms: C_19  and  N_20
REMARK                            x       y       z     vdW  Elec       q    Type
REMARK                         _______ _______ _______ _____ _____    ______ ____
ROOT
ATOM      1  C   UNL     1       7.675   6.100  19.047  0.00  0.00    +0.000 C 
ATOM      2  N   UNL     1       7.027   5.022  18.319  0.00  0.00    +0.000 N 
ATOM      3  C   UNL     1       5.773   4.657  18.774  0.00  0.00    +0.000 C 
ATOM      4  O   UNL     1       5.226   5.222  19.725  0.00  0.00    +0.000 OA
ATOM      5  N   UNL     1       5.155   3.653  18.079  0.00  0.00    +0.000 N 
ATOM      6  H   UNL     1       5.775   2.986  17.636  0.00  0.00    +0.000 HD
ENDROOT
BRANCH   2   7
ATOM      7  C   UNL     1       7.571   4.656  17.002  0.00  0.00    +0.000 C 
BRANCH   7   8
ATOM      8  C   UNL     1       7.184   5.622  15.859  0.00  0.00    +0.000 C 
ATOM      9  C   UNL     1       5.661   5.639  15.689  0.00  0.00    +0.000 C 
ATOM     10  O   UNL     1       5.217   4.346  15.247  0.00  0.00    +0.000 OA
ATOM     11  C   UNL     1       5.799   4.110  14.027  0.00  0.00    +0.000 A 
ATOM     12  C   UNL     1       5.074   3.371  13.098  0.00  0.00    +0.000 A 
ATOM     13  C   UNL     1       5.527   3.299  11.781  0.00  0.00    +0.000 A 
ATOM     14  C   UNL     1       6.710   3.943  11.413  0.00  0.00    +0.000 A 
ATOM     15  C   UNL     1       7.485   4.598  12.376  0.00  0.00    +0.000 A 
ATOM     16  C   UNL     1       7.039   4.663  13.694  0.00  0.00    +0.000 A 
ATOM     17  O   UNL     1       7.837   5.301  14.609  0.00  0.00    +0.000 OA
ENDBRANCH   7   8
ENDBRANCH   2   7
BRANCH   5  18
ATOM     18  C   UNL     1       3.854   3.177  18.497  0.00  0.00    +0.000 C 
BRANCH  18  19
ATOM     19  C   UNL     1       2.723   3.985  17.866  0.00  0.00    +0.000 C 
BRANCH  19  20
ATOM     20  C   UNL     1       1.398   3.678  18.553  0.00  0.00    +0.000 C 
BRANCH  20  21
ATOM     21  N   UNL     1       1.556   3.439  19.971  0.00  0.00    +0.000 N 
ATOM     22  C   UNL     1       2.072   4.280  20.905  0.00  0.00    +0.000 A 
ATOM     23  N   UNL     1       2.081   3.680  22.075  0.00  0.00    +0.000 NA
ATOM     24  C   UNL     1       1.550   2.454  21.792  0.00  0.00    +0.000 A 
ATOM     25  N   UNL     1       1.214   2.257  20.513  0.00  0.00    +0.000 NA
ENDBRANCH  20  21
ENDBRANCH  19  20
ENDBRANCH  18  19
ENDBRANCH   5  18
TORSDOF 6
ENDMDL
MODEL 3
REMARK VINA RESULT:      -7.2      0.805      1.170
REMARK  Name = 
REMARK  7 active torsions:
REMARK  status: ('A' for Active; 'I' for Inactive)
REMARK    1  A    between atoms: C_1  and  N_2
REMARK    2  A    between atoms: N_2  and  C_3
REMARK    3  A    between atoms: C_3  and  C_4
REMARK    4  A    between atoms: N_16  and  C_17
REMARK    5  A    between atoms: C_17  and  C_18
REMARK    6  A    between atoms: C_18  and  C_19
REMARK    7  A    between atoms: C_19  and  N_20
REMARK                            x       y       z     vdW  Elec       q    Type
REMARK                         _______ _______ _______ _____ _____    ______ ____
ROOT
ATOM      1  C   UNL     1       7.824   6.242  18.962  0.00  0.00    +0.000 C 
ATOM      2  N   UNL     1       7.160   5.068  18.420  0.00  0.00    +0.000 N 
ATOM      3  C   UNL     1       6.014   4.664  19.083  0.00  0.00    +0.000 C 
ATOM      4  O   UNL     1       5.568   5.273  20.060  0.00  0.00    +0.000 OA
ATOM      5  N   UNL     1       5.380   3.569  18.563  0.00  0.00    +0.000 N 
ATOM      6  H   UNL     1       5.977   2.907  18.084  0.00  0.00    +0.000 HD
ENDROOT
BRANCH   2   7
ATOM      7  C   UNL     1       7.536   4.627  17.068  0.00  0.00    +0.000 C 
BRANCH   7   8
ATOM      8  C   UNL     1       7.117   5.597  15.940  0.00  0.00    +0.000 C 
ATOM      9  C   UNL     1       5.601   5.529  15.734  0.00  0.00    +0.000 C 
ATOM     10  O   UNL     1       5.244   4.224  15.251  0.00  0.00    +0.000 OA
ATOM     11  C   UNL     1       5.866   4.054  14.040  0.00  0.00    +0.000 A 
ATOM     12  C   UNL     1       5.207   3.297  13.077  0.00  0.00    +0.000 A 
ATOM     13  C   UNL     1       5.692   3.285  11.769  0.00  0.00    +0.000 A 
ATOM     14  C   UNL     1       6.844   4.007  11.445  0.00  0.00    +0.000 A 
ATOM     15  C   UNL     1       7.556   4.682  12.441  0.00  0.00    +0.000 A 
ATOM     16  C   UNL     1       7.078   4.687  13.749  0.00  0.00    +0.000 A 
ATOM     17  O   UNL     1       7.817   5.347  14.699  0.00  0.00    +0.000 OA
ENDBRANCH   7   8
ENDBRANCH   2   7
BRANCH   5  18
ATOM     18  C   UNL     1       4.190   3.049  19.204  0.00  0.00    +0.000 C 
BRANCH  18  19
ATOM     19  C   UNL     1       2.918   3.659  18.622  0.00  0.00    +0.000 C 
BRANCH  19  20
ATOM     20  C   UNL     1       2.266   4.599  19.629  0.00  0.00    +0.000 C 
BRANCH  20  21
ATOM     21  N   UNL     1       2.361   5.985  19.230  0.00  0.00    +0.000 N 
ATOM     22  C   UNL     1       1.892   7.077  19.890  0.00  0.00    +0.000 A 
ATOM     23  N   UNL     1       2.140   8.156  19.182  0.00  0.00    +0.000 NA
ATOM     24  C   UNL     1       2.774   7.658  18.080  0.00  0.00    +0.000 A 
ATOM     25  N   UNL     1       2.930   6.330  18.061  0.00  0.00    +0.000 NA
ENDBRANCH  20  21
ENDBRANCH  19  20
ENDBRANCH  18  19
ENDBRANCH   5  18
TORSDOF 6
ENDMDL
MODEL 4
REMARK VINA RESULT:      -7.2      1.694      3.284
REMARK  Name = 
REMARK  7 active torsions:
REMARK  status: ('A' for Active; 'I' for Inactive)
REMARK    1  A    between atoms: C_1  and  N_2
REMARK    2  A    between atoms: N_2  and  C_3
REMARK    3  A    between atoms: C_3  and  C_4
REMARK    4  A    between atoms: N_16  and  C_17
REMARK    5  A    between atoms: C_17  and  C_18
REMARK    6  A    between atoms: C_18  and  C_19
REMARK    7  A    between atoms: C_19  and  N_20
REMARK                            x       y       z     vdW  Elec       q    Type
REMARK                         _______ _______ _______ _____ _____    ______ ____
ROOT
ATOM      1  C   UNL     1       4.380   6.860  16.835  0.00  0.00    +0.000 C 
ATOM      2  N   UNL     1       4.444   6.327  18.186  0.00  0.00    +0.000 N 
ATOM      3  C   UNL     1       3.227   6.031  18.774  0.00  0.00    +0.000 C 
ATOM      4  O   UNL     1       2.154   6.188  18.185  0.00  0.00    +0.000 OA
ATOM      5  N   UNL     1       3.288   5.514  20.040  0.00  0.00    +0.000 N 
ATOM      6  H   UNL     1       4.088   5.802  20.590  0.00  0.00    +0.000 HD
ENDROOT
BRANCH   2   7
ATOM      7  C   UNL     1       5.743   5.836  18.671  0.00  0.00    +0.000 C 
BRANCH   7   8
ATOM      8  C   UNL     1       6.168   4.469  18.088  0.00  0.00    +0.000 C 
ATOM      9  C   UNL     1       7.641   4.519  17.671  0.00  0.00    +0.000 C 
ATOM     10  O   UNL     1       7.798   5.449  16.586  0.00  0.00    +0.000 OA
ATOM     11  C   UNL     1       7.053   4.977  15.535  0.00  0.00    +0.000 A 
ATOM     12  C   UNL     1       7.528   5.214  14.250  0.00  0.00    +0.000 A 
ATOM     13  C   UNL     1       6.929   4.565  13.170  0.00  0.00    +0.000 A 
ATOM     14  C   UNL     1       5.846   3.709  13.385  0.00  0.00    +0.000 A 
ATOM     15  C   UNL     1       5.310   3.557  14.667  0.00  0.00    +0.000 A 
ATOM     16  C   UNL     1       5.902   4.211  15.745  0.00  0.00    +0.000 A 
ATOM     17  O   UNL     1       5.335   4.048  16.984  0.00  0.00    +0.000 OA
ENDBRANCH   7   8
ENDBRANCH   2   7
BRANCH   5  18
ATOM     18  C   UNL     1       2.067   5.202  20.753  0.00  0.00    +0.000 C 
BRANCH  18  19
ATOM     19  C   UNL     1       2.142   3.840  21.438  0.00  0.00    +0.000 C 
BRANCH  19  20
ATOM     20  C   UNL     1       1.359   2.799  20.647  0.00  0.00    +0.000 C 
BRANCH  20  21
ATOM     21  N   UNL     1       2.016   2.440  19.410  0.00  0.00    +0.000 N 
ATOM     22  C   UNL     1       3.204   1.799  19.252  0.00  0.00    +0.000 A 
ATOM     23  N   UNL     1       3.476   1.694  17.970  0.00  0.00    +0.000 NA
ATOM     24  C   UNL     1       2.403   2.297  17.380  0.00  0.00    +0.000 A 
ATOM     25  N   UNL     1       1.480   2.774  18.222  0.00  0.00    +0.000 NA
ENDBRANCH  20  21
ENDBRANCH  19  20
ENDBRANCH  18  19
ENDBRANCH   5  18
TORSDOF 6
ENDMDL
MODEL 5
REMARK VINA RESULT:      -7.0      2.083      4.572
REMARK  Name = 
REMARK  7 active torsions:
REMARK  status: ('A' for Active; 'I' for Inactive)
REMARK    1  A    between atoms: C_1  and  N_2
REMARK    2  A    between atoms: N_2  and  C_3
REMARK    3  A    between atoms: C_3  and  C_4
REMARK    4  A    between atoms: N_16  and  C_17
REMARK    5  A    between atoms: C_17  and  C_18
REMARK    6  A    between atoms: C_18  and  C_19
REMARK    7  A    between atoms: C_19  and  N_20
REMARK                            x       y       z     vdW  Elec       q    Type
REMARK                         _______ _______ _______ _____ _____    ______ ____
ROOT
ATOM      1  C   UNL     1       7.455   4.894  14.423  0.00  0.00    +0.000 C 
ATOM      2  N   UNL     1       6.779   4.585  15.671  0.00  0.00    +0.000 N 
ATOM      3  C   UNL     1       5.605   3.862  15.558  0.00  0.00    +0.000 C 
ATOM      4  O   UNL     1       5.166   3.484  14.468  0.00  0.00    +0.000 OA
ATOM      5  N   UNL     1       4.977   3.557  16.735  0.00  0.00    +0.000 N 
ATOM      6  H   UNL     1       5.125   4.214  17.490  0.00  0.00    +0.000 HD
ENDROOT
BRANCH   2   7
ATOM      7  C   UNL     1       7.536   4.747  16.922  0.00  0.00    +0.000 C 
BRANCH   7   8
ATOM      8  C   UNL     1       7.227   6.050  17.693  0.00  0.00    +0.000 C 
ATOM      9  C   UNL     1       7.078   5.746  19.187  0.00  0.00    +0.000 C 
ATOM     10  O   UNL     1       5.924   4.914  19.391  0.00  0.00    +0.000 OA
ATOM     11  C   UNL     1       4.830   5.626  18.969  0.00  0.00    +0.000 A 
ATOM     12  C   UNL     1       3.630   5.425  19.644  0.00  0.00    +0.000 A 
ATOM     13  C   UNL     1       2.558   6.284  19.399  0.00  0.00    +0.000 A 
ATOM     14  C   UNL     1       2.688   7.314  18.465  0.00  0.00    +0.000 A 
ATOM     15  C   UNL     1       3.862   7.445  17.718  0.00  0.00    +0.000 A 
ATOM     16  C   UNL     1       4.931   6.583  17.955  0.00  0.00    +0.000 A 
ATOM     17  O   UNL     1       6.059   6.736  17.188  0.00  0.00    +0.000 OA
ENDBRANCH   7   8
ENDBRANCH   2   7
BRANCH   5  18
ATOM     18  C   UNL     1       3.724   2.831  16.719  0.00  0.00    +0.000 C 
BRANCH  18  19
ATOM     19  C   UNL     1       3.569   1.939  17.948  0.00  0.00    +0.000 C 
BRANCH  19  20
ATOM     20  C   UNL     1       2.143   2.007  18.482  0.00  0.00    +0.000 C 
BRANCH  20  21
ATOM     21  N   UNL     1       2.095   2.373  19.880  0.00  0.00    +0.000 N 
ATOM     22  C   UNL     1       3.080   2.248  20.808  0.00  0.00    +0.000 A 
ATOM     23  N   UNL     1       2.633   2.655  21.976  0.00  0.00    +0.000 NA
ATOM     24  C   UNL     1       1.348   3.024  21.699  0.00  0.00    +0.000 A 
ATOM     25  N   UNL     1       0.969   2.866  20.426  0.00  0.00    +0.000 NA
ENDBRANCH  20  21
ENDBRANCH  19  20
ENDBRANCH  18  19
ENDBRANCH   5  18
TORSDOF 6
ENDMDL
MODEL 6
REMARK VINA RESULT:      -6.9      3.617      7.560
REMARK  Name = 
REMARK  7 active torsions:
REMARK  status: ('A' for Active; 'I' for Inactive)
REMARK    1  A    between atoms: C_1  and  N_2
REMARK    2  A    between atoms: N_2  and  C_3
REMARK    3  A    between atoms: C_3  and  C_4
REMARK    4  A    between atoms: N_16  and  C_17
REMARK    5  A    between atoms: C_17  and  C_18
REMARK    6  A    between atoms: C_18  and  C_19
REMARK    7  A    between atoms: C_19  and  N_20
REMARK                            x       y       z     vdW  Elec       q    Type
REMARK                         _______ _______ _______ _____ _____    ______ ____
ROOT
ATOM      1  C   UNL     1       6.178   3.623  15.410  0.00  0.00    +0.000 C 
ATOM      2  N   UNL     1       6.137   4.701  16.383  0.00  0.00    +0.000 N 
ATOM      3  C   UNL     1       7.000   5.757  16.148  0.00  0.00    +0.000 C 
ATOM      4  O   UNL     1       7.744   5.794  15.164  0.00  0.00    +0.000 OA
ATOM      5  N   UNL     1       6.950   6.780  17.055  0.00  0.00    +0.000 N 
ATOM      6  H   UNL     1       6.675   6.517  17.994  0.00  0.00    +0.000 HD
ENDROOT
BRANCH   2   7
ATOM      7  C   UNL     1       4.991   4.755  17.303  0.00  0.00    +0.000 C 
BRANCH   7   8
ATOM      8  C   UNL     1       4.301   3.394  17.545  0.00  0.00    +0.000 C 
ATOM      9  C   UNL     1       2.822   3.485  17.153  0.00  0.00    +0.000 C 
ATOM     10  O   UNL     1       2.152   4.401  18.033  0.00  0.00    +0.000 OA
ATOM     11  C   UNL     1       2.245   3.889  19.303  0.00  0.00    +0.000 A 
ATOM     12  C   UNL     1       1.184   4.120  20.172  0.00  0.00    +0.000 A 
ATOM     13  C   UNL     1       1.135   3.435  21.386  0.00  0.00    +0.000 A 
ATOM     14  C   UNL     1       2.158   2.548  21.728  0.00  0.00    +0.000 A 
ATOM     15  C   UNL     1       3.271   2.399  20.895  0.00  0.00    +0.000 A 
ATOM     16  C   UNL     1       3.326   3.090  19.687  0.00  0.00    +0.000 A 
ATOM     17  O   UNL     1       4.444   2.928  18.907  0.00  0.00    +0.000 OA
ENDBRANCH   7   8
ENDBRANCH   2   7
BRANCH   5  18
ATOM     18  C   UNL     1       7.837   7.916  16.915  0.00  0.00    +0.000 C 
BRANCH  18  19
ATOM     19  C   UNL     1       8.209   8.517  18.268  0.00  0.00    +0.000 C 
BRANCH  19  20
ATOM     20  C   UNL     1       8.146  10.039  18.212  0.00  0.00    +0.000 C 
BRANCH  20  21
ATOM     21  N   UNL     1       9.321  10.659  18.784  0.00  0.00    +0.000 N 
ATOM     22  C   UNL     1       9.587  10.888  20.097  0.00  0.00    +0.000 A 
ATOM     23  N   UNL     1      10.739  11.510  20.207  0.00  0.00    +0.000 NA
ATOM     24  C   UNL     1      11.142  11.639  18.908  0.00  0.00    +0.000 A 
ATOM     25  N   UNL     1      10.303  11.134  17.997  0.00  0.00    +0.000 NA
ENDBRANCH  20  21
ENDBRANCH  19  20
ENDBRANCH  18  19
ENDBRANCH   5  18
TORSDOF 6
ENDMDL
MODEL 7
REMARK VINA RESULT:      -6.9      3.048      6.132
REMARK  Name = 
REMARK  7 active torsions:
REMARK  status: ('A' for Active; 'I' for Inactive)
REMARK    1  A    between atoms: C_1  and  N_2
REMARK    2  A    between atoms: N_2  and  C_3
REMARK    3  A    between atoms: C_3  and  C_4
REMARK    4  A    between atoms: N_16  and  C_17
REMARK    5  A    between atoms: C_17  and  C_18
REMARK    6  A    between atoms: C_18  and  C_19
REMARK    7  A    between atoms: C_19  and  N_20
REMARK                            x       y       z     vdW  Elec       q    Type
REMARK                         _______ _______ _______ _____ _____    ______ ____
ROOT
ATOM      1  C   UNL     1       6.893   5.312  16.226  0.00  0.00    +0.000 C 
ATOM      2  N   UNL     1       5.957   5.827  17.211  0.00  0.00    +0.000 N 
ATOM      3  C   UNL     1       5.002   6.705  16.733  0.00  0.00    +0.000 C 
ATOM      4  O   UNL     1       4.932   7.019  15.542  0.00  0.00    +0.000 OA
ATOM      5  N   UNL     1       4.110   7.177  17.658  0.00  0.00    +0.000 N 
ATOM      6  H   UNL     1       4.458   7.235  18.607  0.00  0.00    +0.000 HD
ENDROOT
BRANCH   2   7
ATOM      7  C   UNL     1       5.877   5.139  18.509  0.00  0.00    +0.000 C 
BRANCH   7   8
ATOM      8  C   UNL     1       5.279   3.715  18.444  0.00  0.00    +0.000 C 
ATOM      9  C   UNL     1       4.069   3.704  17.504  0.00  0.00    +0.000 C 
ATOM     10  O   UNL     1       3.025   4.518  18.063  0.00  0.00    +0.000 OA
ATOM     11  C   UNL     1       2.665   3.953  19.260  0.00  0.00    +0.000 A 
ATOM     12  C   UNL     1       1.333   4.053  19.646  0.00  0.00    +0.000 A 
ATOM     13  C   UNL     1       0.880   3.307  20.734  0.00  0.00    +0.000 A 
ATOM     14  C   UNL     1       1.768   2.491  21.439  0.00  0.00    +0.000 A 
ATOM     15  C   UNL     1       3.126   2.476  21.108  0.00  0.00    +0.000 A 
ATOM     16  C   UNL     1       3.582   3.227  20.027  0.00  0.00    +0.000 A 
ATOM     17  O   UNL     1       4.925   3.196  19.746  0.00  0.00    +0.000 OA
ENDBRANCH   7   8
ENDBRANCH   2   7
BRANCH   5  18
ATOM     18  C   UNL     1       3.092   8.128  17.263  0.00  0.00    +0.000 C 
BRANCH  18  19
ATOM     19  C   UNL     1       2.085   8.381  18.382  0.00  0.00    +0.000 C 
BRANCH  19  20
ATOM     20  C   UNL     1       1.381   9.716  18.177  0.00  0.00    +0.000 C 
BRANCH  20  21
ATOM     21  N   UNL     1       1.145  10.412  19.422  0.00  0.00    +0.000 N 
ATOM     22  C   UNL     1       0.890   9.872  20.643  0.00  0.00    +0.000 A 
ATOM     23  N   UNL     1       0.691  10.837  21.514  0.00  0.00    +0.000 NA
ATOM     24  C   UNL     1       0.841  11.965  20.758  0.00  0.00    +0.000 A 
ATOM     25  N   UNL     1       1.117  11.756  19.467  0.00  0.00    +0.000 NA
ENDBRANCH  20  21
ENDBRANCH  19  20
ENDBRANCH  18  19
ENDBRANCH   5  18
TORSDOF 6
ENDMDL
MODEL 8
REMARK VINA RESULT:      -6.8      4.195      7.818
REMARK  Name = 
REMARK  7 active torsions:
REMARK  status: ('A' for Active; 'I' for Inactive)
REMARK    1  A    between atoms: C_1  and  N_2
REMARK    2  A    between atoms: N_2  and  C_3
REMARK    3  A    between atoms: C_3  and  C_4
REMARK    4  A    between atoms: N_16  and  C_17
REMARK    5  A    between atoms: C_17  and  C_18
REMARK    6  A    between atoms: C_18  and  C_19
REMARK    7  A    between atoms: C_19  and  N_20
REMARK                            x       y       z     vdW  Elec       q    Type
REMARK                         _______ _______ _______ _____ _____    ______ ____
ROOT
ATOM      1  C   UNL     1       6.901   4.490  16.751  0.00  0.00    +0.000 C 
ATOM      2  N   UNL     1       6.674   5.652  17.594  0.00  0.00    +0.000 N 
ATOM      3  C   UNL     1       7.353   6.801  17.230  0.00  0.00    +0.000 C 
ATOM      4  O   UNL     1       8.089   6.847  16.240  0.00  0.00    +0.000 OA
ATOM      5  N   UNL     1       7.127   7.900  18.014  0.00  0.00    +0.000 N 
ATOM      6  H   UNL     1       6.892   7.705  18.980  0.00  0.00    +0.000 HD
ENDROOT
BRANCH   2   7
ATOM      7  C   UNL     1       5.527   5.621  18.515  0.00  0.00    +0.000 C 
BRANCH   7   8
ATOM      8  C   UNL     1       4.148   5.680  17.821  0.00  0.00    +0.000 C 
ATOM      9  C   UNL     1       3.189   6.544  18.647  0.00  0.00    +0.000 C 
ATOM     10  O   UNL     1       2.941   5.904  19.910  0.00  0.00    +0.000 OA
ATOM     11  C   UNL     1       2.340   4.699  19.645  0.00  0.00    +0.000 A 
ATOM     12  C   UNL     1       1.404   4.230  20.560  0.00  0.00    +0.000 A 
ATOM     13  C   UNL     1       0.612   3.132  20.224  0.00  0.00    +0.000 A 
ATOM     14  C   UNL     1       0.782   2.501  18.989  0.00  0.00    +0.000 A 
ATOM     15  C   UNL     1       1.795   2.916  18.119  0.00  0.00    +0.000 A 
ATOM     16  C   UNL     1       2.592   4.006  18.457  0.00  0.00    +0.000 A 
ATOM     17  O   UNL     1       3.585   4.370  17.582  0.00  0.00    +0.000 OA
ENDBRANCH   7   8
ENDBRANCH   2   7
BRANCH   5  18
ATOM     18  C   UNL     1       7.816   9.142  17.735  0.00  0.00    +0.000 C 
BRANCH  18  19
ATOM     19  C   UNL     1       9.014   9.348  18.658  0.00  0.00    +0.000 C 
BRANCH  19  20
ATOM     20  C   UNL     1       8.928  10.701  19.353  0.00  0.00    +0.000 C 
BRANCH  20  21
ATOM     21  N   UNL     1       9.885  11.651  18.830  0.00  0.00    +0.000 N 
ATOM     22  C   UNL     1      10.658  11.530  17.719  0.00  0.00    +0.000 A 
ATOM     23  N   UNL     1      11.428  12.589  17.605  0.00  0.00    +0.000 NA
ATOM     24  C   UNL     1      11.079  13.338  18.692  0.00  0.00    +0.000 A 
ATOM     25  N   UNL     1      10.137  12.803  19.477  0.00  0.00    +0.000 NA
ENDBRANCH  20  21
ENDBRANCH  19  20
ENDBRANCH  18  19
ENDBRANCH   5  18
TORSDOF 6
ENDMDL
MODEL 9
REMARK VINA RESULT:      -6.8      4.027      7.857
REMARK  Name = 
REMARK  7 active torsions:
REMARK  status: ('A' for Active; 'I' for Inactive)
REMARK    1  A    between atoms: C_1  and  N_2
REMARK    2  A    between atoms: N_2  and  C_3
REMARK    3  A    between atoms: C_3  and  C_4
REMARK    4  A    between atoms: N_16  and  C_17
REMARK    5  A    between atoms: C_17  and  C_18
REMARK    6  A    between atoms: C_18  and  C_19
REMARK    7  A    between atoms: C_19  and  N_20
REMARK                            x       y       z     vdW  Elec       q    Type
REMARK                         _______ _______ _______ _____ _____    ______ ____
ROOT
ATOM      1  C   UNL     1       7.356   4.235  16.628  0.00  0.00    +0.000 C 
ATOM      2  N   UNL     1       7.018   5.324  17.528  0.00  0.00    +0.000 N 
ATOM      3  C   UNL     1       7.414   6.586  17.122  0.00  0.00    +0.000 C 
ATOM      4  O   UNL     1       7.998   6.782  16.053  0.00  0.00    +0.000 OA
ATOM      5  N   UNL     1       7.081   7.614  17.962  0.00  0.00    +0.000 N 
ATOM      6  H   UNL     1       7.010   7.370  18.942  0.00  0.00    +0.000 HD
ENDROOT
BRANCH   2   7
ATOM      7  C   UNL     1       6.022   5.065  18.579  0.00  0.00    +0.000 C 
BRANCH   7   8
ATOM      8  C   UNL     1       5.222   3.756  18.394  0.00  0.00    +0.000 C 
ATOM      9  C   UNL     1       3.968   4.029  17.557  0.00  0.00    +0.000 C 
ATOM     10  O   UNL     1       3.088   4.899  18.287  0.00  0.00    +0.000 OA
ATOM     11  C   UNL     1       2.724   4.240  19.434  0.00  0.00    +0.000 A 
ATOM     12  C   UNL     1       1.446   4.471  19.932  0.00  0.00    +0.000 A 
ATOM     13  C   UNL     1       0.957   3.661  20.958  0.00  0.00    +0.000 A 
ATOM     14  C   UNL     1       1.759   2.649  21.490  0.00  0.00    +0.000 A 
ATOM     15  C   UNL     1       3.078   2.492  21.054  0.00  0.00    +0.000 A 
ATOM     16  C   UNL     1       3.571   3.305  20.036  0.00  0.00    +0.000 A 
ATOM     17  O   UNL     1       4.876   3.128  19.650  0.00  0.00    +0.000 OA
ENDBRANCH   7   8
ENDBRANCH   2   7
BRANCH   5  18
ATOM     18  C   UNL     1       7.479   8.969  17.642  0.00  0.00    +0.000 C 
BRANCH  18  19
ATOM     19  C   UNL     1       8.596   9.465  18.557  0.00  0.00    +0.000 C 
BRANCH  19  20
ATOM     20  C   UNL     1       9.230  10.729  17.990  0.00  0.00    +0.000 C 
BRANCH  20  21
ATOM     21  N   UNL     1      10.187  11.320  18.899  0.00  0.00    +0.000 N 
ATOM     22  C   UNL     1      10.099  11.424  20.251  0.00  0.00    +0.000 A 
ATOM     23  N   UNL     1      11.152  12.062  20.710  0.00  0.00    +0.000 NA
ATOM     24  C   UNL     1      11.864  12.330  19.575  0.00  0.00    +0.000 A 
ATOM     25  N   UNL     1      11.311  11.897  18.438  0.00  0.00    +0.000 NA
ENDBRANCH  20  21
ENDBRANCH  19  20
ENDBRANCH  18  19
ENDBRANCH   5  18
TORSDOF 6
ENDMDL
