MODEL 1
REMARK VINA RESULT:      -5.7      0.000      0.000
REMARK  Name = 
REMARK  14 active torsions:
REMARK  status: ('A' for Active; 'I' for Inactive)
REMARK    1  A    between atoms: C_1  and  O_2
REMARK    2  A    between atoms: O_2  and  C_3
REMARK    3  A    between atoms: C_3  and  C_4
REMARK    4  A    between atoms: C_4  and  N_5
REMARK    5  A    between atoms: N_5  and  C_6
REMARK    6  A    between atoms: N_5  and  C_10
REMARK    7  A    between atoms: C_6  and  C_7
REMARK    8  A    between atoms: C_7  and  O_8
REMARK    9  A    between atoms: O_8  and  C_9
REMARK   10  A    between atoms: C_12  and  C_13
REMARK   11  A    between atoms: N_20  and  C_21
REMARK   12  A    between atoms: C_24  and  C_25
REMARK   13  A    between atoms: C_25  and  C_26
REMARK   14  A    between atoms: C_25  and  C_27
REMARK                            x       y       z     vdW  Elec       q    Type
REMARK                         _______ _______ _______ _____ _____    ______ ____
ROOT
ATOM      1  C   UNL     1      -0.318  14.301  20.436  0.00  0.00    +0.000 A 
ATOM      2  N   UNL     1       0.966  14.545  20.785  0.00  0.00    +0.000 NA
ATOM      3  C   UNL     1       1.872  13.551  20.679  0.00  0.00    +0.000 A 
ATOM      4  C   UNL     1       3.296  13.862  21.023  0.00  0.00    +0.000 C 
ATOM      5  N   UNL     1       1.601  12.306  20.259  0.00  0.00    +0.000 NA
ATOM      6  C   UNL     1       0.321  12.087  19.916  0.00  0.00    +0.000 A 
ATOM      7  C   UNL     1      -0.671  13.047  19.969  0.00  0.00    +0.000 A 
ATOM      8  S   UNL     1      -2.184  12.436  19.288  0.00  0.00    +0.000 S 
ATOM      9  C   UNL     1      -1.444  10.878  18.916  0.00  0.00    +0.000 A 
ATOM     10  O   UNL     1      -2.059   9.985  18.352  0.00  0.00    +0.000 OA
ATOM     11  N   UNL     1      -0.144  10.863  19.386  0.00  0.00    +0.000 N 
ENDROOT
BRANCH  11  12
ATOM     12  C   UNL     1       0.734   9.776  19.204  0.00  0.00    +0.000 A 
ATOM     13  C   UNL     1       1.303   9.586  17.939  0.00  0.00    +0.000 A 
ATOM     14  C   UNL     1       2.185   8.526  17.705  0.00  0.00    +0.000 A 
ATOM     15  C   UNL     1       2.497   7.616  18.722  0.00  0.00    +0.000 A 
ATOM     16  C   UNL     1       1.893   7.782  19.977  0.00  0.00    +0.000 A 
ATOM     17  C   UNL     1       1.020   8.853  20.221  0.00  0.00    +0.000 A 
ATOM     18 BR   UNL     1       0.146   8.882  21.914  0.00  0.00    +0.000 Br
BRANCH  15  19
ATOM     19  C   UNL     1       3.469   6.481  18.444  0.00  0.00    +0.000 C 
ATOM     20  C   UNL     1       2.729   5.163  18.199  0.00  0.00    +0.000 C 
ATOM     21  C   UNL     1       4.408   6.804  17.281  0.00  0.00    +0.000 C 
ENDBRANCH  15  19
ENDBRANCH  11  12
BRANCH   1  22
ATOM     22  N   UNL     1      -1.242  15.350  20.531  0.00  0.00    +0.000 N 
BRANCH  22  23
ATOM     23  C   UNL     1      -0.770  16.675  20.106  0.00  0.00    +0.000 C 
BRANCH  23  24
ATOM     24  C   UNL     1      -0.738  16.833  18.565  0.00  0.00    +0.000 C 
BRANCH  24  26
ATOM     25  C   UNL     1       1.433  17.716  19.019  0.00  0.00    +0.000 C 
ATOM     26  O   UNL     1       0.527  17.244  18.032  0.00  0.00    +0.000 OA
ENDBRANCH  24  26
ENDBRANCH  23  24
ENDBRANCH  22  23
BRANCH  22  27
ATOM     27  C   UNL     1      -2.277  15.192  21.575  0.00  0.00    +0.000 C 
BRANCH  27  28
ATOM     28  C   UNL     1      -1.854  14.578  22.919  0.00  0.00    +0.000 C 
BRANCH  28  29
ATOM     29  O   UNL     1      -0.998  15.456  23.659  0.00  0.00    +0.000 OA
ATOM     30  C   UNL     1      -1.310  15.431  25.047  0.00  0.00    +0.000 C 
ENDBRANCH  28  29
ENDBRANCH  27  28
ENDBRANCH  22  27
ENDBRANCH   1  22
TORSDOF 9
ENDMDL
MODEL 2
REMARK VINA RESULT:      -5.6      1.060      1.364
REMARK  Name = 
REMARK  14 active torsions:
REMARK  status: ('A' for Active; 'I' for Inactive)
REMARK    1  A    between atoms: C_1  and  O_2
REMARK    2  A    between atoms: O_2  and  C_3
REMARK    3  A    between atoms: C_3  and  C_4
REMARK    4  A    between atoms: C_4  and  N_5
REMARK    5  A    between atoms: N_5  and  C_6
REMARK    6  A    between atoms: N_5  and  C_10
REMARK    7  A    between atoms: C_6  and  C_7
REMARK    8  A    between atoms: C_7  and  O_8
REMARK    9  A    between atoms: O_8  and  C_9
REMARK   10  A    between atoms: C_12  and  C_13
REMARK   11  A    between atoms: N_20  and  C_21
REMARK   12  A    between atoms: C_24  and  C_25
REMARK   13  A    between atoms: C_25  and  C_26
REMARK   14  A    between atoms: C_25  and  C_27
REMARK                            x       y       z     vdW  Elec       q    Type
REMARK                         _______ _______ _______ _____ _____    ______ ____
ROOT
ATOM      1  C   UNL     1      -0.304  14.359  20.455  0.00  0.00    +0.000 A 
ATOM      2  N   UNL     1       0.985  14.596  20.795  0.00  0.00    +0.000 NA
ATOM      3  C   UNL     1       1.883  13.595  20.688  0.00  0.00    +0.000 A 
ATOM      4  C   UNL     1       3.312  13.898  21.020  0.00  0.00    +0.000 C 
ATOM      5  N   UNL     1       1.600  12.350  20.275  0.00  0.00    +0.000 NA
ATOM      6  C   UNL     1       0.317  12.138  19.942  0.00  0.00    +0.000 A 
ATOM      7  C   UNL     1      -0.668  13.105  19.997  0.00  0.00    +0.000 A 
ATOM      8  S   UNL     1      -2.190  12.501  19.330  0.00  0.00    +0.000 S 
ATOM      9  C   UNL     1      -1.463  10.936  18.960  0.00  0.00    +0.000 A 
ATOM     10  O   UNL     1      -2.088  10.045  18.404  0.00  0.00    +0.000 OA
ATOM     11  N   UNL     1      -0.161  10.914  19.421  0.00  0.00    +0.000 N 
ENDROOT
BRANCH  11  12
ATOM     12  C   UNL     1       0.709   9.820  19.239  0.00  0.00    +0.000 A 
ATOM     13  C   UNL     1       1.254   9.610  17.967  0.00  0.00    +0.000 A 
ATOM     14  C   UNL     1       2.127   8.542  17.732  0.00  0.00    +0.000 A 
ATOM     15  C   UNL     1       2.452   7.645  18.756  0.00  0.00    +0.000 A 
ATOM     16  C   UNL     1       1.872   7.831  20.019  0.00  0.00    +0.000 A 
ATOM     17  C   UNL     1       1.008   8.910  20.263  0.00  0.00    +0.000 A 
ATOM     18 BR   UNL     1       0.165   8.967  21.972  0.00  0.00    +0.000 Br
BRANCH  15  19
ATOM     19  C   UNL     1       3.413   6.502  18.476  0.00  0.00    +0.000 C 
ATOM     20  C   UNL     1       2.661   5.194  18.214  0.00  0.00    +0.000 C 
ATOM     21  C   UNL     1       4.366   6.823  17.323  0.00  0.00    +0.000 C 
ENDBRANCH  15  19
ENDBRANCH  11  12
BRANCH   1  22
ATOM     22  N   UNL     1      -1.220  15.414  20.552  0.00  0.00    +0.000 N 
BRANCH  22  23
ATOM     23  C   UNL     1      -0.809  16.691  19.950  0.00  0.00    +0.000 C 
BRANCH  23  24
ATOM     24  C   UNL     1      -0.509  16.570  18.435  0.00  0.00    +0.000 C 
BRANCH  24  26
ATOM     25  C   UNL     1       1.821  16.990  18.131  0.00  0.00    +0.000 C 
ATOM     26  O   UNL     1       0.497  17.469  17.951  0.00  0.00    +0.000 OA
ENDBRANCH  24  26
ENDBRANCH  23  24
ENDBRANCH  22  23
BRANCH  22  27
ATOM     27  C   UNL     1      -2.130  15.361  21.715  0.00  0.00    +0.000 C 
BRANCH  27  28
ATOM     28  C   UNL     1      -3.613  15.689  21.484  0.00  0.00    +0.000 C 
BRANCH  28  29
ATOM     29  O   UNL     1      -4.421  14.507  21.457  0.00  0.00    +0.000 OA
ATOM     30  C   UNL     1      -5.749  14.779  21.887  0.00  0.00    +0.000 C 
ENDBRANCH  28  29
ENDBRANCH  27  28
ENDBRANCH  22  27
ENDBRANCH   1  22
TORSDOF 9
ENDMDL
MODEL 3
REMARK VINA RESULT:      -5.5      0.920      1.160
REMARK  Name = 
REMARK  14 active torsions:
REMARK  status: ('A' for Active; 'I' for Inactive)
REMARK    1  A    between atoms: C_1  and  O_2
REMARK    2  A    between atoms: O_2  and  C_3
REMARK    3  A    between atoms: C_3  and  C_4
REMARK    4  A    between atoms: C_4  and  N_5
REMARK    5  A    between atoms: N_5  and  C_6
REMARK    6  A    between atoms: N_5  and  C_10
REMARK    7  A    between atoms: C_6  and  C_7
REMARK    8  A    between atoms: C_7  and  O_8
REMARK    9  A    between atoms: O_8  and  C_9
REMARK   10  A    between atoms: C_12  and  C_13
REMARK   11  A    between atoms: N_20  and  C_21
REMARK   12  A    between atoms: C_24  and  C_25
REMARK   13  A    between atoms: C_25  and  C_26
REMARK   14  A    between atoms: C_25  and  C_27
REMARK                            x       y       z     vdW  Elec       q    Type
REMARK                         _______ _______ _______ _____ _____    ______ ____
ROOT
ATOM      1  C   UNL     1       0.058  14.492  19.996  0.00  0.00    +0.000 A 
ATOM      2  N   UNL     1       1.386  14.729  20.108  0.00  0.00    +0.000 NA
ATOM      3  C   UNL     1       2.247  13.700  19.971  0.00  0.00    +0.000 A 
ATOM      4  C   UNL     1       3.713  13.998  20.048  0.00  0.00    +0.000 C 
ATOM      5  N   UNL     1       1.892  12.427  19.740  0.00  0.00    +0.000 NA
ATOM      6  C   UNL     1       0.571  12.214  19.631  0.00  0.00    +0.000 A 
ATOM      7  C   UNL     1      -0.384  13.207  19.734  0.00  0.00    +0.000 A 
ATOM      8  S   UNL     1      -1.997  12.577  19.374  0.00  0.00    +0.000 S 
ATOM      9  C   UNL     1      -1.351  10.964  19.064  0.00  0.00    +0.000 A 
ATOM     10  O   UNL     1      -2.062  10.037  18.707  0.00  0.00    +0.000 OA
ATOM     11  N   UNL     1       0.007  10.956  19.321  0.00  0.00    +0.000 N 
ENDROOT
BRANCH  11  12
ATOM     12  C   UNL     1       0.828   9.828  19.124  0.00  0.00    +0.000 A 
ATOM     13  C   UNL     1       1.334   9.590  17.841  0.00  0.00    +0.000 A 
ATOM     14  C   UNL     1       2.158   8.487  17.591  0.00  0.00    +0.000 A 
ATOM     15  C   UNL     1       2.471   7.582  18.612  0.00  0.00    +0.000 A 
ATOM     16  C   UNL     1       1.928   7.797  19.887  0.00  0.00    +0.000 A 
ATOM     17  C   UNL     1       1.114   8.911  20.146  0.00  0.00    +0.000 A 
ATOM     18 BR   UNL     1       0.315   9.009  21.873  0.00  0.00    +0.000 Br
BRANCH  15  19
ATOM     19  C   UNL     1       3.378   6.400  18.316  0.00  0.00    +0.000 C 
ATOM     20  C   UNL     1       4.588   6.823  17.479  0.00  0.00    +0.000 C 
ATOM     21  C   UNL     1       3.822   5.685  19.593  0.00  0.00    +0.000 C 
ENDBRANCH  15  19
ENDBRANCH  11  12
BRANCH   1  22
ATOM     22  N   UNL     1      -0.822  15.574  20.120  0.00  0.00    +0.000 N 
BRANCH  22  23
ATOM     23  C   UNL     1      -0.441  16.807  19.416  0.00  0.00    +0.000 C 
BRANCH  23  24
ATOM     24  C   UNL     1      -1.643  17.755  19.175  0.00  0.00    +0.000 C 
BRANCH  24  26
ATOM     25  C   UNL     1      -0.487  18.220  17.138  0.00  0.00    +0.000 C 
ATOM     26  O   UNL     1      -1.710  18.311  17.855  0.00  0.00    +0.000 OA
ENDBRANCH  24  26
ENDBRANCH  23  24
ENDBRANCH  22  23
BRANCH  22  27
ATOM     27  C   UNL     1      -1.621  15.605  21.363  0.00  0.00    +0.000 C 
BRANCH  27  28
ATOM     28  C   UNL     1      -0.970  16.197  22.623  0.00  0.00    +0.000 C 
BRANCH  28  29
ATOM     29  O   UNL     1      -0.391  15.181  23.449  0.00  0.00    +0.000 OA
ATOM     30  C   UNL     1      -1.378  14.545  24.253  0.00  0.00    +0.000 C 
ENDBRANCH  28  29
ENDBRANCH  27  28
ENDBRANCH  22  27
ENDBRANCH   1  22
TORSDOF 9
ENDMDL
MODEL 4
REMARK VINA RESULT:      -5.4      2.628      3.637
REMARK  Name = 
REMARK  14 active torsions:
REMARK  status: ('A' for Active; 'I' for Inactive)
REMARK    1  A    between atoms: C_1  and  O_2
REMARK    2  A    between atoms: O_2  and  C_3
REMARK    3  A    between atoms: C_3  and  C_4
REMARK    4  A    between atoms: C_4  and  N_5
REMARK    5  A    between atoms: N_5  and  C_6
REMARK    6  A    between atoms: N_5  and  C_10
REMARK    7  A    between atoms: C_6  and  C_7
REMARK    8  A    between atoms: C_7  and  O_8
REMARK    9  A    between atoms: O_8  and  C_9
REMARK   10  A    between atoms: C_12  and  C_13
REMARK   11  A    between atoms: N_20  and  C_21
REMARK   12  A    between atoms: C_24  and  C_25
REMARK   13  A    between atoms: C_25  and  C_26
REMARK   14  A    between atoms: C_25  and  C_27
REMARK                            x       y       z     vdW  Elec       q    Type
REMARK                         _______ _______ _______ _____ _____    ______ ____
ROOT
ATOM      1  C   UNL     1      -2.029  12.023  19.832  0.00  0.00    +0.000 A 
ATOM      2  N   UNL     1      -2.488  11.604  18.630  0.00  0.00    +0.000 NA
ATOM      3  C   UNL     1      -1.901  10.542  18.040  0.00  0.00    +0.000 A 
ATOM      4  C   UNL     1      -2.462  10.068  16.735  0.00  0.00    +0.000 C 
ATOM      5  N   UNL     1      -0.867   9.855  18.548  0.00  0.00    +0.000 NA
ATOM      6  C   UNL     1      -0.428  10.287  19.742  0.00  0.00    +0.000 A 
ATOM      7  C   UNL     1      -0.979  11.349  20.432  0.00  0.00    +0.000 A 
ATOM      8  S   UNL     1      -0.247  11.516  22.033  0.00  0.00    +0.000 S 
ATOM      9  C   UNL     1       0.794  10.118  21.756  0.00  0.00    +0.000 A 
ATOM     10  O   UNL     1       1.562   9.701  22.610  0.00  0.00    +0.000 OA
ATOM     11  N   UNL     1       0.604   9.652  20.469  0.00  0.00    +0.000 N 
ENDROOT
BRANCH  11  12
ATOM     12  C   UNL     1       1.254   8.513  19.951  0.00  0.00    +0.000 A 
ATOM     13  C   UNL     1       1.176   7.317  20.674  0.00  0.00    +0.000 A 
ATOM     14  C   UNL     1       1.799   6.156  20.205  0.00  0.00    +0.000 A 
ATOM     15  C   UNL     1       2.536   6.172  19.015  0.00  0.00    +0.000 A 
ATOM     16  C   UNL     1       2.650   7.380  18.313  0.00  0.00    +0.000 A 
ATOM     17  C   UNL     1       2.014   8.544  18.773  0.00  0.00    +0.000 A 
ATOM     18 BR   UNL     1       2.370  10.154  17.817  0.00  0.00    +0.000 Br
BRANCH  15  19
ATOM     19  C   UNL     1       3.192   4.893  18.521  0.00  0.00    +0.000 C 
ATOM     20  C   UNL     1       3.851   4.125  19.670  0.00  0.00    +0.000 C 
ATOM     21  C   UNL     1       2.207   4.001  17.762  0.00  0.00    +0.000 C 
ENDBRANCH  15  19
ENDBRANCH  11  12
BRANCH   1  22
ATOM     22  N   UNL     1      -2.662  13.113  20.441  0.00  0.00    +0.000 N 
BRANCH  22  23
ATOM     23  C   UNL     1      -1.820  14.287  20.713  0.00  0.00    +0.000 C 
BRANCH  23  24
ATOM     24  C   UNL     1      -0.815  14.579  19.571  0.00  0.00    +0.000 C 
BRANCH  24  26
ATOM     25  C   UNL     1       1.383  13.955  18.877  0.00  0.00    +0.000 C 
ATOM     26  O   UNL     1       0.564  14.430  19.936  0.00  0.00    +0.000 OA
ENDBRANCH  24  26
ENDBRANCH  23  24
ENDBRANCH  22  23
BRANCH  22  27
ATOM     27  C   UNL     1      -3.827  12.780  21.288  0.00  0.00    +0.000 C 
BRANCH  27  28
ATOM     28  C   UNL     1      -3.639  12.809  22.813  0.00  0.00    +0.000 C 
BRANCH  28  29
ATOM     29  O   UNL     1      -4.799  12.329  23.501  0.00  0.00    +0.000 OA
ATOM     30  C   UNL     1      -4.622  12.383  24.911  0.00  0.00    +0.000 C 
ENDBRANCH  28  29
ENDBRANCH  27  28
ENDBRANCH  22  27
ENDBRANCH   1  22
TORSDOF 9
ENDMDL
MODEL 5
REMARK VINA RESULT:      -5.4      2.740      4.316
REMARK  Name = 
REMARK  14 active torsions:
REMARK  status: ('A' for Active; 'I' for Inactive)
REMARK    1  A    between atoms: C_1  and  O_2
REMARK    2  A    between atoms: O_2  and  C_3
REMARK    3  A    between atoms: C_3  and  C_4
REMARK    4  A    between atoms: C_4  and  N_5
REMARK    5  A    between atoms: N_5  and  C_6
REMARK    6  A    between atoms: N_5  and  C_10
REMARK    7  A    between atoms: C_6  and  C_7
REMARK    8  A    between atoms: C_7  and  O_8
REMARK    9  A    between atoms: O_8  and  C_9
REMARK   10  A    between atoms: C_12  and  C_13
REMARK   11  A    between atoms: N_20  and  C_21
REMARK   12  A    between atoms: C_24  and  C_25
REMARK   13  A    between atoms: C_25  and  C_26
REMARK   14  A    between atoms: C_25  and  C_27
REMARK                            x       y       z     vdW  Elec       q    Type
REMARK                         _______ _______ _______ _____ _____    ______ ____
ROOT
ATOM      1  C   UNL     1      -2.351  12.063  20.073  0.00  0.00    +0.000 A 
ATOM      2  N   UNL     1      -2.792  11.698  18.846  0.00  0.00    +0.000 NA
ATOM      3  C   UNL     1      -2.123  10.741  18.169  0.00  0.00    +0.000 A 
ATOM      4  C   UNL     1      -2.663  10.320  16.837  0.00  0.00    +0.000 C 
ATOM      5  N   UNL     1      -1.024  10.113  18.612  0.00  0.00    +0.000 NA
ATOM      6  C   UNL     1      -0.605  10.489  19.831  0.00  0.00    +0.000 A 
ATOM      7  C   UNL     1      -1.236  11.442  20.608  0.00  0.00    +0.000 A 
ATOM      8  S   UNL     1      -0.494  11.550  22.209  0.00  0.00    +0.000 S 
ATOM      9  C   UNL     1       0.662  10.276  21.814  0.00  0.00    +0.000 A 
ATOM     10  O   UNL     1       1.478   9.865  22.624  0.00  0.00    +0.000 OA
ATOM     11  N   UNL     1       0.491   9.895  20.496  0.00  0.00    +0.000 N 
ENDROOT
BRANCH  11  12
ATOM     12  C   UNL     1       1.231   8.863  19.885  0.00  0.00    +0.000 A 
ATOM     13  C   UNL     1       1.259   7.608  20.505  0.00  0.00    +0.000 A 
ATOM     14  C   UNL     1       1.973   6.547  19.939  0.00  0.00    +0.000 A 
ATOM     15  C   UNL     1       2.698   6.724  18.755  0.00  0.00    +0.000 A 
ATOM     16  C   UNL     1       2.705   7.993  18.157  0.00  0.00    +0.000 A 
ATOM     17  C   UNL     1       1.977   9.056  18.713  0.00  0.00    +0.000 A 
ATOM     18 BR   UNL     1       2.190  10.764  17.895  0.00  0.00    +0.000 Br
BRANCH  15  19
ATOM     19  C   UNL     1       3.455   5.551  18.155  0.00  0.00    +0.000 C 
ATOM     20  C   UNL     1       4.552   5.055  19.100  0.00  0.00    +0.000 C 
ATOM     21  C   UNL     1       2.519   4.408  17.758  0.00  0.00    +0.000 C 
ENDBRANCH  15  19
ENDBRANCH  11  12
BRANCH   1  22
ATOM     22  N   UNL     1      -3.069  13.042  20.772  0.00  0.00    +0.000 N 
BRANCH  22  23
ATOM     23  C   UNL     1      -4.503  12.786  20.963  0.00  0.00    +0.000 C 
BRANCH  23  24
ATOM     24  C   UNL     1      -5.037  13.345  22.306  0.00  0.00    +0.000 C 
BRANCH  24  26
ATOM     25  C   UNL     1      -3.962  12.478  24.253  0.00  0.00    +0.000 C 
ATOM     26  O   UNL     1      -5.076  12.392  23.377  0.00  0.00    +0.000 OA
ENDBRANCH  24  26
ENDBRANCH  23  24
ENDBRANCH  22  23
BRANCH  22  27
ATOM     27  C   UNL     1      -2.531  14.415  20.673  0.00  0.00    +0.000 C 
BRANCH  27  28
ATOM     28  C   UNL     1      -1.807  14.994  21.899  0.00  0.00    +0.000 C 
BRANCH  28  29
ATOM     29  O   UNL     1      -1.793  16.426  21.881  0.00  0.00    +0.000 OA
ATOM     30  C   UNL     1      -2.398  16.933  20.698  0.00  0.00    +0.000 C 
ENDBRANCH  28  29
ENDBRANCH  27  28
ENDBRANCH  22  27
ENDBRANCH   1  22
TORSDOF 9
ENDMDL
MODEL 6
REMARK VINA RESULT:      -5.4      1.112      2.694
REMARK  Name = 
REMARK  14 active torsions:
REMARK  status: ('A' for Active; 'I' for Inactive)
REMARK    1  A    between atoms: C_1  and  O_2
REMARK    2  A    between atoms: O_2  and  C_3
REMARK    3  A    between atoms: C_3  and  C_4
REMARK    4  A    between atoms: C_4  and  N_5
REMARK    5  A    between atoms: N_5  and  C_6
REMARK    6  A    between atoms: N_5  and  C_10
REMARK    7  A    between atoms: C_6  and  C_7
REMARK    8  A    between atoms: C_7  and  O_8
REMARK    9  A    between atoms: O_8  and  C_9
REMARK   10  A    between atoms: C_12  and  C_13
REMARK   11  A    between atoms: N_20  and  C_21
REMARK   12  A    between atoms: C_24  and  C_25
REMARK   13  A    between atoms: C_25  and  C_26
REMARK   14  A    between atoms: C_25  and  C_27
REMARK                            x       y       z     vdW  Elec       q    Type
REMARK                         _______ _______ _______ _____ _____    ______ ____
ROOT
ATOM      1  C   UNL     1      -0.017  14.523  20.714  0.00  0.00    +0.000 A 
ATOM      2  N   UNL     1       1.296  14.701  20.990  0.00  0.00    +0.000 NA
ATOM      3  C   UNL     1       2.146  13.668  20.815  0.00  0.00    +0.000 A 
ATOM      4  C   UNL     1       3.601  13.906  21.077  0.00  0.00    +0.000 C 
ATOM      5  N   UNL     1       1.792  12.445  20.393  0.00  0.00    +0.000 NA
ATOM      6  C   UNL     1       0.485  12.291  20.124  0.00  0.00    +0.000 A 
ATOM      7  C   UNL     1      -0.455  13.295  20.251  0.00  0.00    +0.000 A 
ATOM      8  S   UNL     1      -2.033  12.766  19.652  0.00  0.00    +0.000 S 
ATOM      9  C   UNL     1      -1.391  11.182  19.213  0.00  0.00    +0.000 A 
ATOM     10  O   UNL     1      -2.079  10.330  18.673  0.00  0.00    +0.000 OA
ATOM     11  N   UNL     1      -0.068  11.099  19.604  0.00  0.00    +0.000 N 
ENDROOT
BRANCH  11  12
ATOM     12  C   UNL     1       0.746   9.976  19.354  0.00  0.00    +0.000 A 
ATOM     13  C   UNL     1       1.267   9.806  18.065  0.00  0.00    +0.000 A 
ATOM     14  C   UNL     1       2.084   8.712  17.763  0.00  0.00    +0.000 A 
ATOM     15  C   UNL     1       2.377   7.749  18.735  0.00  0.00    +0.000 A 
ATOM     16  C   UNL     1       1.820   7.896  20.014  0.00  0.00    +0.000 A 
ATOM     17  C   UNL     1       1.012   9.000  20.326  0.00  0.00    +0.000 A 
ATOM     18 BR   UNL     1       0.192   9.008  22.046  0.00  0.00    +0.000 Br
BRANCH  15  19
ATOM     19  C   UNL     1       3.278   6.577  18.384  0.00  0.00    +0.000 C 
ATOM     20  C   UNL     1       2.461   5.327  18.048  0.00  0.00    +0.000 C 
ATOM     21  C   UNL     1       4.245   6.918  17.248  0.00  0.00    +0.000 C 
ENDBRANCH  15  19
ENDBRANCH  11  12
BRANCH   1  22
ATOM     22  N   UNL     1      -0.883  15.611  20.881  0.00  0.00    +0.000 N 
BRANCH  22  23
ATOM     23  C   UNL     1      -1.802  15.543  22.026  0.00  0.00    +0.000 C 
BRANCH  23  24
ATOM     24  C   UNL     1      -3.271  15.842  21.635  0.00  0.00    +0.000 C 
BRANCH  24  26
ATOM     25  C   UNL     1      -5.209  14.717  20.811  0.00  0.00    +0.000 C 
ATOM     26  O   UNL     1      -4.165  14.730  21.774  0.00  0.00    +0.000 OA
ENDBRANCH  24  26
ENDBRANCH  23  24
ENDBRANCH  22  23
BRANCH  22  27
ATOM     27  C   UNL     1      -1.239  16.335  19.642  0.00  0.00    +0.000 C 
BRANCH  27  28
ATOM     28  C   UNL     1      -0.746  17.783  19.490  0.00  0.00    +0.000 C 
BRANCH  28  29
ATOM     29  O   UNL     1       0.366  18.060  20.348  0.00  0.00    +0.000 OA
ATOM     30  C   UNL     1       1.592  18.044  19.626  0.00  0.00    +0.000 C 
ENDBRANCH  28  29
ENDBRANCH  27  28
ENDBRANCH  22  27
ENDBRANCH   1  22
TORSDOF 9
ENDMDL
MODEL 7
REMARK VINA RESULT:      -5.3      2.949      4.372
REMARK  Name = 
REMARK  14 active torsions:
REMARK  status: ('A' for Active; 'I' for Inactive)
REMARK    1  A    between atoms: C_1  and  O_2
REMARK    2  A    between atoms: O_2  and  C_3
REMARK    3  A    between atoms: C_3  and  C_4
REMARK    4  A    between atoms: C_4  and  N_5
REMARK    5  A    between atoms: N_5  and  C_6
REMARK    6  A    between atoms: N_5  and  C_10
REMARK    7  A    between atoms: C_6  and  C_7
REMARK    8  A    between atoms: C_7  and  O_8
REMARK    9  A    between atoms: O_8  and  C_9
REMARK   10  A    between atoms: C_12  and  C_13
REMARK   11  A    between atoms: N_20  and  C_21
REMARK   12  A    between atoms: C_24  and  C_25
REMARK   13  A    between atoms: C_25  and  C_26
REMARK   14  A    between atoms: C_25  and  C_27
REMARK                            x       y       z     vdW  Elec       q    Type
REMARK                         _______ _______ _______ _____ _____    ______ ____
ROOT
ATOM      1  C   UNL     1      -2.418  12.149  19.907  0.00  0.00    +0.000 A 
ATOM      2  N   UNL     1      -2.850  11.818  18.668  0.00  0.00    +0.000 NA
ATOM      3  C   UNL     1      -2.153  10.909  17.955  0.00  0.00    +0.000 A 
ATOM      4  C   UNL     1      -2.681  10.521  16.609  0.00  0.00    +0.000 C 
ATOM      5  N   UNL     1      -1.033  10.299  18.373  0.00  0.00    +0.000 NA
ATOM      6  C   UNL     1      -0.624  10.642  19.605  0.00  0.00    +0.000 A 
ATOM      7  C   UNL     1      -1.283  11.545  20.417  0.00  0.00    +0.000 A 
ATOM      8  S   UNL     1      -0.541  11.616  22.021  0.00  0.00    +0.000 S 
ATOM      9  C   UNL     1       0.653  10.396  21.577  0.00  0.00    +0.000 A 
ATOM     10  O   UNL     1       1.483   9.980  22.371  0.00  0.00    +0.000 OA
ATOM     11  N   UNL     1       0.492  10.059  20.246  0.00  0.00    +0.000 N 
ENDROOT
BRANCH  11  12
ATOM     12  C   UNL     1       1.263   9.074  19.596  0.00  0.00    +0.000 A 
ATOM     13  C   UNL     1       1.281   7.782  20.134  0.00  0.00    +0.000 A 
ATOM     14  C   UNL     1       2.025   6.766  19.526  0.00  0.00    +0.000 A 
ATOM     15  C   UNL     1       2.790   7.025  18.383  0.00  0.00    +0.000 A 
ATOM     16  C   UNL     1       2.806   8.329  17.869  0.00  0.00    +0.000 A 
ATOM     17  C   UNL     1       2.048   9.349  18.466  0.00  0.00    +0.000 A 
ATOM     18 BR   UNL     1       2.273  11.108  17.770  0.00  0.00    +0.000 Br
BRANCH  15  19
ATOM     19  C   UNL     1       3.578   5.899  17.735  0.00  0.00    +0.000 C 
ATOM     20  C   UNL     1       5.086   6.134  17.858  0.00  0.00    +0.000 C 
ATOM     21  C   UNL     1       3.192   4.530  18.299  0.00  0.00    +0.000 C 
ENDBRANCH  15  19
ENDBRANCH  11  12
BRANCH   1  22
ATOM     22  N   UNL     1      -3.165  13.079  20.643  0.00  0.00    +0.000 N 
BRANCH  22  23
ATOM     23  C   UNL     1      -4.626  12.997  20.504  0.00  0.00    +0.000 C 
BRANCH  23  24
ATOM     24  C   UNL     1      -5.326  12.532  21.805  0.00  0.00    +0.000 C 
BRANCH  24  26
ATOM     25  C   UNL     1      -7.460  12.403  20.742  0.00  0.00    +0.000 C 
ATOM     26  O   UNL     1      -6.522  11.769  21.601  0.00  0.00    +0.000 OA
ENDBRANCH  24  26
ENDBRANCH  23  24
ENDBRANCH  22  23
BRANCH  22  27
ATOM     27  C   UNL     1      -2.482  14.358  20.929  0.00  0.00    +0.000 C 
BRANCH  27  28
ATOM     28  C   UNL     1      -2.949  15.164  22.152  0.00  0.00    +0.000 C 
BRANCH  28  29
ATOM     29  O   UNL     1      -2.706  14.462  23.376  0.00  0.00    +0.000 OA
ATOM     30  C   UNL     1      -1.403  14.734  23.877  0.00  0.00    +0.000 C 
ENDBRANCH  28  29
ENDBRANCH  27  28
ENDBRANCH  22  27
ENDBRANCH   1  22
TORSDOF 9
ENDMDL
MODEL 8
REMARK VINA RESULT:      -5.3      1.432      1.705
REMARK  Name = 
REMARK  14 active torsions:
REMARK  status: ('A' for Active; 'I' for Inactive)
REMARK    1  A    between atoms: C_1  and  O_2
REMARK    2  A    between atoms: O_2  and  C_3
REMARK    3  A    between atoms: C_3  and  C_4
REMARK    4  A    between atoms: C_4  and  N_5
REMARK    5  A    between atoms: N_5  and  C_6
REMARK    6  A    between atoms: N_5  and  C_10
REMARK    7  A    between atoms: C_6  and  C_7
REMARK    8  A    between atoms: C_7  and  O_8
REMARK    9  A    between atoms: O_8  and  C_9
REMARK   10  A    between atoms: C_12  and  C_13
REMARK   11  A    between atoms: N_20  and  C_21
REMARK   12  A    between atoms: C_24  and  C_25
REMARK   13  A    between atoms: C_25  and  C_26
REMARK   14  A    between atoms: C_25  and  C_27
REMARK                            x       y       z     vdW  Elec       q    Type
REMARK                         _______ _______ _______ _____ _____    ______ ____
ROOT
ATOM      1  C   UNL     1       0.649  15.170  20.976  0.00  0.00    +0.000 A 
ATOM      2  N   UNL     1       1.967  15.143  21.284  0.00  0.00    +0.000 NA
ATOM      3  C   UNL     1       2.622  13.964  21.248  0.00  0.00    +0.000 A 
ATOM      4  C   UNL     1       4.091  13.971  21.542  0.00  0.00    +0.000 C 
ATOM      5  N   UNL     1       2.064  12.785  20.938  0.00  0.00    +0.000 NA
ATOM      6  C   UNL     1       0.757  12.835  20.635  0.00  0.00    +0.000 A 
ATOM      7  C   UNL     1       0.008  13.996  20.622  0.00  0.00    +0.000 A 
ATOM      8  S   UNL     1      -1.626  13.692  20.019  0.00  0.00    +0.000 S 
ATOM      9  C   UNL     1      -1.268  11.982  19.767  0.00  0.00    +0.000 A 
ATOM     10  O   UNL     1      -2.087  11.211  19.290  0.00  0.00    +0.000 OA
ATOM     11  N   UNL     1       0.010  11.710  20.217  0.00  0.00    +0.000 N 
ENDROOT
BRANCH  11  12
ATOM     12  C   UNL     1       0.615  10.441  20.113  0.00  0.00    +0.000 A 
ATOM     13  C   UNL     1       1.170  10.068  18.884  0.00  0.00    +0.000 A 
ATOM     14  C   UNL     1       1.787   8.822  18.727  0.00  0.00    +0.000 A 
ATOM     15  C   UNL     1       1.839   7.911  19.789  0.00  0.00    +0.000 A 
ATOM     16  C   UNL     1       1.245   8.269  21.008  0.00  0.00    +0.000 A 
ATOM     17  C   UNL     1       0.639   9.524  21.174  0.00  0.00    +0.000 A 
ATOM     18 BR   UNL     1      -0.264   9.831  22.824  0.00  0.00    +0.000 Br
BRANCH  15  19
ATOM     19  C   UNL     1       2.527   6.570  19.595  0.00  0.00    +0.000 C 
ATOM     20  C   UNL     1       1.900   5.491  20.482  0.00  0.00    +0.000 C 
ATOM     21  C   UNL     1       2.533   6.136  18.129  0.00  0.00    +0.000 C 
ENDBRANCH  15  19
ENDBRANCH  11  12
BRANCH   1  22
ATOM     22  N   UNL     1      -0.012  16.405  20.997  0.00  0.00    +0.000 N 
BRANCH  22  23
ATOM     23  C   UNL     1       0.347  17.354  19.934  0.00  0.00    +0.000 C 
BRANCH  23  24
ATOM     24  C   UNL     1      -0.817  18.307  19.564  0.00  0.00    +0.000 C 
BRANCH  24  26
ATOM     25  C   UNL     1      -3.157  18.003  19.202  0.00  0.00    +0.000 C 
ATOM     26  O   UNL     1      -1.841  17.713  18.755  0.00  0.00    +0.000 OA
ENDBRANCH  24  26
ENDBRANCH  23  24
ENDBRANCH  22  23
BRANCH  22  27
ATOM     27  C   UNL     1      -0.460  16.863  22.329  0.00  0.00    +0.000 C 
BRANCH  27  28
ATOM     28  C   UNL     1      -1.842  16.404  22.820  0.00  0.00    +0.000 C 
BRANCH  28  29
ATOM     29  O   UNL     1      -1.772  15.155  23.516  0.00  0.00    +0.000 OA
ATOM     30  C   UNL     1      -1.468  15.348  24.892  0.00  0.00    +0.000 C 
ENDBRANCH  28  29
ENDBRANCH  27  28
ENDBRANCH  22  27
ENDBRANCH   1  22
TORSDOF 9
ENDMDL
MODEL 9
REMARK VINA RESULT:      -5.3      0.780      2.907
REMARK  Name = 
REMARK  14 active torsions:
REMARK  status: ('A' for Active; 'I' for Inactive)
REMARK    1  A    between atoms: C_1  and  O_2
REMARK    2  A    between atoms: O_2  and  C_3
REMARK    3  A    between atoms: C_3  and  C_4
REMARK    4  A    between atoms: C_4  and  N_5
REMARK    5  A    between atoms: N_5  and  C_6
REMARK    6  A    between atoms: N_5  and  C_10
REMARK    7  A    between atoms: C_6  and  C_7
REMARK    8  A    between atoms: C_7  and  O_8
REMARK    9  A    between atoms: O_8  and  C_9
REMARK   10  A    between atoms: C_12  and  C_13
REMARK   11  A    between atoms: N_20  and  C_21
REMARK   12  A    between atoms: C_24  and  C_25
REMARK   13  A    between atoms: C_25  and  C_26
REMARK   14  A    between atoms: C_25  and  C_27
REMARK                            x       y       z     vdW  Elec       q    Type
REMARK                         _______ _______ _______ _____ _____    ______ ____
ROOT
ATOM      1  C   UNL     1      -0.068  14.529  20.708  0.00  0.00    +0.000 A 
ATOM      2  N   UNL     1       1.241  14.711  21.001  0.00  0.00    +0.000 NA
ATOM      3  C   UNL     1       2.095  13.678  20.840  0.00  0.00    +0.000 A 
ATOM      4  C   UNL     1       3.546  13.920  21.121  0.00  0.00    +0.000 C 
ATOM      5  N   UNL     1       1.748  12.453  20.418  0.00  0.00    +0.000 NA
ATOM      6  C   UNL     1       0.445  12.296  20.133  0.00  0.00    +0.000 A 
ATOM      7  C   UNL     1      -0.498  13.299  20.244  0.00  0.00    +0.000 A 
ATOM      8  S   UNL     1      -2.068  12.766  19.627  0.00  0.00    +0.000 S 
ATOM      9  C   UNL     1      -1.418  11.182  19.202  0.00  0.00    +0.000 A 
ATOM     10  O   UNL     1      -2.097  10.326  18.656  0.00  0.00    +0.000 OA
ATOM     11  N   UNL     1      -0.099  11.102  19.610  0.00  0.00    +0.000 N 
ENDROOT
BRANCH  11  12
ATOM     12  C   UNL     1       0.719   9.979  19.375  0.00  0.00    +0.000 A 
ATOM     13  C   UNL     1       1.240   9.794  18.088  0.00  0.00    +0.000 A 
ATOM     14  C   UNL     1       2.062   8.700  17.801  0.00  0.00    +0.000 A 
ATOM     15  C   UNL     1       2.360   7.751  18.785  0.00  0.00    +0.000 A 
ATOM     16  C   UNL     1       1.803   7.913  20.062  0.00  0.00    +0.000 A 
ATOM     17  C   UNL     1       0.991   9.018  20.360  0.00  0.00    +0.000 A 
ATOM     18 BR   UNL     1       0.172   9.046  22.080  0.00  0.00    +0.000 Br
BRANCH  15  19
ATOM     19  C   UNL     1       3.266   6.578  18.450  0.00  0.00    +0.000 C 
ATOM     20  C   UNL     1       2.453   5.330  18.095  0.00  0.00    +0.000 C 
ATOM     21  C   UNL     1       4.255   6.920  17.333  0.00  0.00    +0.000 C 
ENDBRANCH  15  19
ENDBRANCH  11  12
BRANCH   1  22
ATOM     22  N   UNL     1      -0.938  15.617  20.860  0.00  0.00    +0.000 N 
BRANCH  22  23
ATOM     23  C   UNL     1      -1.983  15.477  21.884  0.00  0.00    +0.000 C 
BRANCH  23  24
ATOM     24  C   UNL     1      -1.513  15.944  23.285  0.00  0.00    +0.000 C 
BRANCH  24  26
ATOM     25  C   UNL     1      -2.348  17.514  24.878  0.00  0.00    +0.000 C 
ATOM     26  O   UNL     1      -2.573  16.295  24.185  0.00  0.00    +0.000 OA
ENDBRANCH  24  26
ENDBRANCH  23  24
ENDBRANCH  22  23
BRANCH  22  27
ATOM     27  C   UNL     1      -1.142  16.441  19.650  0.00  0.00    +0.000 C 
BRANCH  27  28
ATOM     28  C   UNL     1      -0.628  17.889  19.671  0.00  0.00    +0.000 C 
BRANCH  28  29
ATOM     29  O   UNL     1      -0.083  18.279  18.405  0.00  0.00    +0.000 OA
ATOM     30  C   UNL     1       1.138  17.599  18.139  0.00  0.00    +0.000 C 
ENDBRANCH  28  29
ENDBRANCH  27  28
ENDBRANCH  22  27
ENDBRANCH   1  22
TORSDOF 9
ENDMDL
