MODEL 1
REMARK VINA RESULT:      -7.3      0.000      0.000
REMARK  Name = 
REMARK  4 active torsions:
REMARK  status: ('A' for Active; 'I' for Inactive)
REMARK    1  A    between atoms: C_1  and  C_2
REMARK    2  A    between atoms: C_2  and  C_3
REMARK    3  A    between atoms: C_2  and  N_4
REMARK    4  A    between atoms: C_10  and  C_11
REMARK                            x       y       z     vdW  Elec       q    Type
REMARK                         _______ _______ _______ _____ _____    ______ ____
ROOT
ATOM      1  N   UNL     1       6.170   4.127  14.427  0.00  0.00    +0.000 N 
ATOM      2  C   UNL     1       6.609   4.378  15.704  0.00  0.00    +0.000 C 
ATOM      3  O   UNL     1       7.801   4.486  15.971  0.00  0.00    +0.000 OA
ATOM      4  N   UNL     1       5.604   4.448  16.666  0.00  0.00    +0.000 N 
ATOM      5  C   UNL     1       5.976   4.884  18.012  0.00  0.00    +0.000 C 
ATOM      6  C   UNL     1       5.216   4.129  19.101  0.00  0.00    +0.000 C 
ATOM      7  C   UNL     1       3.702   4.092  18.872  0.00  0.00    +0.000 C 
ATOM      8  C   UNL     1       3.395   3.637  17.444  0.00  0.00    +0.000 C 
ATOM      9  C   UNL     1       4.169   4.403  16.381  0.00  0.00    +0.000 C 
ATOM     10  H   UNL     1       5.254   4.466  14.194  0.00  0.00    +0.000 HD
ENDROOT
BRANCH   7  11
ATOM     11  C   UNL     1       3.029   5.400  19.223  0.00  0.00    +0.000 A 
ATOM     12  N   UNL     1       2.937   6.445  18.427  0.00  0.00    +0.000 NA
ATOM     13  C   UNL     1       2.210   7.454  19.041  0.00  0.00    +0.000 A 
ATOM     14  C   UNL     1       1.899   8.711  18.482  0.00  0.00    +0.000 A 
ATOM     15  C   UNL     1       1.148   9.635  19.221  0.00  0.00    +0.000 A 
ATOM     16  C   UNL     1       0.709   9.325  20.500  0.00  0.00    +0.000 A 
ATOM     17  C   UNL     1       1.003   8.085  21.078  0.00  0.00    +0.000 A 
ATOM     18  C   UNL     1       1.755   7.165  20.330  0.00  0.00    +0.000 A 
ATOM     19  S   UNL     1       2.273   5.582  20.760  0.00  0.00    +0.000 S 
ENDBRANCH   7  11
BRANCH   1  21
ATOM     20  C   UNL     1       6.370   3.279  12.153  0.00  0.00    +0.000 C 
ATOM     21  C   UNL     1       7.082   3.987  13.301  0.00  0.00    +0.000 C 
ATOM     22  C   UNL     1       7.587   5.351  12.836  0.00  0.00    +0.000 C 
ENDBRANCH   1  21
TORSDOF 2
ENDMDL
MODEL 2
REMARK VINA RESULT:      -6.8      0.921      1.390
REMARK  Name = 
REMARK  4 active torsions:
REMARK  status: ('A' for Active; 'I' for Inactive)
REMARK    1  A    between atoms: C_1  and  C_2
REMARK    2  A    between atoms: C_2  and  C_3
REMARK    3  A    between atoms: C_2  and  N_4
REMARK    4  A    between atoms: C_10  and  C_11
REMARK                            x       y       z     vdW  Elec       q    Type
REMARK                         _______ _______ _______ _____ _____    ______ ____
ROOT
ATOM      1  N   UNL     1       5.936   4.071  14.542  0.00  0.00    +0.000 N 
ATOM      2  C   UNL     1       6.422   4.555  15.733  0.00  0.00    +0.000 C 
ATOM      3  O   UNL     1       7.612   4.806  15.893  0.00  0.00    +0.000 OA
ATOM      4  N   UNL     1       5.473   4.686  16.743  0.00  0.00    +0.000 N 
ATOM      5  C   UNL     1       5.879   5.357  17.978  0.00  0.00    +0.000 C 
ATOM      6  C   UNL     1       5.260   4.717  19.220  0.00  0.00    +0.000 C 
ATOM      7  C   UNL     1       3.747   4.514  19.109  0.00  0.00    +0.000 C 
ATOM      8  C   UNL     1       3.402   3.817  17.792  0.00  0.00    +0.000 C 
ATOM      9  C   UNL     1       4.035   4.473  16.572  0.00  0.00    +0.000 C 
ATOM     10  H   UNL     1       4.979   4.289  14.328  0.00  0.00    +0.000 HD
ENDROOT
BRANCH   7  11
ATOM     11  C   UNL     1       2.972   5.798  19.308  0.00  0.00    +0.000 A 
ATOM     12  N   UNL     1       2.364   6.153  20.420  0.00  0.00    +0.000 NA
ATOM     13  C   UNL     1       1.798   7.412  20.277  0.00  0.00    +0.000 A 
ATOM     14  C   UNL     1       1.081   8.117  21.266  0.00  0.00    +0.000 A 
ATOM     15  C   UNL     1       0.568   9.389  20.980  0.00  0.00    +0.000 A 
ATOM     16  C   UNL     1       0.757   9.961  19.731  0.00  0.00    +0.000 A 
ATOM     17  C   UNL     1       1.465   9.284  18.732  0.00  0.00    +0.000 A 
ATOM     18  C   UNL     1       1.976   8.010  19.028  0.00  0.00    +0.000 A 
ATOM     19  S   UNL     1       2.875   6.940  18.023  0.00  0.00    +0.000 S 
ENDBRANCH   7  11
BRANCH   1  21
ATOM     20  C   UNL     1       5.958   3.257  12.247  0.00  0.00    +0.000 C 
ATOM     21  C   UNL     1       6.790   3.838  13.387  0.00  0.00    +0.000 C 
ATOM     22  C   UNL     1       7.460   5.132  12.933  0.00  0.00    +0.000 C 
ENDBRANCH   1  21
TORSDOF 2
ENDMDL
MODEL 3
REMARK VINA RESULT:      -6.8      1.196      1.593
REMARK  Name = 
REMARK  4 active torsions:
REMARK  status: ('A' for Active; 'I' for Inactive)
REMARK    1  A    between atoms: C_1  and  C_2
REMARK    2  A    between atoms: C_2  and  C_3
REMARK    3  A    between atoms: C_2  and  N_4
REMARK    4  A    between atoms: C_10  and  C_11
REMARK                            x       y       z     vdW  Elec       q    Type
REMARK                         _______ _______ _______ _____ _____    ______ ____
ROOT
ATOM      1  N   UNL     1       5.089   3.645  13.268  0.00  0.00    +0.000 N 
ATOM      2  C   UNL     1       5.882   4.384  14.112  0.00  0.00    +0.000 C 
ATOM      3  O   UNL     1       6.963   4.841  13.753  0.00  0.00    +0.000 OA
ATOM      4  N   UNL     1       5.387   4.525  15.406  0.00  0.00    +0.000 N 
ATOM      5  C   UNL     1       6.086   5.440  16.309  0.00  0.00    +0.000 C 
ATOM      6  C   UNL     1       6.137   4.919  17.744  0.00  0.00    +0.000 C 
ATOM      7  C   UNL     1       4.774   4.466  18.275  0.00  0.00    +0.000 C 
ATOM      8  C   UNL     1       4.104   3.522  17.275  0.00  0.00    +0.000 C 
ATOM      9  C   UNL     1       4.072   4.065  15.853  0.00  0.00    +0.000 C 
ATOM     10  H   UNL     1       4.101   3.674  13.443  0.00  0.00    +0.000 HD
ENDROOT
BRANCH   7  11
ATOM     11  C   UNL     1       3.887   5.628  18.663  0.00  0.00    +0.000 A 
ATOM     12  N   UNL     1       3.661   6.692  17.922  0.00  0.00    +0.000 NA
ATOM     13  C   UNL     1       2.757   7.534  18.554  0.00  0.00    +0.000 A 
ATOM     14  C   UNL     1       2.272   8.758  18.050  0.00  0.00    +0.000 A 
ATOM     15  C   UNL     1       1.353   9.505  18.800  0.00  0.00    +0.000 A 
ATOM     16  C   UNL     1       0.917   9.051  20.035  0.00  0.00    +0.000 A 
ATOM     17  C   UNL     1       1.382   7.839  20.559  0.00  0.00    +0.000 A 
ATOM     18  C   UNL     1       2.302   7.097  19.800  0.00  0.00    +0.000 A 
ATOM     19  S   UNL     1       3.049   5.592  20.168  0.00  0.00    +0.000 S 
ENDBRANCH   7  11
BRANCH   1  21
ATOM     20  C   UNL     1       6.241   2.056  11.827  0.00  0.00    +0.000 C 
ATOM     21  C   UNL     1       5.464   3.367  11.889  0.00  0.00    +0.000 C 
ATOM     22  C   UNL     1       4.230   3.282  10.994  0.00  0.00    +0.000 C 
ENDBRANCH   1  21
TORSDOF 2
ENDMDL
MODEL 4
REMARK VINA RESULT:      -6.7      2.405      7.559
REMARK  Name = 
REMARK  4 active torsions:
REMARK  status: ('A' for Active; 'I' for Inactive)
REMARK    1  A    between atoms: C_1  and  C_2
REMARK    2  A    between atoms: C_2  and  C_3
REMARK    3  A    between atoms: C_2  and  N_4
REMARK    4  A    between atoms: C_10  and  C_11
REMARK                            x       y       z     vdW  Elec       q    Type
REMARK                         _______ _______ _______ _____ _____    ______ ____
ROOT
ATOM      1  N   UNL     1       2.374   7.813  19.246  0.00  0.00    +0.000 N 
ATOM      2  C   UNL     1       2.688   6.476  19.252  0.00  0.00    +0.000 C 
ATOM      3  O   UNL     1       1.997   5.650  19.840  0.00  0.00    +0.000 OA
ATOM      4  N   UNL     1       3.866   6.148  18.587  0.00  0.00    +0.000 N 
ATOM      5  C   UNL     1       4.174   4.730  18.401  0.00  0.00    +0.000 C 
ATOM      6  C   UNL     1       5.665   4.431  18.547  0.00  0.00    +0.000 C 
ATOM      7  C   UNL     1       6.555   5.359  17.716  0.00  0.00    +0.000 C 
ATOM      8  C   UNL     1       6.168   6.819  17.958  0.00  0.00    +0.000 C 
ATOM      9  C   UNL     1       4.677   7.086  17.809  0.00  0.00    +0.000 C 
ATOM     10  H   UNL     1       2.683   8.343  18.450  0.00  0.00    +0.000 HD
ENDROOT
BRANCH   7  11
ATOM     11  C   UNL     1       6.563   4.995  16.248  0.00  0.00    +0.000 A 
ATOM     12  N   UNL     1       7.352   5.527  15.338  0.00  0.00    +0.000 NA
ATOM     13  C   UNL     1       7.137   4.926  14.106  0.00  0.00    +0.000 A 
ATOM     14  C   UNL     1       7.811   5.231  12.905  0.00  0.00    +0.000 A 
ATOM     15  C   UNL     1       7.491   4.535  11.732  0.00  0.00    +0.000 A 
ATOM     16  C   UNL     1       6.516   3.550  11.739  0.00  0.00    +0.000 A 
ATOM     17  C   UNL     1       5.832   3.227  12.917  0.00  0.00    +0.000 A 
ATOM     18  C   UNL     1       6.159   3.929  14.088  0.00  0.00    +0.000 A 
ATOM     19  S   UNL     1       5.504   3.766  15.671  0.00  0.00    +0.000 S 
ENDBRANCH   7  11
BRANCH   1  21
ATOM     20  C   UNL     1       1.485   8.489  21.410  0.00  0.00    +0.000 C 
ATOM     21  C   UNL     1       1.197   8.343  19.920  0.00  0.00    +0.000 C 
ATOM     22  C   UNL     1       0.794   9.694  19.334  0.00  0.00    +0.000 C 
ENDBRANCH   1  21
TORSDOF 2
ENDMDL
MODEL 5
REMARK VINA RESULT:      -6.4      1.055      1.233
REMARK  Name = 
REMARK  4 active torsions:
REMARK  status: ('A' for Active; 'I' for Inactive)
REMARK    1  A    between atoms: C_1  and  C_2
REMARK    2  A    between atoms: C_2  and  C_3
REMARK    3  A    between atoms: C_2  and  N_4
REMARK    4  A    between atoms: C_10  and  C_11
REMARK                            x       y       z     vdW  Elec       q    Type
REMARK                         _______ _______ _______ _____ _____    ______ ____
ROOT
ATOM      1  N   UNL     1       5.763   4.462  15.053  0.00  0.00    +0.000 N 
ATOM      2  C   UNL     1       6.147   4.824  16.321  0.00  0.00    +0.000 C 
ATOM      3  O   UNL     1       7.326   4.840  16.661  0.00  0.00    +0.000 OA
ATOM      4  N   UNL     1       5.099   5.117  17.190  0.00  0.00    +0.000 N 
ATOM      5  C   UNL     1       5.434   5.676  18.500  0.00  0.00    +0.000 C 
ATOM      6  C   UNL     1       4.529   5.145  19.610  0.00  0.00    +0.000 C 
ATOM      7  C   UNL     1       3.038   5.237  19.274  0.00  0.00    +0.000 C 
ATOM      8  C   UNL     1       2.770   4.641  17.891  0.00  0.00    +0.000 C 
ATOM      9  C   UNL     1       3.689   5.185  16.806  0.00  0.00    +0.000 C 
ATOM     10  H   UNL     1       4.906   4.862  14.714  0.00  0.00    +0.000 HD
ENDROOT
BRANCH   7  11
ATOM     11  C   UNL     1       2.495   6.641  19.418  0.00  0.00    +0.000 A 
ATOM     12  N   UNL     1       2.458   7.544  18.461  0.00  0.00    +0.000 NA
ATOM     13  C   UNL     1       1.847   8.703  18.916  0.00  0.00    +0.000 A 
ATOM     14  C   UNL     1       1.622   9.873  18.161  0.00  0.00    +0.000 A 
ATOM     15  C   UNL     1       0.985  10.972  18.755  0.00  0.00    +0.000 A 
ATOM     16  C   UNL     1       0.575  10.919  20.078  0.00  0.00    +0.000 A 
ATOM     17  C   UNL     1       0.786   9.770  20.849  0.00  0.00    +0.000 A 
ATOM     18  C   UNL     1       1.424   8.674  20.246  0.00  0.00    +0.000 A 
ATOM     19  S   UNL     1       1.823   7.143  20.923  0.00  0.00    +0.000 S 
ENDBRANCH   7  11
BRANCH   1  21
ATOM     20  C   UNL     1       5.980   3.499  12.827  0.00  0.00    +0.000 C 
ATOM     21  C   UNL     1       6.721   4.090  14.022  0.00  0.00    +0.000 C 
ATOM     22  C   UNL     1       7.543   5.297  13.579  0.00  0.00    +0.000 C 
ENDBRANCH   1  21
TORSDOF 2
ENDMDL
MODEL 6
REMARK VINA RESULT:      -6.4      1.453      2.035
REMARK  Name = 
REMARK  4 active torsions:
REMARK  status: ('A' for Active; 'I' for Inactive)
REMARK    1  A    between atoms: C_1  and  C_2
REMARK    2  A    between atoms: C_2  and  C_3
REMARK    3  A    between atoms: C_2  and  N_4
REMARK    4  A    between atoms: C_10  and  C_11
REMARK                            x       y       z     vdW  Elec       q    Type
REMARK                         _______ _______ _______ _____ _____    ______ ____
ROOT
ATOM      1  N   UNL     1       5.264   3.690  13.438  0.00  0.00    +0.000 N 
ATOM      2  C   UNL     1       5.965   4.577  14.219  0.00  0.00    +0.000 C 
ATOM      3  O   UNL     1       6.970   5.149  13.809  0.00  0.00    +0.000 OA
ATOM      4  N   UNL     1       5.474   4.732  15.513  0.00  0.00    +0.000 N 
ATOM      5  C   UNL     1       6.059   5.785  16.343  0.00  0.00    +0.000 C 
ATOM      6  C   UNL     1       6.199   5.365  17.806  0.00  0.00    +0.000 C 
ATOM      7  C   UNL     1       4.916   4.772  18.393  0.00  0.00    +0.000 C 
ATOM      8  C   UNL     1       4.362   3.687  17.467  0.00  0.00    +0.000 C 
ATOM      9  C   UNL     1       4.238   4.132  16.016  0.00  0.00    +0.000 C 
ATOM     10  H   UNL     1       4.283   3.600  13.633  0.00  0.00    +0.000 HD
ENDROOT
BRANCH   7  11
ATOM     11  C   UNL     1       3.888   5.828  18.731  0.00  0.00    +0.000 A 
ATOM     12  N   UNL     1       3.178   5.871  19.839  0.00  0.00    +0.000 NA
ATOM     13  C   UNL     1       2.373   7.000  19.850  0.00  0.00    +0.000 A 
ATOM     14  C   UNL     1       1.490   7.379  20.882  0.00  0.00    +0.000 A 
ATOM     15  C   UNL     1       0.739   8.556  20.759  0.00  0.00    +0.000 A 
ATOM     16  C   UNL     1       0.855   9.352  19.629  0.00  0.00    +0.000 A 
ATOM     17  C   UNL     1       1.724   8.999  18.590  0.00  0.00    +0.000 A 
ATOM     18  C   UNL     1       2.473   7.819  18.723  0.00  0.00    +0.000 A 
ATOM     19  S   UNL     1       3.609   7.125  17.633  0.00  0.00    +0.000 S 
ENDBRANCH   7  11
BRANCH   1  21
ATOM     20  C   UNL     1       6.379   2.038  12.039  0.00  0.00    +0.000 C 
ATOM     21  C   UNL     1       5.653   3.378  12.070  0.00  0.00    +0.000 C 
ATOM     22  C   UNL     1       4.433   3.329  11.154  0.00  0.00    +0.000 C 
ENDBRANCH   1  21
TORSDOF 2
ENDMDL
MODEL 7
REMARK VINA RESULT:      -6.3      3.898      6.301
REMARK  Name = 
REMARK  4 active torsions:
REMARK  status: ('A' for Active; 'I' for Inactive)
REMARK    1  A    between atoms: C_1  and  C_2
REMARK    2  A    between atoms: C_2  and  C_3
REMARK    3  A    between atoms: C_2  and  N_4
REMARK    4  A    between atoms: C_10  and  C_11
REMARK                            x       y       z     vdW  Elec       q    Type
REMARK                         _______ _______ _______ _____ _____    ______ ____
ROOT
ATOM      1  N   UNL     1       2.830   6.081  18.130  0.00  0.00    +0.000 N 
ATOM      2  C   UNL     1       2.375   6.597  19.319  0.00  0.00    +0.000 C 
ATOM      3  O   UNL     1       2.380   5.941  20.355  0.00  0.00    +0.000 OA
ATOM      4  N   UNL     1       1.870   7.892  19.239  0.00  0.00    +0.000 N 
ATOM      5  C   UNL     1       1.530   8.571  20.491  0.00  0.00    +0.000 C 
ATOM      6  C   UNL     1       0.273   9.430  20.366  0.00  0.00    +0.000 C 
ATOM      7  C   UNL     1       0.293  10.366  19.155  0.00  0.00    +0.000 C 
ATOM      8  C   UNL     1       0.663   9.587  17.891  0.00  0.00    +0.000 C 
ATOM      9  C   UNL     1       1.917   8.737  18.045  0.00  0.00    +0.000 C 
ATOM     10  H   UNL     1       3.197   6.740  17.467  0.00  0.00    +0.000 HD
ENDROOT
BRANCH   7  11
ATOM     11  C   UNL     1       1.174  11.576  19.370  0.00  0.00    +0.000 A 
ATOM     12  N   UNL     1       1.951  12.122  18.459  0.00  0.00    +0.000 NA
ATOM     13  C   UNL     1       2.576  13.249  18.974  0.00  0.00    +0.000 A 
ATOM     14  C   UNL     1       3.468  14.092  18.279  0.00  0.00    +0.000 A 
ATOM     15  C   UNL     1       4.022  15.204  18.928  0.00  0.00    +0.000 A 
ATOM     16  C   UNL     1       3.703  15.482  20.249  0.00  0.00    +0.000 A 
ATOM     17  C   UNL     1       2.820  14.661  20.961  0.00  0.00    +0.000 A 
ATOM     18  C   UNL     1       2.269  13.550  20.302  0.00  0.00    +0.000 A 
ATOM     19  S   UNL     1       1.170  12.368  20.900  0.00  0.00    +0.000 S 
ENDBRANCH   7  11
BRANCH   1  21
ATOM     20  C   UNL     1       2.259   3.785  17.552  0.00  0.00    +0.000 C 
ATOM     21  C   UNL     1       3.362   4.730  18.017  0.00  0.00    +0.000 C 
ATOM     22  C   UNL     1       4.532   4.684  17.039  0.00  0.00    +0.000 C 
ENDBRANCH   1  21
TORSDOF 2
ENDMDL
MODEL 8
REMARK VINA RESULT:      -6.3      3.709      5.382
REMARK  Name = 
REMARK  4 active torsions:
REMARK  status: ('A' for Active; 'I' for Inactive)
REMARK    1  A    between atoms: C_1  and  C_2
REMARK    2  A    between atoms: C_2  and  C_3
REMARK    3  A    between atoms: C_2  and  N_4
REMARK    4  A    between atoms: C_10  and  C_11
REMARK                            x       y       z     vdW  Elec       q    Type
REMARK                         _______ _______ _______ _____ _____    ______ ____
ROOT
ATOM      1  N   UNL     1       7.907   9.462  17.730  0.00  0.00    +0.000 N 
ATOM      2  C   UNL     1       8.278   8.291  18.345  0.00  0.00    +0.000 C 
ATOM      3  O   UNL     1       9.273   8.221  19.059  0.00  0.00    +0.000 OA
ATOM      4  N   UNL     1       7.470   7.195  18.053  0.00  0.00    +0.000 N 
ATOM      5  C   UNL     1       7.698   5.960  18.805  0.00  0.00    +0.000 C 
ATOM      6  C   UNL     1       7.528   4.711  17.941  0.00  0.00    +0.000 C 
ATOM      7  C   UNL     1       6.226   4.701  17.137  0.00  0.00    +0.000 C 
ATOM      8  C   UNL     1       6.056   6.024  16.388  0.00  0.00    +0.000 C 
ATOM      9  C   UNL     1       6.234   7.251  17.272  0.00  0.00    +0.000 C 
ATOM     10  H   UNL     1       6.927   9.577  17.540  0.00  0.00    +0.000 HD
ENDROOT
BRANCH   7  11
ATOM     11  C   UNL     1       5.022   4.354  17.984  0.00  0.00    +0.000 A 
ATOM     12  N   UNL     1       5.033   3.550  19.026  0.00  0.00    +0.000 NA
ATOM     13  C   UNL     1       3.773   3.496  19.605  0.00  0.00    +0.000 A 
ATOM     14  C   UNL     1       3.415   2.749  20.746  0.00  0.00    +0.000 A 
ATOM     15  C   UNL     1       2.099   2.794  21.223  0.00  0.00    +0.000 A 
ATOM     16  C   UNL     1       1.142   3.567  20.582  0.00  0.00    +0.000 A 
ATOM     17  C   UNL     1       1.471   4.319  19.448  0.00  0.00    +0.000 A 
ATOM     18  C   UNL     1       2.793   4.268  18.978  0.00  0.00    +0.000 A 
ATOM     19  S   UNL     1       3.496   5.066  17.625  0.00  0.00    +0.000 S 
ENDBRANCH   7  11
BRANCH   1  21
ATOM     20  C   UNL     1       7.832  11.866  17.350  0.00  0.00    +0.000 C 
ATOM     21  C   UNL     1       8.653  10.701  17.893  0.00  0.00    +0.000 C 
ATOM     22  C   UNL     1       8.994  10.945  19.361  0.00  0.00    +0.000 C 
ENDBRANCH   1  21
TORSDOF 2
ENDMDL
MODEL 9
REMARK VINA RESULT:      -6.1      6.154     10.618
REMARK  Name = 
REMARK  4 active torsions:
REMARK  status: ('A' for Active; 'I' for Inactive)
REMARK    1  A    between atoms: C_1  and  C_2
REMARK    2  A    between atoms: C_2  and  C_3
REMARK    3  A    between atoms: C_2  and  N_4
REMARK    4  A    between atoms: C_10  and  C_11
REMARK                            x       y       z     vdW  Elec       q    Type
REMARK                         _______ _______ _______ _____ _____    ______ ____
ROOT
ATOM      1  N   UNL     1      -4.920  12.770  19.061  0.00  0.00    +0.000 N 
ATOM      2  C   UNL     1      -4.139  12.667  20.186  0.00  0.00    +0.000 C 
ATOM      3  O   UNL     1      -4.598  12.832  21.311  0.00  0.00    +0.000 OA
ATOM      4  N   UNL     1      -2.792  12.413  19.942  0.00  0.00    +0.000 N 
ATOM      5  C   UNL     1      -1.934  12.119  21.090  0.00  0.00    +0.000 C 
ATOM      6  C   UNL     1      -0.540  12.728  20.949  0.00  0.00    +0.000 C 
ATOM      7  C   UNL     1       0.123  12.425  19.602  0.00  0.00    +0.000 C 
ATOM      8  C   UNL     1      -0.837  12.750  18.456  0.00  0.00    +0.000 C 
ATOM      9  C   UNL     1      -2.219  12.133  18.625  0.00  0.00    +0.000 C 
ATOM     10  H   UNL     1      -4.632  12.230  18.264  0.00  0.00    +0.000 HD
ENDROOT
BRANCH   7  11
ATOM     11  C   UNL     1       0.664  11.015  19.526  0.00  0.00    +0.000 A 
ATOM     12  N   UNL     1       1.158  10.448  18.445  0.00  0.00    +0.000 NA
ATOM     13  C   UNL     1       1.615   9.172  18.738  0.00  0.00    +0.000 A 
ATOM     14  C   UNL     1       2.218   8.278  17.829  0.00  0.00    +0.000 A 
ATOM     15  C   UNL     1       2.638   7.015  18.269  0.00  0.00    +0.000 A 
ATOM     16  C   UNL     1       2.464   6.636  19.592  0.00  0.00    +0.000 A 
ATOM     17  C   UNL     1       1.869   7.504  20.514  0.00  0.00    +0.000 A 
ATOM     18  C   UNL     1       1.452   8.767  20.065  0.00  0.00    +0.000 A 
ATOM     19  S   UNL     1       0.697  10.038  20.944  0.00  0.00    +0.000 S 
ENDBRANCH   7  11
BRANCH   1  21
ATOM     20  C   UNL     1      -6.733  13.954  17.947  0.00  0.00    +0.000 C 
ATOM     21  C   UNL     1      -6.345  13.064  19.123  0.00  0.00    +0.000 C 
ATOM     22  C   UNL     1      -7.170  11.780  19.096  0.00  0.00    +0.000 C 
ENDBRANCH   1  21
TORSDOF 2
ENDMDL
