MODEL 1
REMARK VINA RESULT:      -9.2      0.000      0.000
REMARK  Name = 
REMARK  5 active torsions:
REMARK  status: ('A' for Active; 'I' for Inactive)
REMARK    1  A    between atoms: C_1  and  C_2
REMARK    2  A    between atoms: C_2  and  C_17
REMARK    3  A    between atoms: N_3  and  N_4
REMARK    4  A    between atoms: C_5  and  C_7
REMARK    5  A    between atoms: C_7  and  C_8
REMARK                            x       y       z     vdW  Elec       q    Type
REMARK                         _______ _______ _______ _____ _____    ______ ____
ROOT
ATOM      1  N   UNL     1       8.712   8.506  18.955  0.00  0.00    +0.000 N 
ATOM      2  C   UNL     1       8.042   7.587  18.153  0.00  0.00    +0.000 C 
ATOM      3  O   UNL     1       7.733   7.775  16.979  0.00  0.00    +0.000 OA
ATOM      4  H   UNL     1       8.943   8.274  19.911  0.00  0.00    +0.000 HD
ENDROOT
BRANCH   1   7
ATOM      5  C   UNL     1       9.310  10.717  20.690  0.00  0.00    +0.000 C 
ATOM      6  C   UNL     1       9.410  10.704  19.177  0.00  0.00    +0.000 C 
ATOM      7  N   UNL     1       9.102   9.693  18.419  0.00  0.00    +0.000 NA
BRANCH   6   8
ATOM      8  C   UNL     1       9.844  11.980  18.501  0.00  0.00    +0.000 A 
ATOM      9  C   UNL     1      10.899  12.010  17.581  0.00  0.00    +0.000 A 
ATOM     10  C   UNL     1      11.297  13.218  16.997  0.00  0.00    +0.000 A 
ATOM     11  C   UNL     1      10.648  14.421  17.313  0.00  0.00    +0.000 A 
ATOM     12  C   UNL     1      11.041  15.639  16.736  0.00  0.00    +0.000 A 
ATOM     13  C   UNL     1      10.385  16.827  17.065  0.00  0.00    +0.000 A 
ATOM     14  C   UNL     1       9.330  16.810  17.972  0.00  0.00    +0.000 A 
ATOM     15  C   UNL     1       8.929  15.607  18.553  0.00  0.00    +0.000 A 
ATOM     16  C   UNL     1       9.577  14.402  18.235  0.00  0.00    +0.000 A 
ATOM     17  C   UNL     1       9.190  13.181  18.818  0.00  0.00    +0.000 A 
ENDBRANCH   6   8
ENDBRANCH   1   7
BRANCH   2  18
ATOM     18  C   UNL     1       7.718   6.284  18.862  0.00  0.00    +0.000 C 
BRANCH  18  19
ATOM     19  C   UNL     1       6.887   5.355  18.034  0.00  0.00    +0.000 A 
ATOM     20  C   UNL     1       7.346   4.530  17.023  0.00  0.00    +0.000 A 
ATOM     21  N   UNL     1       6.276   3.859  16.493  0.00  0.00    +0.000 N 
ATOM     22  C   UNL     1       5.115   4.236  17.125  0.00  0.00    +0.000 A 
ATOM     23  C   UNL     1       3.797   3.817  16.907  0.00  0.00    +0.000 A 
ATOM     24  C   UNL     1       2.797   4.392  17.694  0.00  0.00    +0.000 A 
ATOM     25  C   UNL     1       3.106   5.344  18.662  0.00  0.00    +0.000 A 
ATOM     26  C   UNL     1       4.431   5.747  18.870  0.00  0.00    +0.000 A 
ATOM     27  C   UNL     1       5.462   5.182  18.089  0.00  0.00    +0.000 A 
ATOM     28  H   UNL     1       6.320   3.193  15.734  0.00  0.00    +0.000 HD
ENDBRANCH  18  19
ENDBRANCH   2  18
TORSDOF 4
ENDMDL
MODEL 2
REMARK VINA RESULT:      -8.9      2.073      3.343
REMARK  Name = 
REMARK  5 active torsions:
REMARK  status: ('A' for Active; 'I' for Inactive)
REMARK    1  A    between atoms: C_1  and  C_2
REMARK    2  A    between atoms: C_2  and  C_17
REMARK    3  A    between atoms: N_3  and  N_4
REMARK    4  A    between atoms: C_5  and  C_7
REMARK    5  A    between atoms: C_7  and  C_8
REMARK                            x       y       z     vdW  Elec       q    Type
REMARK                         _______ _______ _______ _____ _____    ______ ____
ROOT
ATOM      1  N   UNL     1       6.603   6.904  16.667  0.00  0.00    +0.000 N 
ATOM      2  C   UNL     1       5.248   6.658  16.858  0.00  0.00    +0.000 C 
ATOM      3  O   UNL     1       4.437   7.482  17.276  0.00  0.00    +0.000 OA
ATOM      4  H   UNL     1       7.207   6.177  16.307  0.00  0.00    +0.000 HD
ENDROOT
BRANCH   1   7
ATOM      5  C   UNL     1       8.379   7.313  18.890  0.00  0.00    +0.000 C 
ATOM      6  C   UNL     1       7.924   8.362  17.893  0.00  0.00    +0.000 C 
ATOM      7  N   UNL     1       7.093   8.148  16.915  0.00  0.00    +0.000 NA
BRANCH   6   8
ATOM      8  C   UNL     1       8.427   9.770  18.090  0.00  0.00    +0.000 A 
ATOM      9  C   UNL     1       7.861  10.859  17.418  0.00  0.00    +0.000 A 
ATOM     10  C   UNL     1       8.374  12.149  17.599  0.00  0.00    +0.000 A 
ATOM     11  C   UNL     1       9.460  12.379  18.458  0.00  0.00    +0.000 A 
ATOM     12  C   UNL     1       9.986  13.667  18.645  0.00  0.00    +0.000 A 
ATOM     13  C   UNL     1      11.069  13.877  19.501  0.00  0.00    +0.000 A 
ATOM     14  C   UNL     1      11.635  12.804  20.181  0.00  0.00    +0.000 A 
ATOM     15  C   UNL     1      11.123  11.518  20.005  0.00  0.00    +0.000 A 
ATOM     16  C   UNL     1      10.035  11.288  19.147  0.00  0.00    +0.000 A 
ATOM     17  C   UNL     1       9.511   9.996  18.952  0.00  0.00    +0.000 A 
ENDBRANCH   6   8
ENDBRANCH   1   7
BRANCH   2  18
ATOM     18  C   UNL     1       4.828   5.246  16.489  0.00  0.00    +0.000 C 
BRANCH  18  19
ATOM     19  C   UNL     1       4.610   4.367  17.680  0.00  0.00    +0.000 A 
ATOM     20  C   UNL     1       5.591   3.873  18.522  0.00  0.00    +0.000 A 
ATOM     21  N   UNL     1       4.992   3.091  19.473  0.00  0.00    +0.000 N 
ATOM     22  C   UNL     1       3.633   3.046  19.267  0.00  0.00    +0.000 A 
ATOM     23  C   UNL     1       2.638   2.369  19.983  0.00  0.00    +0.000 A 
ATOM     24  C   UNL     1       1.322   2.485  19.530  0.00  0.00    +0.000 A 
ATOM     25  C   UNL     1       1.016   3.250  18.408  0.00  0.00    +0.000 A 
ATOM     26  C   UNL     1       2.024   3.925  17.707  0.00  0.00    +0.000 A 
ATOM     27  C   UNL     1       3.363   3.826  18.143  0.00  0.00    +0.000 A 
ATOM     28  H   UNL     1       5.471   2.599  20.213  0.00  0.00    +0.000 HD
ENDBRANCH  18  19
ENDBRANCH   2  18
TORSDOF 4
ENDMDL
MODEL 3
REMARK VINA RESULT:      -8.9      6.907      8.607
REMARK  Name = 
REMARK  5 active torsions:
REMARK  status: ('A' for Active; 'I' for Inactive)
REMARK    1  A    between atoms: C_1  and  C_2
REMARK    2  A    between atoms: C_2  and  C_17
REMARK    3  A    between atoms: N_3  and  N_4
REMARK    4  A    between atoms: C_5  and  C_7
REMARK    5  A    between atoms: C_7  and  C_8
REMARK                            x       y       z     vdW  Elec       q    Type
REMARK                         _______ _______ _______ _____ _____    ______ ____
ROOT
ATOM      1  N   UNL     1       2.596   5.655  19.293  0.00  0.00    +0.000 N 
ATOM      2  C   UNL     1       2.002   4.412  19.104  0.00  0.00    +0.000 C 
ATOM      3  O   UNL     1       0.941   4.056  19.613  0.00  0.00    +0.000 OA
ATOM      4  H   UNL     1       3.466   5.880  18.830  0.00  0.00    +0.000 HD
ENDROOT
BRANCH   1   7
ATOM      5  C   UNL     1       2.244   8.325  18.289  0.00  0.00    +0.000 C 
ATOM      6  C   UNL     1       1.759   7.791  19.624  0.00  0.00    +0.000 C 
ATOM      7  N   UNL     1       1.963   6.583  20.060  0.00  0.00    +0.000 NA
BRANCH   6   8
ATOM      8  C   UNL     1       1.040   8.753  20.536  0.00  0.00    +0.000 A 
ATOM      9  C   UNL     1       1.118   8.653  21.929  0.00  0.00    +0.000 A 
ATOM     10  C   UNL     1       0.411   9.543  22.746  0.00  0.00    +0.000 A 
ATOM     11  C   UNL     1      -0.387  10.554  22.189  0.00  0.00    +0.000 A 
ATOM     12  C   UNL     1      -1.104  11.450  22.997  0.00  0.00    +0.000 A 
ATOM     13  C   UNL     1      -1.895  12.448  22.426  0.00  0.00    +0.000 A 
ATOM     14  C   UNL     1      -1.976  12.564  21.042  0.00  0.00    +0.000 A 
ATOM     15  C   UNL     1      -1.269  11.680  20.226  0.00  0.00    +0.000 A 
ATOM     16  C   UNL     1      -0.469  10.669  20.783  0.00  0.00    +0.000 A 
ATOM     17  C   UNL     1       0.245   9.765  19.974  0.00  0.00    +0.000 A 
ENDBRANCH   6   8
ENDBRANCH   1   7
BRANCH   2  18
ATOM     18  C   UNL     1       2.787   3.497  18.181  0.00  0.00    +0.000 C 
BRANCH  18  19
ATOM     19  C   UNL     1       4.252   3.804  18.156  0.00  0.00    +0.000 A 
ATOM     20  C   UNL     1       5.101   3.829  19.248  0.00  0.00    +0.000 A 
ATOM     21  N   UNL     1       6.353   4.175  18.816  0.00  0.00    +0.000 N 
ATOM     22  C   UNL     1       6.346   4.393  17.459  0.00  0.00    +0.000 A 
ATOM     23  C   UNL     1       7.390   4.770  16.604  0.00  0.00    +0.000 A 
ATOM     24  C   UNL     1       7.088   4.944  15.252  0.00  0.00    +0.000 A 
ATOM     25  C   UNL     1       5.795   4.747  14.776  0.00  0.00    +0.000 A 
ATOM     26  C   UNL     1       4.764   4.365  15.644  0.00  0.00    +0.000 A 
ATOM     27  C   UNL     1       5.040   4.181  17.016  0.00  0.00    +0.000 A 
ATOM     28  H   UNL     1       7.168   4.275  19.404  0.00  0.00    +0.000 HD
ENDBRANCH  18  19
ENDBRANCH   2  18
TORSDOF 4
ENDMDL
MODEL 4
REMARK VINA RESULT:      -8.7      6.408      8.533
REMARK  Name = 
REMARK  5 active torsions:
REMARK  status: ('A' for Active; 'I' for Inactive)
REMARK    1  A    between atoms: C_1  and  C_2
REMARK    2  A    between atoms: C_2  and  C_17
REMARK    3  A    between atoms: N_3  and  N_4
REMARK    4  A    between atoms: C_5  and  C_7
REMARK    5  A    between atoms: C_7  and  C_8
REMARK                            x       y       z     vdW  Elec       q    Type
REMARK                         _______ _______ _______ _____ _____    ______ ____
ROOT
ATOM      1  N   UNL     1       2.731   6.237  20.146  0.00  0.00    +0.000 N 
ATOM      2  C   UNL     1       2.239   4.941  20.258  0.00  0.00    +0.000 C 
ATOM      3  O   UNL     1       1.088   4.653  20.576  0.00  0.00    +0.000 OA
ATOM      4  H   UNL     1       3.690   6.395  19.866  0.00  0.00    +0.000 HD
ENDROOT
BRANCH   1   7
ATOM      5  C   UNL     1       2.439   8.255  18.121  0.00  0.00    +0.000 C 
ATOM      6  C   UNL     1       1.713   8.200  19.452  0.00  0.00    +0.000 C 
ATOM      7  N   UNL     1       1.892   7.286  20.360  0.00  0.00    +0.000 NA
BRANCH   6   8
ATOM      8  C   UNL     1       0.756   9.322  19.767  0.00  0.00    +0.000 A 
ATOM      9  C   UNL     1       0.247  10.164  18.772  0.00  0.00    +0.000 A 
ATOM     10  C   UNL     1      -0.613  11.217  19.104  0.00  0.00    +0.000 A 
ATOM     11  C   UNL     1      -0.987  11.449  20.436  0.00  0.00    +0.000 A 
ATOM     12  C   UNL     1      -1.846  12.504  20.782  0.00  0.00    +0.000 A 
ATOM     13  C   UNL     1      -2.206  12.723  22.114  0.00  0.00    +0.000 A 
ATOM     14  C   UNL     1      -1.712  11.889  23.112  0.00  0.00    +0.000 A 
ATOM     15  C   UNL     1      -0.858  10.836  22.783  0.00  0.00    +0.000 A 
ATOM     16  C   UNL     1      -0.485  10.602  21.449  0.00  0.00    +0.000 A 
ATOM     17  C   UNL     1       0.383   9.550  21.101  0.00  0.00    +0.000 A 
ENDBRANCH   6   8
ENDBRANCH   1   7
BRANCH   2  18
ATOM     18  C   UNL     1       3.267   3.871  19.936  0.00  0.00    +0.000 C 
BRANCH  18  19
ATOM     19  C   UNL     1       3.960   4.096  18.629  0.00  0.00    +0.000 A 
ATOM     20  C   UNL     1       3.527   3.662  17.389  0.00  0.00    +0.000 A 
ATOM     21  N   UNL     1       4.449   4.044  16.451  0.00  0.00    +0.000 N 
ATOM     22  C   UNL     1       5.492   4.709  17.049  0.00  0.00    +0.000 A 
ATOM     23  C   UNL     1       6.647   5.264  16.484  0.00  0.00    +0.000 A 
ATOM     24  C   UNL     1       7.562   5.872  17.345  0.00  0.00    +0.000 A 
ATOM     25  C   UNL     1       7.328   5.924  18.717  0.00  0.00    +0.000 A 
ATOM     26  C   UNL     1       6.165   5.368  19.265  0.00  0.00    +0.000 A 
ATOM     27  C   UNL     1       5.222   4.748  18.417  0.00  0.00    +0.000 A 
ATOM     28  H   UNL     1       4.390   3.853  15.460  0.00  0.00    +0.000 HD
ENDBRANCH  18  19
ENDBRANCH   2  18
TORSDOF 4
ENDMDL
MODEL 5
REMARK VINA RESULT:      -8.6      6.541      8.280
REMARK  Name = 
REMARK  5 active torsions:
REMARK  status: ('A' for Active; 'I' for Inactive)
REMARK    1  A    between atoms: C_1  and  C_2
REMARK    2  A    between atoms: C_2  and  C_17
REMARK    3  A    between atoms: N_3  and  N_4
REMARK    4  A    between atoms: C_5  and  C_7
REMARK    5  A    between atoms: C_7  and  C_8
REMARK                            x       y       z     vdW  Elec       q    Type
REMARK                         _______ _______ _______ _____ _____    ______ ____
ROOT
ATOM      1  N   UNL     1       4.036   5.196  18.335  0.00  0.00    +0.000 N 
ATOM      2  C   UNL     1       3.556   4.246  17.440  0.00  0.00    +0.000 C 
ATOM      3  O   UNL     1       2.380   4.130  17.103  0.00  0.00    +0.000 OA
ATOM      4  H   UNL     1       5.022   5.237  18.555  0.00  0.00    +0.000 HD
ENDROOT
BRANCH   1   7
ATOM      5  C   UNL     1       3.775   7.784  17.114  0.00  0.00    +0.000 C 
ATOM      6  C   UNL     1       3.008   7.273  18.319  0.00  0.00    +0.000 C 
ATOM      7  N   UNL     1       3.173   6.104  18.865  0.00  0.00    +0.000 NA
BRANCH   6   8
ATOM      8  C   UNL     1       2.022   8.215  18.964  0.00  0.00    +0.000 A 
ATOM      9  C   UNL     1       1.363   9.211  18.236  0.00  0.00    +0.000 A 
ATOM     10  C   UNL     1       0.479  10.089  18.874  0.00  0.00    +0.000 A 
ATOM     11  C   UNL     1       0.232   9.989  20.251  0.00  0.00    +0.000 A 
ATOM     12  C   UNL     1      -0.649  10.866  20.903  0.00  0.00    +0.000 A 
ATOM     13  C   UNL     1      -0.882  10.754  22.275  0.00  0.00    +0.000 A 
ATOM     14  C   UNL     1      -0.238   9.763  23.009  0.00  0.00    +0.000 A 
ATOM     15  C   UNL     1       0.640   8.884  22.376  0.00  0.00    +0.000 A 
ATOM     16  C   UNL     1       0.886   8.983  20.996  0.00  0.00    +0.000 A 
ATOM     17  C   UNL     1       1.776   8.109  20.342  0.00  0.00    +0.000 A 
ENDBRANCH   6   8
ENDBRANCH   1   7
BRANCH   2  18
ATOM     18  C   UNL     1       4.636   3.335  16.884  0.00  0.00    +0.000 C 
BRANCH  18  19
ATOM     19  C   UNL     1       5.713   4.077  16.155  0.00  0.00    +0.000 A 
ATOM     20  C   UNL     1       6.592   4.991  16.705  0.00  0.00    +0.000 A 
ATOM     21  N   UNL     1       7.403   5.466  15.710  0.00  0.00    +0.000 N 
ATOM     22  C   UNL     1       7.067   4.892  14.506  0.00  0.00    +0.000 A 
ATOM     23  C   UNL     1       7.618   5.086  13.233  0.00  0.00    +0.000 A 
ATOM     24  C   UNL     1       7.057   4.376  12.170  0.00  0.00    +0.000 A 
ATOM     25  C   UNL     1       5.990   3.507  12.374  0.00  0.00    +0.000 A 
ATOM     26  C   UNL     1       5.454   3.321  13.655  0.00  0.00    +0.000 A 
ATOM     27  C   UNL     1       6.002   4.025  14.749  0.00  0.00    +0.000 A 
ATOM     28  H   UNL     1       8.135   6.152  15.828  0.00  0.00    +0.000 HD
ENDBRANCH  18  19
ENDBRANCH   2  18
TORSDOF 4
ENDMDL
MODEL 6
REMARK VINA RESULT:      -8.5      6.709      8.344
REMARK  Name = 
REMARK  5 active torsions:
REMARK  status: ('A' for Active; 'I' for Inactive)
REMARK    1  A    between atoms: C_1  and  C_2
REMARK    2  A    between atoms: C_2  and  C_17
REMARK    3  A    between atoms: N_3  and  N_4
REMARK    4  A    between atoms: C_5  and  C_7
REMARK    5  A    between atoms: C_7  and  C_8
REMARK                            x       y       z     vdW  Elec       q    Type
REMARK                         _______ _______ _______ _____ _____    ______ ____
ROOT
ATOM      1  N   UNL     1       2.996   5.748  19.269  0.00  0.00    +0.000 N 
ATOM      2  C   UNL     1       2.493   4.458  19.393  0.00  0.00    +0.000 C 
ATOM      3  O   UNL     1       1.407   4.173  19.894  0.00  0.00    +0.000 OA
ATOM      4  H   UNL     1       3.895   5.905  18.833  0.00  0.00    +0.000 HD
ENDROOT
BRANCH   1   7
ATOM      5  C   UNL     1       2.866   8.132  17.669  0.00  0.00    +0.000 C 
ATOM      6  C   UNL     1       2.135   7.880  18.974  0.00  0.00    +0.000 C 
ATOM      7  N   UNL     1       2.241   6.798  19.689  0.00  0.00    +0.000 NA
BRANCH   6   8
ATOM      8  C   UNL     1       1.267   8.991  19.509  0.00  0.00    +0.000 A 
ATOM      9  C   UNL     1       0.949  10.117  18.741  0.00  0.00    +0.000 A 
ATOM     10  C   UNL     1       0.168  11.146  19.281  0.00  0.00    +0.000 A 
ATOM     11  C   UNL     1      -0.315  11.071  20.596  0.00  0.00    +0.000 A 
ATOM     12  C   UNL     1      -1.096  12.097  21.149  0.00  0.00    +0.000 A 
ATOM     13  C   UNL     1      -1.567  12.007  22.461  0.00  0.00    +0.000 A 
ATOM     14  C   UNL     1      -1.264  10.889  23.232  0.00  0.00    +0.000 A 
ATOM     15  C   UNL     1      -0.489   9.861  22.695  0.00  0.00    +0.000 A 
ATOM     16  C   UNL     1      -0.006   9.935  21.378  0.00  0.00    +0.000 A 
ATOM     17  C   UNL     1       0.783   8.910  20.824  0.00  0.00    +0.000 A 
ENDBRANCH   6   8
ENDBRANCH   1   7
BRANCH   2  18
ATOM     18  C   UNL     1       3.414   3.389  18.832  0.00  0.00    +0.000 C 
BRANCH  18  19
ATOM     19  C   UNL     1       4.770   3.912  18.472  0.00  0.00    +0.000 A 
ATOM     20  C   UNL     1       5.760   4.296  19.358  0.00  0.00    +0.000 A 
ATOM     21  N   UNL     1       6.837   4.739  18.639  0.00  0.00    +0.000 N 
ATOM     22  C   UNL     1       6.573   4.670  17.291  0.00  0.00    +0.000 A 
ATOM     23  C   UNL     1       7.374   5.023  16.199  0.00  0.00    +0.000 A 
ATOM     24  C   UNL     1       6.834   4.864  14.921  0.00  0.00    +0.000 A 
ATOM     25  C   UNL     1       5.544   4.371  14.746  0.00  0.00    +0.000 A 
ATOM     26  C   UNL     1       4.758   4.018  15.850  0.00  0.00    +0.000 A 
ATOM     27  C   UNL     1       5.279   4.166  17.153  0.00  0.00    +0.000 A 
ATOM     28  H   UNL     1       7.701   5.086  19.031  0.00  0.00    +0.000 HD
ENDBRANCH  18  19
ENDBRANCH   2  18
TORSDOF 4
ENDMDL
MODEL 7
REMARK VINA RESULT:      -8.5      6.182      8.607
REMARK  Name = 
REMARK  5 active torsions:
REMARK  status: ('A' for Active; 'I' for Inactive)
REMARK    1  A    between atoms: C_1  and  C_2
REMARK    2  A    between atoms: C_2  and  C_17
REMARK    3  A    between atoms: N_3  and  N_4
REMARK    4  A    between atoms: C_5  and  C_7
REMARK    5  A    between atoms: C_7  and  C_8
REMARK                            x       y       z     vdW  Elec       q    Type
REMARK                         _______ _______ _______ _____ _____    ______ ____
ROOT
ATOM      1  N   UNL     1       2.667   5.576  19.871  0.00  0.00    +0.000 N 
ATOM      2  C   UNL     1       2.776   4.317  20.451  0.00  0.00    +0.000 C 
ATOM      3  O   UNL     1       2.320   4.008  21.550  0.00  0.00    +0.000 OA
ATOM      4  H   UNL     1       3.059   5.751  18.956  0.00  0.00    +0.000 HD
ENDROOT
BRANCH   1   7
ATOM      5  C   UNL     1       2.283   8.130  18.611  0.00  0.00    +0.000 C 
ATOM      6  C   UNL     1       1.759   7.706  19.970  0.00  0.00    +0.000 C 
ATOM      7  N   UNL     1       1.978   6.550  20.524  0.00  0.00    +0.000 NA
BRANCH   6   8
ATOM      8  C   UNL     1       0.977   8.725  20.760  0.00  0.00    +0.000 A 
ATOM      9  C   UNL     1       0.954   8.719  22.159  0.00  0.00    +0.000 A 
ATOM     10  C   UNL     1       0.190   9.659  22.861  0.00  0.00    +0.000 A 
ATOM     11  C   UNL     1      -0.563  10.628  22.181  0.00  0.00    +0.000 A 
ATOM     12  C   UNL     1      -1.336  11.574  22.873  0.00  0.00    +0.000 A 
ATOM     13  C   UNL     1      -2.082  12.529  22.180  0.00  0.00    +0.000 A 
ATOM     14  C   UNL     1      -2.062  12.551  20.789  0.00  0.00    +0.000 A 
ATOM     15  C   UNL     1      -1.298  11.617  20.087  0.00  0.00    +0.000 A 
ATOM     16  C   UNL     1      -0.542  10.648  20.768  0.00  0.00    +0.000 A 
ATOM     17  C   UNL     1       0.227   9.694  20.076  0.00  0.00    +0.000 A 
ENDBRANCH   6   8
ENDBRANCH   1   7
BRANCH   2  18
ATOM     18  C   UNL     1       3.520   3.313  19.589  0.00  0.00    +0.000 C 
BRANCH  18  19
ATOM     19  C   UNL     1       4.163   3.932  18.387  0.00  0.00    +0.000 A 
ATOM     20  C   UNL     1       3.740   3.804  17.077  0.00  0.00    +0.000 A 
ATOM     21  N   UNL     1       4.605   4.496  16.272  0.00  0.00    +0.000 N 
ATOM     22  C   UNL     1       5.602   5.069  17.026  0.00  0.00    +0.000 A 
ATOM     23  C   UNL     1       6.694   5.850  16.627  0.00  0.00    +0.000 A 
ATOM     24  C   UNL     1       7.574   6.288  17.619  0.00  0.00    +0.000 A 
ATOM     25  C   UNL     1       7.367   5.957  18.956  0.00  0.00    +0.000 A 
ATOM     26  C   UNL     1       6.267   5.179  19.337  0.00  0.00    +0.000 A 
ATOM     27  C   UNL     1       5.361   4.724  18.356  0.00  0.00    +0.000 A 
ATOM     28  H   UNL     1       4.540   4.568  15.267  0.00  0.00    +0.000 HD
ENDBRANCH  18  19
ENDBRANCH   2  18
TORSDOF 4
ENDMDL
MODEL 8
REMARK VINA RESULT:      -8.4      2.512      9.790
REMARK  Name = 
REMARK  5 active torsions:
REMARK  status: ('A' for Active; 'I' for Inactive)
REMARK    1  A    between atoms: C_1  and  C_2
REMARK    2  A    between atoms: C_2  and  C_17
REMARK    3  A    between atoms: N_3  and  N_4
REMARK    4  A    between atoms: C_5  and  C_7
REMARK    5  A    between atoms: C_7  and  C_8
REMARK                            x       y       z     vdW  Elec       q    Type
REMARK                         _______ _______ _______ _____ _____    ______ ____
ROOT
ATOM      1  N   UNL     1       8.571   8.397  18.721  0.00  0.00    +0.000 N 
ATOM      2  C   UNL     1       8.675   9.776  18.577  0.00  0.00    +0.000 C 
ATOM      3  O   UNL     1       8.273  10.413  17.606  0.00  0.00    +0.000 OA
ATOM      4  H   UNL     1       8.916   7.945  19.557  0.00  0.00    +0.000 HD
ENDROOT
BRANCH   1   7
ATOM      5  C   UNL     1       7.745   5.701  19.273  0.00  0.00    +0.000 C 
ATOM      6  C   UNL     1       7.533   6.462  17.979  0.00  0.00    +0.000 C 
ATOM      7  N   UNL     1       7.948   7.674  17.752  0.00  0.00    +0.000 NA
BRANCH   6   8
ATOM      8  C   UNL     1       6.842   5.736  16.852  0.00  0.00    +0.000 A 
ATOM      9  C   UNL     1       5.578   5.157  17.009  0.00  0.00    +0.000 A 
ATOM     10  C   UNL     1       4.980   4.462  15.952  0.00  0.00    +0.000 A 
ATOM     11  C   UNL     1       5.629   4.334  14.714  0.00  0.00    +0.000 A 
ATOM     12  C   UNL     1       5.041   3.636  13.648  0.00  0.00    +0.000 A 
ATOM     13  C   UNL     1       5.702   3.516  12.424  0.00  0.00    +0.000 A 
ATOM     14  C   UNL     1       6.956   4.093  12.252  0.00  0.00    +0.000 A 
ATOM     15  C   UNL     1       7.553   4.790  13.303  0.00  0.00    +0.000 A 
ATOM     16  C   UNL     1       6.903   4.920  14.542  0.00  0.00    +0.000 A 
ATOM     17  C   UNL     1       7.494   5.613  15.615  0.00  0.00    +0.000 A 
ENDBRANCH   6   8
ENDBRANCH   1   7
BRANCH   2  18
ATOM     18  C   UNL     1       9.340  10.462  19.757  0.00  0.00    +0.000 C 
BRANCH  18  19
ATOM     19  C   UNL     1      10.412  11.425  19.351  0.00  0.00    +0.000 A 
ATOM     20  C   UNL     1      11.429  11.182  18.445  0.00  0.00    +0.000 A 
ATOM     21  N   UNL     1      12.216  12.299  18.366  0.00  0.00    +0.000 N 
ATOM     22  C   UNL     1      11.747  13.274  19.215  0.00  0.00    +0.000 A 
ATOM     23  C   UNL     1      12.238  14.561  19.464  0.00  0.00    +0.000 A 
ATOM     24  C   UNL     1      11.565  15.340  20.407  0.00  0.00    +0.000 A 
ATOM     25  C   UNL     1      10.444  14.850  21.071  0.00  0.00    +0.000 A 
ATOM     26  C   UNL     1       9.962  13.562  20.806  0.00  0.00    +0.000 A 
ATOM     27  C   UNL     1      10.623  12.753  19.857  0.00  0.00    +0.000 A 
ATOM     28  H   UNL     1      13.036  12.399  17.785  0.00  0.00    +0.000 HD
ENDBRANCH  18  19
ENDBRANCH   2  18
TORSDOF 4
ENDMDL
MODEL 9
REMARK VINA RESULT:      -8.4      6.239      8.839
REMARK  Name = 
REMARK  5 active torsions:
REMARK  status: ('A' for Active; 'I' for Inactive)
REMARK    1  A    between atoms: C_1  and  C_2
REMARK    2  A    between atoms: C_2  and  C_17
REMARK    3  A    between atoms: N_3  and  N_4
REMARK    4  A    between atoms: C_5  and  C_7
REMARK    5  A    between atoms: C_7  and  C_8
REMARK                            x       y       z     vdW  Elec       q    Type
REMARK                         _______ _______ _______ _____ _____    ______ ____
ROOT
ATOM      1  N   UNL     1       2.065   8.530  17.698  0.00  0.00    +0.000 N 
ATOM      2  C   UNL     1       2.774   7.563  18.401  0.00  0.00    +0.000 C 
ATOM      3  O   UNL     1       2.564   7.250  19.571  0.00  0.00    +0.000 OA
ATOM      4  H   UNL     1       2.289   8.725  16.732  0.00  0.00    +0.000 HD
ENDROOT
BRANCH   1   7
ATOM      5  C   UNL     1       2.238  11.354  18.202  0.00  0.00    +0.000 C 
ATOM      6  C   UNL     1       1.063  10.451  18.522  0.00  0.00    +0.000 C 
ATOM      7  N   UNL     1       1.030   9.168  18.308  0.00  0.00    +0.000 NA
BRANCH   6   8
ATOM      8  C   UNL     1      -0.133  11.079  19.194  0.00  0.00    +0.000 A 
ATOM      9  C   UNL     1      -1.139  11.723  18.465  0.00  0.00    +0.000 A 
ATOM     10  C   UNL     1      -2.218  12.325  19.123  0.00  0.00    +0.000 A 
ATOM     11  C   UNL     1      -2.318  12.292  20.521  0.00  0.00    +0.000 A 
ATOM     12  C   UNL     1      -3.394  12.895  21.193  0.00  0.00    +0.000 A 
ATOM     13  C   UNL     1      -3.477  12.855  22.586  0.00  0.00    +0.000 A 
ATOM     14  C   UNL     1      -2.487  12.211  23.322  0.00  0.00    +0.000 A 
ATOM     15  C   UNL     1      -1.412  11.608  22.669  0.00  0.00    +0.000 A 
ATOM     16  C   UNL     1      -1.312  11.638  21.268  0.00  0.00    +0.000 A 
ATOM     17  C   UNL     1      -0.231  11.042  20.593  0.00  0.00    +0.000 A 
ENDBRANCH   6   8
ENDBRANCH   1   7
BRANCH   2  18
ATOM     18  C   UNL     1       3.863   6.892  17.582  0.00  0.00    +0.000 C 
BRANCH  18  19
ATOM     19  C   UNL     1       4.259   5.551  18.117  0.00  0.00    +0.000 A 
ATOM     20  C   UNL     1       5.523   5.180  18.538  0.00  0.00    +0.000 A 
ATOM     21  N   UNL     1       5.481   3.869  18.931  0.00  0.00    +0.000 N 
ATOM     22  C   UNL     1       4.215   3.361  18.763  0.00  0.00    +0.000 A 
ATOM     23  C   UNL     1       3.720   2.077  19.023  0.00  0.00    +0.000 A 
ATOM     24  C   UNL     1       2.377   1.830  18.734  0.00  0.00    +0.000 A 
ATOM     25  C   UNL     1       1.562   2.829  18.208  0.00  0.00    +0.000 A 
ATOM     26  C   UNL     1       2.073   4.109  17.959  0.00  0.00    +0.000 A 
ATOM     27  C   UNL     1       3.427   4.388  18.243  0.00  0.00    +0.000 A 
ATOM     28  H   UNL     1       6.266   3.336  19.278  0.00  0.00    +0.000 HD
ENDBRANCH  18  19
ENDBRANCH   2  18
TORSDOF 4
ENDMDL
