MODEL 1
REMARK VINA RESULT:      -8.0      0.000      0.000
REMARK  Name = 
REMARK  2 active torsions:
REMARK  status: ('A' for Active; 'I' for Inactive)
REMARK    1  A    between atoms: C_1  and  N_2
REMARK    2  A    between atoms: C_4  and  C_5
REMARK                            x       y       z     vdW  Elec       q    Type
REMARK                         _______ _______ _______ _____ _____    ______ ____
ROOT
ATOM      1  C   UNL     1       0.251  10.928  19.569  0.00  0.00    +0.000 A 
ATOM      2  C   UNL     1       0.644  11.924  20.478  0.00  0.00    +0.000 A 
ATOM      3  C   UNL     1      -0.275  12.958  20.963  0.00  0.00    +0.000 A 
ATOM      4  C   UNL     1      -1.629  13.055  20.563  0.00  0.00    +0.000 A 
ATOM      5  C   UNL     1      -1.995  12.087  19.612  0.00  0.00    +0.000 A 
ATOM      6  C   UNL     1      -1.063  11.072  19.131  0.00  0.00    +0.000 A 
ATOM      7  C   UNL     1      -3.375  12.018  19.127  0.00  0.00    +0.000 C 
ATOM      8  O   UNL     1      -4.213  12.793  19.588  0.00  0.00    +0.000 OA
ATOM      9  N   UNL     1      -3.701  10.978  18.239  0.00  0.00    +0.000 N 
ATOM     10  C   UNL     1      -5.053  10.985  17.899  0.00  0.00    +0.000 A 
ATOM     11  C   UNL     1      -5.866  10.228  18.731  0.00  0.00    +0.000 A 
ATOM     12  C   UNL     1      -7.082  10.785  19.086  0.00  0.00    +0.000 A 
ATOM     13  C   UNL     1      -7.437  12.032  18.567  0.00  0.00    +0.000 A 
ATOM     14  C   UNL     1      -6.573  12.668  17.676  0.00  0.00    +0.000 A 
ATOM     15  N   UNL     1      -5.434  12.100  17.254  0.00  0.00    +0.000 NA
ATOM     16  C   UNL     1      -6.669  14.092  17.355  0.00  0.00    +0.000 A 
ATOM     17  N   UNL     1      -6.577  14.643  16.155  0.00  0.00    +0.000 NA
ATOM     18  N   UNL     1      -6.823  15.989  16.272  0.00  0.00    +0.000 NA
ATOM     19  C   UNL     1      -7.014  16.243  17.544  0.00  0.00    +0.000 A 
ATOM     20  N   UNL     1      -6.796  15.113  18.278  0.00  0.00    +0.000 N 
ATOM     21  C   UNL     1      -6.890  14.995  19.719  0.00  0.00    +0.000 C 
ATOM     22  C   UNL     1      -5.969  15.885  20.581  0.00  0.00    +0.000 C 
ATOM     23  C   UNL     1      -4.830  15.135  21.395  0.00  0.00    +0.000 C 
ATOM     24  C   UNL     1      -3.340  14.980  20.805  0.00  0.00    +0.000 C 
ATOM     25  O   UNL     1      -2.518  13.842  21.327  0.00  0.00    +0.000 OA
ATOM     26  H   UNL     1      -3.340  10.072  18.539  0.00  0.00    +0.000 HD
ENDROOT
BRANCH   1  30
ATOM     27  C   UNL     1       2.776   6.529  19.284  0.00  0.00    +0.000 C 
ATOM     28  N   UNL     1       2.203   7.829  18.997  0.00  0.00    +0.000 N 
ATOM     29  C   UNL     1       1.456   8.643  19.827  0.00  0.00    +0.000 A 
ATOM     30  C   UNL     1       1.072   9.761  19.093  0.00  0.00    +0.000 A 
ATOM     31  C   UNL     1       1.696   9.509  17.836  0.00  0.00    +0.000 A 
ATOM     32  N   UNL     1       2.366   8.347  17.780  0.00  0.00    +0.000 NA
ENDBRANCH   1  30
TORSDOF 1
ENDMDL
MODEL 2
REMARK VINA RESULT:      -7.6      2.711      4.575
REMARK  Name = 
REMARK  2 active torsions:
REMARK  status: ('A' for Active; 'I' for Inactive)
REMARK    1  A    between atoms: C_1  and  N_2
REMARK    2  A    between atoms: C_4  and  C_5
REMARK                            x       y       z     vdW  Elec       q    Type
REMARK                         _______ _______ _______ _____ _____    ______ ____
ROOT
ATOM      1  C   UNL     1      -0.828  10.060  17.788  0.00  0.00    +0.000 A 
ATOM      2  C   UNL     1      -1.764   9.825  16.768  0.00  0.00    +0.000 A 
ATOM      3  C   UNL     1      -3.121  10.377  16.800  0.00  0.00    +0.000 A 
ATOM      4  C   UNL     1      -3.616  11.184  17.851  0.00  0.00    +0.000 A 
ATOM      5  C   UNL     1      -2.689  11.367  18.891  0.00  0.00    +0.000 A 
ATOM      6  C   UNL     1      -1.345  10.800  18.849  0.00  0.00    +0.000 A 
ATOM      7  C   UNL     1      -3.026  12.215  20.036  0.00  0.00    +0.000 C 
ATOM      8  O   UNL     1      -4.113  12.793  20.056  0.00  0.00    +0.000 OA
ATOM      9  N   UNL     1      -2.029  12.426  21.005  0.00  0.00    +0.000 N 
ATOM     10  C   UNL     1      -2.451  13.297  22.009  0.00  0.00    +0.000 A 
ATOM     11  C   UNL     1      -2.184  14.637  21.766  0.00  0.00    +0.000 A 
ATOM     12  C   UNL     1      -3.184  15.538  22.085  0.00  0.00    +0.000 A 
ATOM     13  C   UNL     1      -4.366  15.067  22.660  0.00  0.00    +0.000 A 
ATOM     14  C   UNL     1      -4.494  13.705  22.931  0.00  0.00    +0.000 A 
ATOM     15  N   UNL     1      -3.499  12.834  22.710  0.00  0.00    +0.000 NA
ATOM     16  C   UNL     1      -5.783  13.064  23.194  0.00  0.00    +0.000 A 
ATOM     17  N   UNL     1      -6.050  12.177  24.138  0.00  0.00    +0.000 NA
ATOM     18  N   UNL     1      -7.396  11.902  24.112  0.00  0.00    +0.000 NA
ATOM     19  C   UNL     1      -7.916  12.590  23.125  0.00  0.00    +0.000 A 
ATOM     20  N   UNL     1      -6.927  13.229  22.436  0.00  0.00    +0.000 N 
ATOM     21  C   UNL     1      -7.101  14.071  21.269  0.00  0.00    +0.000 C 
ATOM     22  C   UNL     1      -7.746  13.446  20.013  0.00  0.00    +0.000 C 
ATOM     23  C   UNL     1      -6.797  13.267  18.753  0.00  0.00    +0.000 C 
ATOM     24  C   UNL     1      -6.030  11.879  18.470  0.00  0.00    +0.000 C 
ATOM     25  O   UNL     1      -4.784  11.949  17.641  0.00  0.00    +0.000 OA
ATOM     26  H   UNL     1      -1.120  12.650  20.598  0.00  0.00    +0.000 HD
ENDROOT
BRANCH   1  30
ATOM     27  C   UNL     1       3.469   7.350  17.750  0.00  0.00    +0.000 C 
ATOM     28  N   UNL     1       2.499   8.426  17.814  0.00  0.00    +0.000 N 
ATOM     29  C   UNL     1       1.120   8.344  17.779  0.00  0.00    +0.000 A 
ATOM     30  C   UNL     1       0.617   9.640  17.806  0.00  0.00    +0.000 A 
ATOM     31  C   UNL     1       1.812  10.412  17.899  0.00  0.00    +0.000 A 
ATOM     32  N   UNL     1       2.938   9.681  17.896  0.00  0.00    +0.000 NA
ENDBRANCH   1  30
TORSDOF 1
ENDMDL
MODEL 3
REMARK VINA RESULT:      -7.2      4.388      6.366
REMARK  Name = 
REMARK  2 active torsions:
REMARK  status: ('A' for Active; 'I' for Inactive)
REMARK    1  A    between atoms: C_1  and  N_2
REMARK    2  A    between atoms: C_4  and  C_5
REMARK                            x       y       z     vdW  Elec       q    Type
REMARK                         _______ _______ _______ _____ _____    ______ ____
ROOT
ATOM      1  C   UNL     1       3.554   6.595  18.281  0.00  0.00    +0.000 A 
ATOM      2  C   UNL     1       3.559   5.941  19.523  0.00  0.00    +0.000 A 
ATOM      3  C   UNL     1       2.726   6.378  20.648  0.00  0.00    +0.000 A 
ATOM      4  C   UNL     1       1.854   7.491  20.594  0.00  0.00    +0.000 A 
ATOM      5  C   UNL     1       1.899   8.169  19.364  0.00  0.00    +0.000 A 
ATOM      6  C   UNL     1       2.742   7.727  18.258  0.00  0.00    +0.000 A 
ATOM      7  C   UNL     1       1.022   9.317  19.125  0.00  0.00    +0.000 C 
ATOM      8  O   UNL     1       0.223   9.655  19.998  0.00  0.00    +0.000 OA
ATOM      9  N   UNL     1       1.053   9.904  17.847  0.00  0.00    +0.000 N 
ATOM     10  C   UNL     1       0.133  10.944  17.727  0.00  0.00    +0.000 A 
ATOM     11  C   UNL     1      -1.122  10.562  17.276  0.00  0.00    +0.000 A 
ATOM     12  C   UNL     1      -2.212  11.138  17.904  0.00  0.00    +0.000 A 
ATOM     13  C   UNL     1      -1.996  12.085  18.908  0.00  0.00    +0.000 A 
ATOM     14  C   UNL     1      -0.688  12.450  19.228  0.00  0.00    +0.000 A 
ATOM     15  N   UNL     1       0.372  11.967  18.565  0.00  0.00    +0.000 NA
ATOM     16  C   UNL     1      -0.337  13.144  20.466  0.00  0.00    +0.000 A 
ATOM     17  N   UNL     1       0.492  14.168  20.595  0.00  0.00    +0.000 NA
ATOM     18  N   UNL     1       0.468  14.588  21.903  0.00  0.00    +0.000 NA
ATOM     19  C   UNL     1      -0.337  13.786  22.557  0.00  0.00    +0.000 A 
ATOM     20  N   UNL     1      -0.761  12.785  21.731  0.00  0.00    +0.000 N 
ATOM     21  C   UNL     1      -1.646  11.694  22.091  0.00  0.00    +0.000 C 
ATOM     22  C   UNL     1      -1.202  10.744  23.225  0.00  0.00    +0.000 C 
ATOM     23  C   UNL     1      -0.849   9.257  22.795  0.00  0.00    +0.000 C 
ATOM     24  C   UNL     1       0.666   8.814  22.473  0.00  0.00    +0.000 C 
ATOM     25  O   UNL     1       0.850   7.627  21.577  0.00  0.00    +0.000 OA
ATOM     26  H   UNL     1       1.023   9.217  17.093  0.00  0.00    +0.000 HD
ENDROOT
BRANCH   1  30
ATOM     27  C   UNL     1       5.737   3.869  14.591  0.00  0.00    +0.000 C 
ATOM     28  N   UNL     1       5.257   4.951  15.428  0.00  0.00    +0.000 N 
ATOM     29  C   UNL     1       4.588   4.874  16.635  0.00  0.00    +0.000 A 
ATOM     30  C   UNL     1       4.277   6.170  17.031  0.00  0.00    +0.000 A 
ATOM     31  C   UNL     1       4.857   6.941  15.982  0.00  0.00    +0.000 A 
ATOM     32  N   UNL     1       5.437   6.206  15.019  0.00  0.00    +0.000 NA
ENDBRANCH   1  30
TORSDOF 1
ENDMDL
MODEL 4
REMARK VINA RESULT:      -7.1      2.247      2.843
REMARK  Name = 
REMARK  2 active torsions:
REMARK  status: ('A' for Active; 'I' for Inactive)
REMARK    1  A    between atoms: C_1  and  N_2
REMARK    2  A    between atoms: C_4  and  C_5
REMARK                            x       y       z     vdW  Elec       q    Type
REMARK                         _______ _______ _______ _____ _____    ______ ____
ROOT
ATOM      1  C   UNL     1      -0.427  11.336  20.758  0.00  0.00    +0.000 A 
ATOM      2  C   UNL     1      -0.278  11.274  22.153  0.00  0.00    +0.000 A 
ATOM      3  C   UNL     1      -1.353  11.643  23.078  0.00  0.00    +0.000 A 
ATOM      4  C   UNL     1      -2.627  12.097  22.662  0.00  0.00    +0.000 A 
ATOM      5  C   UNL     1      -2.744  12.207  21.266  0.00  0.00    +0.000 A 
ATOM      6  C   UNL     1      -1.659  11.846  20.359  0.00  0.00    +0.000 A 
ATOM      7  C   UNL     1      -4.014  12.619  20.665  0.00  0.00    +0.000 C 
ATOM      8  O   UNL     1      -4.983  12.831  21.395  0.00  0.00    +0.000 OA
ATOM      9  N   UNL     1      -4.096  12.631  19.261  0.00  0.00    +0.000 N 
ATOM     10  C   UNL     1      -5.370  12.982  18.815  0.00  0.00    +0.000 A 
ATOM     11  C   UNL     1      -6.237  11.913  18.633  0.00  0.00    +0.000 A 
ATOM     12  C   UNL     1      -7.540  12.088  19.066  0.00  0.00    +0.000 A 
ATOM     13  C   UNL     1      -7.916  13.317  19.611  0.00  0.00    +0.000 A 
ATOM     14  C   UNL     1      -6.978  14.348  19.675  0.00  0.00    +0.000 A 
ATOM     15  N   UNL     1      -5.740  14.221  19.177  0.00  0.00    +0.000 NA
ATOM     16  C   UNL     1      -7.148  15.526  20.524  0.00  0.00    +0.000 A 
ATOM     17  N   UNL     1      -6.912  16.785  20.193  0.00  0.00    +0.000 NA
ATOM     18  N   UNL     1      -7.294  17.592  21.238  0.00  0.00    +0.000 NA
ATOM     19  C   UNL     1      -7.712  16.810  22.203  0.00  0.00    +0.000 A 
ATOM     20  N   UNL     1      -7.516  15.504  21.857  0.00  0.00    +0.000 N 
ATOM     21  C   UNL     1      -7.833  14.345  22.668  0.00  0.00    +0.000 C 
ATOM     22  C   UNL     1      -7.148  14.215  24.046  0.00  0.00    +0.000 C 
ATOM     23  C   UNL     1      -6.095  13.037  24.197  0.00  0.00    +0.000 C 
ATOM     24  C   UNL     1      -4.520  13.283  23.965  0.00  0.00    +0.000 C 
ATOM     25  O   UNL     1      -3.695  12.092  23.584  0.00  0.00    +0.000 OA
ATOM     26  H   UNL     1      -3.709  11.790  18.833  0.00  0.00    +0.000 HD
ENDROOT
BRANCH   1  30
ATOM     27  C   UNL     1       2.488   8.514  17.699  0.00  0.00    +0.000 C 
ATOM     28  N   UNL     1       1.859   9.617  18.400  0.00  0.00    +0.000 N 
ATOM     29  C   UNL     1       0.914   9.570  19.407  0.00  0.00    +0.000 A 
ATOM     30  C   UNL     1       0.563  10.879  19.721  0.00  0.00    +0.000 A 
ATOM     31  C   UNL     1       1.410  11.623  18.848  0.00  0.00    +0.000 A 
ATOM     32  N   UNL     1       2.180  10.863  18.052  0.00  0.00    +0.000 NA
ENDBRANCH   1  30
TORSDOF 1
ENDMDL
MODEL 5
REMARK VINA RESULT:      -7.0      3.990      6.623
REMARK  Name = 
REMARK  2 active torsions:
REMARK  status: ('A' for Active; 'I' for Inactive)
REMARK    1  A    between atoms: C_1  and  N_2
REMARK    2  A    between atoms: C_4  and  C_5
REMARK                            x       y       z     vdW  Elec       q    Type
REMARK                         _______ _______ _______ _____ _____    ______ ____
ROOT
ATOM      1  C   UNL     1      -1.204  15.283  23.252  0.00  0.00    +0.000 A 
ATOM      2  C   UNL     1      -0.191  14.696  22.476  0.00  0.00    +0.000 A 
ATOM      3  C   UNL     1      -0.478  13.836  21.323  0.00  0.00    +0.000 A 
ATOM      4  C   UNL     1      -1.786  13.512  20.891  0.00  0.00    +0.000 A 
ATOM      5  C   UNL     1      -2.789  14.061  21.708  0.00  0.00    +0.000 A 
ATOM      6  C   UNL     1      -2.486  14.906  22.859  0.00  0.00    +0.000 A 
ATOM      7  C   UNL     1      -4.200  13.861  21.373  0.00  0.00    +0.000 C 
ATOM      8  O   UNL     1      -4.493  13.240  20.352  0.00  0.00    +0.000 OA
ATOM      9  N   UNL     1      -5.158  14.501  22.181  0.00  0.00    +0.000 N 
ATOM     10  C   UNL     1      -6.457  14.283  21.725  0.00  0.00    +0.000 A 
ATOM     11  C   UNL     1      -6.920  15.225  20.817  0.00  0.00    +0.000 A 
ATOM     12  C   UNL     1      -7.635  14.745  19.733  0.00  0.00    +0.000 A 
ATOM     13  C   UNL     1      -7.882  13.374  19.635  0.00  0.00    +0.000 A 
ATOM     14  C   UNL     1      -7.434  12.527  20.649  0.00  0.00    +0.000 A 
ATOM     15  N   UNL     1      -6.819  12.990  21.747  0.00  0.00    +0.000 NA
ATOM     16  C   UNL     1      -7.325  11.079  20.485  0.00  0.00    +0.000 A 
ATOM     17  N   UNL     1      -7.695  10.151  21.354  0.00  0.00    +0.000 NA
ATOM     18  N   UNL     1      -7.519   8.917  20.777  0.00  0.00    +0.000 NA
ATOM     19  C   UNL     1      -7.001   9.111  19.588  0.00  0.00    +0.000 A 
ATOM     20  N   UNL     1      -6.737  10.438  19.411  0.00  0.00    +0.000 N 
ATOM     21  C   UNL     1      -6.145  11.044  18.234  0.00  0.00    +0.000 C 
ATOM     22  C   UNL     1      -4.737  10.576  17.807  0.00  0.00    +0.000 C 
ATOM     23  C   UNL     1      -3.568  11.639  17.962  0.00  0.00    +0.000 C 
ATOM     24  C   UNL     1      -2.639  11.681  19.277  0.00  0.00    +0.000 C 
ATOM     25  O   UNL     1      -1.972  12.983  19.596  0.00  0.00    +0.000 OA
ATOM     26  H   UNL     1      -4.929  15.477  22.370  0.00  0.00    +0.000 HD
ENDROOT
BRANCH   1  30
ATOM     27  C   UNL     1      -0.272  17.413  27.768  0.00  0.00    +0.000 C 
ATOM     28  N   UNL     1      -0.638  17.181  26.385  0.00  0.00    +0.000 N 
ATOM     29  C   UNL     1      -0.683  15.983  25.697  0.00  0.00    +0.000 A 
ATOM     30  C   UNL     1      -1.028  16.264  24.379  0.00  0.00    +0.000 A 
ATOM     31  C   UNL     1      -1.202  17.678  24.420  0.00  0.00    +0.000 A 
ATOM     32  N   UNL     1      -0.960  18.225  25.623  0.00  0.00    +0.000 NA
ENDBRANCH   1  30
TORSDOF 1
ENDMDL
MODEL 6
REMARK VINA RESULT:      -6.9      7.703     12.575
REMARK  Name = 
REMARK  2 active torsions:
REMARK  status: ('A' for Active; 'I' for Inactive)
REMARK    1  A    between atoms: C_1  and  N_2
REMARK    2  A    between atoms: C_4  and  C_5
REMARK                            x       y       z     vdW  Elec       q    Type
REMARK                         _______ _______ _______ _____ _____    ______ ____
ROOT
ATOM      1  C   UNL     1       2.548  16.468  20.321  0.00  0.00    +0.000 A 
ATOM      2  C   UNL     1       2.413  16.110  21.671  0.00  0.00    +0.000 A 
ATOM      3  C   UNL     1       3.477  15.435  22.420  0.00  0.00    +0.000 A 
ATOM      4  C   UNL     1       4.726  15.077  21.859  0.00  0.00    +0.000 A 
ATOM      5  C   UNL     1       4.828  15.392  20.493  0.00  0.00    +0.000 A 
ATOM      6  C   UNL     1       3.754  16.054  19.760  0.00  0.00    +0.000 A 
ATOM      7  C   UNL     1       6.075  15.130  19.771  0.00  0.00    +0.000 C 
ATOM      8  O   UNL     1       7.038  14.667  20.382  0.00  0.00    +0.000 OA
ATOM      9  N   UNL     1       6.146  15.540  18.427  0.00  0.00    +0.000 N 
ATOM     10  C   UNL     1       7.399  15.290  17.870  0.00  0.00    +0.000 A 
ATOM     11  C   UNL     1       8.311  16.328  18.002  0.00  0.00    +0.000 A 
ATOM     12  C   UNL     1       9.608  15.977  18.335  0.00  0.00    +0.000 A 
ATOM     13  C   UNL     1       9.933  14.627  18.476  0.00  0.00    +0.000 A 
ATOM     14  C   UNL     1       8.951  13.663  18.243  0.00  0.00    +0.000 A 
ATOM     15  N   UNL     1       7.716  13.985  17.833  0.00  0.00    +0.000 NA
ATOM     16  C   UNL     1       9.074  12.278  18.693  0.00  0.00    +0.000 A 
ATOM     17  N   UNL     1       8.779  11.189  18.001  0.00  0.00    +0.000 NA
ATOM     18  N   UNL     1       9.132  10.089  18.745  0.00  0.00    +0.000 NA
ATOM     19  C   UNL     1       9.592  10.524  19.893  0.00  0.00    +0.000 A 
ATOM     20  N   UNL     1       9.452  11.880  19.962  0.00  0.00    +0.000 N 
ATOM     21  C   UNL     1       9.826  12.725  21.079  0.00  0.00    +0.000 C 
ATOM     22  C   UNL     1       9.158  12.459  22.446  0.00  0.00    +0.000 C 
ATOM     23  C   UNL     1       8.160  13.577  22.967  0.00  0.00    +0.000 C 
ATOM     24  C   UNL     1       6.574  13.477  22.704  0.00  0.00    +0.000 C 
ATOM     25  O   UNL     1       5.801  14.760  22.718  0.00  0.00    +0.000 OA
ATOM     26  H   UNL     1       5.794  16.486  18.281  0.00  0.00    +0.000 HD
ENDROOT
BRANCH   1  30
ATOM     27  C   UNL     1       0.057  18.631  16.457  0.00  0.00    +0.000 C 
ATOM     28  N   UNL     1       0.504  18.223  17.775  0.00  0.00    +0.000 N 
ATOM     29  C   UNL     1       1.577  17.419  18.108  0.00  0.00    +0.000 A 
ATOM     30  C   UNL     1       1.573  17.258  19.490  0.00  0.00    +0.000 A 
ATOM     31  C   UNL     1       0.457  18.058  19.871  0.00  0.00    +0.000 A 
ATOM     32  N   UNL     1      -0.186  18.629  18.840  0.00  0.00    +0.000 NA
ENDBRANCH   1  30
TORSDOF 1
ENDMDL
MODEL 7
REMARK VINA RESULT:      -6.9      3.141      5.140
REMARK  Name = 
REMARK  2 active torsions:
REMARK  status: ('A' for Active; 'I' for Inactive)
REMARK    1  A    between atoms: C_1  and  N_2
REMARK    2  A    between atoms: C_4  and  C_5
REMARK                            x       y       z     vdW  Elec       q    Type
REMARK                         _______ _______ _______ _____ _____    ______ ____
ROOT
ATOM      1  C   UNL     1      -2.787  10.427  15.867  0.00  0.00    +0.000 A 
ATOM      2  C   UNL     1      -1.607  10.017  16.508  0.00  0.00    +0.000 A 
ATOM      3  C   UNL     1      -1.323  10.327  17.912  0.00  0.00    +0.000 A 
ATOM      4  C   UNL     1      -2.195  11.068  18.745  0.00  0.00    +0.000 A 
ATOM      5  C   UNL     1      -3.345  11.520  18.077  0.00  0.00    +0.000 A 
ATOM      6  C   UNL     1      -3.608  11.211  16.675  0.00  0.00    +0.000 A 
ATOM      7  C   UNL     1      -4.375  12.262  18.806  0.00  0.00    +0.000 C 
ATOM      8  O   UNL     1      -4.236  12.452  20.015  0.00  0.00    +0.000 OA
ATOM      9  N   UNL     1      -5.541  12.618  18.105  0.00  0.00    +0.000 N 
ATOM     10  C   UNL     1      -6.466  13.265  18.922  0.00  0.00    +0.000 A 
ATOM     11  C   UNL     1      -7.372  12.425  19.555  0.00  0.00    +0.000 A 
ATOM     12  C   UNL     1      -7.657  12.703  20.880  0.00  0.00    +0.000 A 
ATOM     13  C   UNL     1      -7.065  13.813  21.485  0.00  0.00    +0.000 A 
ATOM     14  C   UNL     1      -6.228  14.634  20.729  0.00  0.00    +0.000 A 
ATOM     15  N   UNL     1      -6.015  14.428  19.421  0.00  0.00    +0.000 NA
ATOM     16  C   UNL     1      -5.299  15.591  21.328  0.00  0.00    +0.000 A 
ATOM     17  N   UNL     1      -5.082  16.837  20.939  0.00  0.00    +0.000 NA
ATOM     18  N   UNL     1      -4.213  17.427  21.826  0.00  0.00    +0.000 NA
ATOM     19  C   UNL     1      -3.881  16.518  22.711  0.00  0.00    +0.000 A 
ATOM     20  N   UNL     1      -4.429  15.316  22.366  0.00  0.00    +0.000 N 
ATOM     21  C   UNL     1      -4.275  14.067  23.085  0.00  0.00    +0.000 C 
ATOM     22  C   UNL     1      -2.848  13.507  23.269  0.00  0.00    +0.000 C 
ATOM     23  C   UNL     1      -2.511  12.171  22.480  0.00  0.00    +0.000 C 
ATOM     24  C   UNL     1      -1.802  12.206  21.035  0.00  0.00    +0.000 C 
ATOM     25  O   UNL     1      -2.016  11.020  20.145  0.00  0.00    +0.000 OA
ATOM     26  H   UNL     1      -5.922  11.849  17.553  0.00  0.00    +0.000 HD
ENDROOT
BRANCH   1  30
ATOM     27  C   UNL     1      -5.555   9.603  11.687  0.00  0.00    +0.000 C 
ATOM     28  N   UNL     1      -4.474   9.690  12.650  0.00  0.00    +0.000 N 
ATOM     29  C   UNL     1      -4.528  10.093  13.970  0.00  0.00    +0.000 A 
ATOM     30  C   UNL     1      -3.231  10.073  14.474  0.00  0.00    +0.000 A 
ATOM     31  C   UNL     1      -2.493   9.595  13.352  0.00  0.00    +0.000 A 
ATOM     32  N   UNL     1      -3.240   9.375  12.258  0.00  0.00    +0.000 NA
ENDBRANCH   1  30
TORSDOF 1
ENDMDL
MODEL 8
REMARK VINA RESULT:      -6.9      3.406      5.250
REMARK  Name = 
REMARK  2 active torsions:
REMARK  status: ('A' for Active; 'I' for Inactive)
REMARK    1  A    between atoms: C_1  and  N_2
REMARK    2  A    between atoms: C_4  and  C_5
REMARK                            x       y       z     vdW  Elec       q    Type
REMARK                         _______ _______ _______ _____ _____    ______ ____
ROOT
ATOM      1  C   UNL     1       0.825  13.433  20.489  0.00  0.00    +0.000 A 
ATOM      2  C   UNL     1       1.006  12.522  19.436  0.00  0.00    +0.000 A 
ATOM      3  C   UNL     1      -0.116  11.935  18.698  0.00  0.00    +0.000 A 
ATOM      4  C   UNL     1      -1.474  12.220  18.977  0.00  0.00    +0.000 A 
ATOM      5  C   UNL     1      -1.643  13.089  20.068  0.00  0.00    +0.000 A 
ATOM      6  C   UNL     1      -0.515  13.656  20.799  0.00  0.00    +0.000 A 
ATOM      7  C   UNL     1      -2.986  13.523  20.460  0.00  0.00    +0.000 C 
ATOM      8  O   UNL     1      -3.955  13.147  19.801  0.00  0.00    +0.000 OA
ATOM      9  N   UNL     1      -3.087  14.457  21.507  0.00  0.00    +0.000 N 
ATOM     10  C   UNL     1      -4.408  14.834  21.744  0.00  0.00    +0.000 A 
ATOM     11  C   UNL     1      -4.837  15.937  21.018  0.00  0.00    +0.000 A 
ATOM     12  C   UNL     1      -6.110  15.870  20.479  0.00  0.00    +0.000 A 
ATOM     13  C   UNL     1      -6.893  14.740  20.722  0.00  0.00    +0.000 A 
ATOM     14  C   UNL     1      -6.386  13.723  21.532  0.00  0.00    +0.000 A 
ATOM     15  N   UNL     1      -5.192  13.816  22.134  0.00  0.00    +0.000 NA
ATOM     16  C   UNL     1      -6.955  12.376  21.566  0.00  0.00    +0.000 A 
ATOM     17  N   UNL     1      -7.190  11.641  22.641  0.00  0.00    +0.000 NA
ATOM     18  N   UNL     1      -7.820  10.484  22.250  0.00  0.00    +0.000 NA
ATOM     19  C   UNL     1      -7.916  10.514  20.942  0.00  0.00    +0.000 A 
ATOM     20  N   UNL     1      -7.270  11.614  20.457  0.00  0.00    +0.000 N 
ATOM     21  C   UNL     1      -7.139  11.985  19.062  0.00  0.00    +0.000 C 
ATOM     22  C   UNL     1      -6.433  10.994  18.111  0.00  0.00    +0.000 C 
ATOM     23  C   UNL     1      -5.026  11.454  17.539  0.00  0.00    +0.000 C 
ATOM     24  C   UNL     1      -3.647  11.020  18.250  0.00  0.00    +0.000 C 
ATOM     25  O   UNL     1      -2.456  11.898  18.015  0.00  0.00    +0.000 OA
ATOM     26  H   UNL     1      -2.431  15.232  21.413  0.00  0.00    +0.000 HD
ENDROOT
BRANCH   1  30
ATOM     27  C   UNL     1       5.289  15.092  22.258  0.00  0.00    +0.000 C 
ATOM     28  N   UNL     1       3.874  14.877  22.024  0.00  0.00    +0.000 N 
ATOM     29  C   UNL     1       3.271  13.974  21.168  0.00  0.00    +0.000 A 
ATOM     30  C   UNL     1       1.897  14.178  21.237  0.00  0.00    +0.000 A 
ATOM     31  C   UNL     1       1.807  15.215  22.211  0.00  0.00    +0.000 A 
ATOM     32  N   UNL     1       2.994  15.636  22.674  0.00  0.00    +0.000 NA
ENDBRANCH   1  30
TORSDOF 1
ENDMDL
MODEL 9
REMARK VINA RESULT:      -6.8      5.129      6.274
REMARK  Name = 
REMARK  2 active torsions:
REMARK  status: ('A' for Active; 'I' for Inactive)
REMARK    1  A    between atoms: C_1  and  N_2
REMARK    2  A    between atoms: C_4  and  C_5
REMARK                            x       y       z     vdW  Elec       q    Type
REMARK                         _______ _______ _______ _____ _____    ______ ____
ROOT
ATOM      1  C   UNL     1       1.327   8.398  20.382  0.00  0.00    +0.000 A 
ATOM      2  C   UNL     1       0.389   7.927  21.314  0.00  0.00    +0.000 A 
ATOM      3  C   UNL     1      -0.492   8.823  22.069  0.00  0.00    +0.000 A 
ATOM      4  C   UNL     1      -0.477  10.232  21.938  0.00  0.00    +0.000 A 
ATOM      5  C   UNL     1       0.503  10.694  21.044  0.00  0.00    +0.000 A 
ATOM      6  C   UNL     1       1.380   9.788  20.309  0.00  0.00    +0.000 A 
ATOM      7  C   UNL     1       0.621  12.125  20.757  0.00  0.00    +0.000 C 
ATOM      8  O   UNL     1      -0.170  12.909  21.280  0.00  0.00    +0.000 OA
ATOM      9  N   UNL     1       1.566  12.519  19.793  0.00  0.00    +0.000 N 
ATOM     10  C   UNL     1       1.540  13.895  19.567  0.00  0.00    +0.000 A 
ATOM     11  C   UNL     1       0.674  14.303  18.562  0.00  0.00    +0.000 A 
ATOM     12  C   UNL     1      -0.075  15.440  18.810  0.00  0.00    +0.000 A 
ATOM     13  C   UNL     1       0.106  16.124  20.013  0.00  0.00    +0.000 A 
ATOM     14  C   UNL     1       1.062  15.665  20.920  0.00  0.00    +0.000 A 
ATOM     15  N   UNL     1       1.856  14.619  20.653  0.00  0.00    +0.000 NA
ATOM     16  C   UNL     1       1.089  16.077  22.323  0.00  0.00    +0.000 A 
ATOM     17  N   UNL     1       2.155  16.422  23.028  0.00  0.00    +0.000 NA
ATOM     18  N   UNL     1       1.741  16.838  24.270  0.00  0.00    +0.000 NA
ATOM     19  C   UNL     1       0.438  16.696  24.317  0.00  0.00    +0.000 A 
ATOM     20  N   UNL     1      -0.002  16.098  23.171  0.00  0.00    +0.000 N 
ATOM     21  C   UNL     1      -1.374  15.755  22.856  0.00  0.00    +0.000 C 
ATOM     22  C   UNL     1      -2.114  14.782  23.799  0.00  0.00    +0.000 C 
ATOM     23  C   UNL     1      -2.461  13.353  23.200  0.00  0.00    +0.000 C 
ATOM     24  C   UNL     1      -1.490  12.089  23.428  0.00  0.00    +0.000 C 
ATOM     25  O   UNL     1      -1.572  10.980  22.424  0.00  0.00    +0.000 OA
ATOM     26  H   UNL     1       1.535  11.946  18.949  0.00  0.00    +0.000 HD
ENDROOT
BRANCH   1  30
ATOM     27  C   UNL     1       4.118   4.657  18.374  0.00  0.00    +0.000 C 
ATOM     28  N   UNL     1       3.447   5.919  18.621  0.00  0.00    +0.000 N 
ATOM     29  C   UNL     1       2.691   6.291  19.716  0.00  0.00    +0.000 A 
ATOM     30  C   UNL     1       2.198   7.570  19.476  0.00  0.00    +0.000 A 
ATOM     31  C   UNL     1       2.772   7.867  18.206  0.00  0.00    +0.000 A 
ATOM     32  N   UNL     1       3.513   6.872  17.693  0.00  0.00    +0.000 NA
ENDBRANCH   1  30
TORSDOF 1
ENDMDL
