MODEL 1
REMARK VINA RESULT:      -6.3      0.000      0.000
REMARK  Name = 
REMARK  5 active torsions:
REMARK  status: ('A' for Active; 'I' for Inactive)
REMARK    1  A    between atoms: C_1  and  C_2
REMARK    2  A    between atoms: C_5  and  C_6
REMARK    3  A    between atoms: C_7  and  C_8
REMARK    4  A    between atoms: C_10  and  N_11
REMARK    5  A    between atoms: C_16  and  C_17
REMARK                            x       y       z     vdW  Elec       q    Type
REMARK                         _______ _______ _______ _____ _____    ______ ____
ROOT
ATOM      1  C   UNL     1       0.602  10.470  20.100  0.00  0.00    +0.000 C 
ATOM      2  C   UNL     1       1.308   9.143  19.850  0.00  0.00    +0.000 C 
ATOM      3  C   UNL     1       1.485   8.191  20.801  0.00  0.00    +0.000 C 
ATOM      4  O   UNL     1       0.978   8.349  22.105  0.00  0.00    +0.000 OA
ATOM      5  C   UNL     1       0.244   9.436  22.318  0.00  0.00    +0.000 A 
ATOM      6  N   UNL     1      -0.458   9.668  23.454  0.00  0.00    +0.000 N 
ATOM      7  N   UNL     1      -1.207  10.781  23.381  0.00  0.00    +0.000 NA
ATOM      8  C   UNL     1      -0.917  11.310  22.181  0.00  0.00    +0.000 A 
ATOM      9  C   UNL     1      -0.009  10.482  21.463  0.00  0.00    +0.000 A 
ATOM     10  H   UNL     1      -0.510   9.098  24.292  0.00  0.00    +0.000 HD
ENDROOT
BRANCH   1  15
ATOM     11  C   UNL     1      -3.608  11.335  16.140  0.00  0.00    +0.000 C 
ATOM     12  C   UNL     1      -2.519  11.141  17.151  0.00  0.00    +0.000 A 
ATOM     13  C   UNL     1      -1.564  12.136  17.383  0.00  0.00    +0.000 A 
ATOM     14  C   UNL     1      -0.562  11.953  18.337  0.00  0.00    +0.000 A 
ATOM     15  C   UNL     1      -0.464  10.748  19.051  0.00  0.00    +0.000 A 
ATOM     16  C   UNL     1      -1.444   9.760  18.823  0.00  0.00    +0.000 A 
ATOM     17  C   UNL     1      -2.458   9.955  17.886  0.00  0.00    +0.000 A 
ENDBRANCH   1  15
BRANCH   8  18
ATOM     18  C   UNL     1      -1.605  12.552  21.684  0.00  0.00    +0.000 A 
ATOM     19  C   UNL     1      -2.873  12.606  21.142  0.00  0.00    +0.000 A 
ATOM     20  C   UNL     1      -3.348  13.944  21.009  0.00  0.00    +0.000 A 
ATOM     21  C   UNL     1      -2.388  14.865  21.357  0.00  0.00    +0.000 A 
ATOM     22  S   UNL     1      -0.910  14.116  21.785  0.00  0.00    +0.000 S 
ENDBRANCH   8  18
BRANCH   3  23
ATOM     23  N   UNL     1       2.142   6.995  20.625  0.00  0.00    +0.000 N 
ATOM     24  H   UNL     1       3.048   7.048  20.164  0.00  0.00    +0.000 HD
ATOM     25  H   UNL     1       1.540   6.274  20.235  0.00  0.00    +0.000 HD
ENDBRANCH   3  23
BRANCH   2  26
ATOM     26  C   UNL     1       1.815   8.890  18.440  0.00  0.00    +0.000 C 
ATOM     27  N   UNL     1       2.237   8.682  17.270  0.00  0.00    +0.000 NA
ENDBRANCH   2  26
TORSDOF 4
ENDMDL
MODEL 2
REMARK VINA RESULT:      -6.2      5.833      8.653
REMARK  Name = 
REMARK  5 active torsions:
REMARK  status: ('A' for Active; 'I' for Inactive)
REMARK    1  A    between atoms: C_1  and  C_2
REMARK    2  A    between atoms: C_5  and  C_6
REMARK    3  A    between atoms: C_7  and  C_8
REMARK    4  A    between atoms: C_10  and  N_11
REMARK    5  A    between atoms: C_16  and  C_17
REMARK                            x       y       z     vdW  Elec       q    Type
REMARK                         _______ _______ _______ _____ _____    ______ ____
ROOT
ATOM      1  C   UNL     1       5.306   5.251  18.153  0.00  0.00    +0.000 C 
ATOM      2  C   UNL     1       6.303   5.743  17.112  0.00  0.00    +0.000 C 
ATOM      3  C   UNL     1       6.721   5.000  16.056  0.00  0.00    +0.000 C 
ATOM      4  O   UNL     1       6.217   3.707  15.819  0.00  0.00    +0.000 OA
ATOM      5  C   UNL     1       5.248   3.300  16.632  0.00  0.00    +0.000 A 
ATOM      6  N   UNL     1       4.532   2.163  16.453  0.00  0.00    +0.000 N 
ATOM      7  N   UNL     1       3.537   2.032  17.347  0.00  0.00    +0.000 NA
ATOM      8  C   UNL     1       3.669   3.090  18.163  0.00  0.00    +0.000 A 
ATOM      9  C   UNL     1       4.735   3.933  17.740  0.00  0.00    +0.000 A 
ATOM     10  H   UNL     1       4.635   1.461  15.728  0.00  0.00    +0.000 HD
ENDROOT
BRANCH   1  15
ATOM     11  C   UNL     1       0.996   9.148  18.776  0.00  0.00    +0.000 C 
ATOM     12  C   UNL     1       2.095   8.139  18.644  0.00  0.00    +0.000 A 
ATOM     13  C   UNL     1       2.477   7.341  19.727  0.00  0.00    +0.000 A 
ATOM     14  C   UNL     1       3.492   6.392  19.592  0.00  0.00    +0.000 A 
ATOM     15  C   UNL     1       4.184   6.254  18.377  0.00  0.00    +0.000 A 
ATOM     16  C   UNL     1       3.778   7.050  17.287  0.00  0.00    +0.000 A 
ATOM     17  C   UNL     1       2.747   7.979  17.419  0.00  0.00    +0.000 A 
ENDBRANCH   1  15
BRANCH   8  18
ATOM     18  C   UNL     1       2.695   3.346  19.280  0.00  0.00    +0.000 A 
ATOM     19  C   UNL     1       1.432   3.885  19.138  0.00  0.00    +0.000 A 
ATOM     20  C   UNL     1       0.654   3.762  20.326  0.00  0.00    +0.000 A 
ATOM     21  C   UNL     1       1.383   3.227  21.362  0.00  0.00    +0.000 A 
ATOM     22  S   UNL     1       3.008   2.932  20.914  0.00  0.00    +0.000 S 
ENDBRANCH   8  18
BRANCH   3  23
ATOM     23  N   UNL     1       7.642   5.395  15.113  0.00  0.00    +0.000 N 
ATOM     24  H   UNL     1       7.718   4.803  14.288  0.00  0.00    +0.000 HD
ATOM     25  H   UNL     1       8.544   5.623  15.522  0.00  0.00    +0.000 HD
ENDBRANCH   3  23
BRANCH   2  26
ATOM     26  C   UNL     1       6.830   7.158  17.282  0.00  0.00    +0.000 C 
ATOM     27  N   UNL     1       7.267   8.333  17.421  0.00  0.00    +0.000 NA
ENDBRANCH   2  26
TORSDOF 4
ENDMDL
MODEL 3
REMARK VINA RESULT:      -6.2      0.229      1.011
REMARK  Name = 
REMARK  5 active torsions:
REMARK  status: ('A' for Active; 'I' for Inactive)
REMARK    1  A    between atoms: C_1  and  C_2
REMARK    2  A    between atoms: C_5  and  C_6
REMARK    3  A    between atoms: C_7  and  C_8
REMARK    4  A    between atoms: C_10  and  N_11
REMARK    5  A    between atoms: C_16  and  C_17
REMARK                            x       y       z     vdW  Elec       q    Type
REMARK                         _______ _______ _______ _____ _____    ______ ____
ROOT
ATOM      1  C   UNL     1       0.424  10.528  20.077  0.00  0.00    +0.000 C 
ATOM      2  C   UNL     1       1.201   9.233  19.874  0.00  0.00    +0.000 C 
ATOM      3  C   UNL     1       1.448   8.338  20.865  0.00  0.00    +0.000 C 
ATOM      4  O   UNL     1       0.955   8.528  22.169  0.00  0.00    +0.000 OA
ATOM      5  C   UNL     1       0.162   9.580  22.347  0.00  0.00    +0.000 A 
ATOM      6  N   UNL     1      -0.533   9.824  23.484  0.00  0.00    +0.000 N 
ATOM      7  N   UNL     1      -1.346  10.889  23.374  0.00  0.00    +0.000 NA
ATOM      8  C   UNL     1      -1.107  11.377  22.147  0.00  0.00    +0.000 A 
ATOM      9  C   UNL     1      -0.164  10.569  21.450  0.00  0.00    +0.000 A 
ATOM     10  H   UNL     1      -0.538   9.292  24.347  0.00  0.00    +0.000 HD
ENDROOT
BRANCH   1  15
ATOM     11  C   UNL     1      -3.686  11.376  16.010  0.00  0.00    +0.000 C 
ATOM     12  C   UNL     1      -2.642  11.130  17.057  0.00  0.00    +0.000 A 
ATOM     13  C   UNL     1      -2.602   9.927  17.768  0.00  0.00    +0.000 A 
ATOM     14  C   UNL     1      -1.617   9.700  18.731  0.00  0.00    +0.000 A 
ATOM     15  C   UNL     1      -0.674  10.695  19.037  0.00  0.00    +0.000 A 
ATOM     16  C   UNL     1      -0.712  11.895  18.300  0.00  0.00    +0.000 A 
ATOM     17  C   UNL     1      -1.682  12.110  17.322  0.00  0.00    +0.000 A 
ENDBRANCH   1  15
BRANCH   8  18
ATOM     18  C   UNL     1      -1.873  12.552  21.606  0.00  0.00    +0.000 A 
ATOM     19  C   UNL     1      -3.151  12.510  21.088  0.00  0.00    +0.000 A 
ATOM     20  C   UNL     1      -3.705  13.810  20.902  0.00  0.00    +0.000 A 
ATOM     21  C   UNL     1      -2.793  14.800  21.189  0.00  0.00    +0.000 A 
ATOM     22  S   UNL     1      -1.268  14.156  21.621  0.00  0.00    +0.000 S 
ENDBRANCH   8  18
BRANCH   3  23
ATOM     23  N   UNL     1       2.170   7.174  20.731  0.00  0.00    +0.000 N 
ATOM     24  H   UNL     1       2.056   6.679  19.848  0.00  0.00    +0.000 HD
ATOM     25  H   UNL     1       2.084   6.568  21.541  0.00  0.00    +0.000 HD
ENDBRANCH   3  23
BRANCH   2  26
ATOM     26  C   UNL     1       1.699   8.944  18.468  0.00  0.00    +0.000 C 
ATOM     27  N   UNL     1       2.112   8.705  17.301  0.00  0.00    +0.000 NA
ENDBRANCH   2  26
TORSDOF 4
ENDMDL
MODEL 4
REMARK VINA RESULT:      -6.0     10.054     11.712
REMARK  Name = 
REMARK  5 active torsions:
REMARK  status: ('A' for Active; 'I' for Inactive)
REMARK    1  A    between atoms: C_1  and  C_2
REMARK    2  A    between atoms: C_5  and  C_6
REMARK    3  A    between atoms: C_7  and  C_8
REMARK    4  A    between atoms: C_10  and  N_11
REMARK    5  A    between atoms: C_16  and  C_17
REMARK                            x       y       z     vdW  Elec       q    Type
REMARK                         _______ _______ _______ _____ _____    ______ ____
ROOT
ATOM      1  C   UNL     1       9.179  13.857  18.722  0.00  0.00    +0.000 C 
ATOM      2  C   UNL     1      10.099  12.662  18.514  0.00  0.00    +0.000 C 
ATOM      3  C   UNL     1      11.106  12.634  17.603  0.00  0.00    +0.000 C 
ATOM      4  O   UNL     1      11.404  13.752  16.800  0.00  0.00    +0.000 OA
ATOM      5  C   UNL     1      10.706  14.854  17.051  0.00  0.00    +0.000 A 
ATOM      6  N   UNL     1      10.969  16.063  16.497  0.00  0.00    +0.000 N 
ATOM      7  N   UNL     1      10.193  17.040  16.995  0.00  0.00    +0.000 NA
ATOM      8  C   UNL     1       9.361  16.416  17.845  0.00  0.00    +0.000 A 
ATOM      9  C   UNL     1       9.659  15.026  17.925  0.00  0.00    +0.000 A 
ATOM     10  H   UNL     1      11.682  16.303  15.817  0.00  0.00    +0.000 HD
ENDROOT
BRANCH   1  15
ATOM     11  C   UNL     1       9.008  15.416  24.352  0.00  0.00    +0.000 C 
ATOM     12  C   UNL     1       9.022  15.012  22.910  0.00  0.00    +0.000 A 
ATOM     13  C   UNL     1       7.864  14.546  22.279  0.00  0.00    +0.000 A 
ATOM     14  C   UNL     1       7.882  14.186  20.930  0.00  0.00    +0.000 A 
ATOM     15  C   UNL     1       9.076  14.240  20.192  0.00  0.00    +0.000 A 
ATOM     16  C   UNL     1      10.231  14.729  20.832  0.00  0.00    +0.000 A 
ATOM     17  C   UNL     1      10.205  15.111  22.173  0.00  0.00    +0.000 A 
ENDBRANCH   1  15
BRANCH   8  18
ATOM     18  C   UNL     1       8.359  17.180  18.666  0.00  0.00    +0.000 A 
ATOM     19  C   UNL     1       6.994  16.974  18.665  0.00  0.00    +0.000 A 
ATOM     20  C   UNL     1       6.341  17.662  19.729  0.00  0.00    +0.000 A 
ATOM     21  C   UNL     1       7.216  18.450  20.441  0.00  0.00    +0.000 A 
ATOM     22  S   UNL     1       8.797  18.398  19.790  0.00  0.00    +0.000 S 
ENDBRANCH   8  18
BRANCH   3  23
ATOM     23  N   UNL     1      11.939  11.566  17.363  0.00  0.00    +0.000 N 
ATOM     24  H   UNL     1      12.803  11.777  16.868  0.00  0.00    +0.000 HD
ATOM     25  H   UNL     1      11.444  10.767  16.975  0.00  0.00    +0.000 HD
ENDBRANCH   3  23
BRANCH   2  26
ATOM     26  C   UNL     1       9.865  11.452  19.402  0.00  0.00    +0.000 C 
ATOM     27  N   UNL     1       9.671  10.447  20.138  0.00  0.00    +0.000 NA
ENDBRANCH   2  26
TORSDOF 4
ENDMDL
MODEL 5
REMARK VINA RESULT:      -5.9     10.258     11.823
REMARK  Name = 
REMARK  5 active torsions:
REMARK  status: ('A' for Active; 'I' for Inactive)
REMARK    1  A    between atoms: C_1  and  C_2
REMARK    2  A    between atoms: C_5  and  C_6
REMARK    3  A    between atoms: C_7  and  C_8
REMARK    4  A    between atoms: C_10  and  N_11
REMARK    5  A    between atoms: C_16  and  C_17
REMARK                            x       y       z     vdW  Elec       q    Type
REMARK                         _______ _______ _______ _____ _____    ______ ____
ROOT
ATOM      1  C   UNL     1       9.266  14.586  18.144  0.00  0.00    +0.000 C 
ATOM      2  C   UNL     1      10.328  13.613  17.648  0.00  0.00    +0.000 C 
ATOM      3  C   UNL     1      11.372  13.973  16.857  0.00  0.00    +0.000 C 
ATOM      4  O   UNL     1      11.574  15.311  16.467  0.00  0.00    +0.000 OA
ATOM      5  C   UNL     1      10.741  16.204  16.991  0.00  0.00    +0.000 A 
ATOM      6  N   UNL     1      10.886  17.545  16.863  0.00  0.00    +0.000 N 
ATOM      7  N   UNL     1       9.980  18.234  17.577  0.00  0.00    +0.000 NA
ATOM      8  C   UNL     1       9.189  17.296  18.122  0.00  0.00    +0.000 A 
ATOM      9  C   UNL     1       9.643  15.988  17.790  0.00  0.00    +0.000 A 
ATOM     10  H   UNL     1      11.596  18.057  16.350  0.00  0.00    +0.000 HD
ENDROOT
BRANCH   1  15
ATOM     11  C   UNL     1       8.669  14.237  23.947  0.00  0.00    +0.000 C 
ATOM     12  C   UNL     1       8.793  14.321  22.456  0.00  0.00    +0.000 A 
ATOM     13  C   UNL     1       7.701  14.052  21.625  0.00  0.00    +0.000 A 
ATOM     14  C   UNL     1       7.821  14.148  20.237  0.00  0.00    +0.000 A 
ATOM     15  C   UNL     1       9.054  14.471  19.646  0.00  0.00    +0.000 A 
ATOM     16  C   UNL     1      10.141  14.759  20.494  0.00  0.00    +0.000 A 
ATOM     17  C   UNL     1      10.012  14.686  21.880  0.00  0.00    +0.000 A 
ENDBRANCH   1  15
BRANCH   8  18
ATOM     18  C   UNL     1       8.068  17.659  19.057  0.00  0.00    +0.000 A 
ATOM     19  C   UNL     1       6.738  17.338  18.881  0.00  0.00    +0.000 A 
ATOM     20  C   UNL     1       5.962  17.585  20.051  0.00  0.00    +0.000 A 
ATOM     21  C   UNL     1       6.706  18.180  21.043  0.00  0.00    +0.000 A 
ATOM     22  S   UNL     1       8.312  18.488  20.538  0.00  0.00    +0.000 S 
ENDBRANCH   8  18
BRANCH   3  23
ATOM     23  N   UNL     1      12.333  13.122  16.363  0.00  0.00    +0.000 N 
ATOM     24  H   UNL     1      12.003  12.211  16.050  0.00  0.00    +0.000 HD
ATOM     25  H   UNL     1      13.148  13.063  16.968  0.00  0.00    +0.000 HD
ENDBRANCH   3  23
BRANCH   2  26
ATOM     26  C   UNL     1      10.197  12.167  18.095  0.00  0.00    +0.000 C 
ATOM     27  N   UNL     1      10.088  10.967  18.467  0.00  0.00    +0.000 NA
ENDBRANCH   2  26
TORSDOF 4
ENDMDL
MODEL 6
REMARK VINA RESULT:      -5.5      9.089     10.271
REMARK  Name = 
REMARK  5 active torsions:
REMARK  status: ('A' for Active; 'I' for Inactive)
REMARK    1  A    between atoms: C_1  and  C_2
REMARK    2  A    between atoms: C_5  and  C_6
REMARK    3  A    between atoms: C_7  and  C_8
REMARK    4  A    between atoms: C_10  and  N_11
REMARK    5  A    between atoms: C_16  and  C_17
REMARK                            x       y       z     vdW  Elec       q    Type
REMARK                         _______ _______ _______ _____ _____    ______ ____
ROOT
ATOM      1  C   UNL     1       9.969  14.050  19.973  0.00  0.00    +0.000 C 
ATOM      2  C   UNL     1      10.730  13.642  18.718  0.00  0.00    +0.000 C 
ATOM      3  C   UNL     1      11.142  12.373  18.464  0.00  0.00    +0.000 C 
ATOM      4  O   UNL     1      10.848  11.313  19.343  0.00  0.00    +0.000 OA
ATOM      5  C   UNL     1      10.072  11.612  20.380  0.00  0.00    +0.000 A 
ATOM      6  N   UNL     1       9.553  10.694  21.230  0.00  0.00    +0.000 N 
ATOM      7  N   UNL     1       8.713  11.236  22.127  0.00  0.00    +0.000 NA
ATOM      8  C   UNL     1       8.754  12.556  21.880  0.00  0.00    +0.000 A 
ATOM      9  C   UNL     1       9.595  12.842  20.767  0.00  0.00    +0.000 A 
ATOM     10  H   UNL     1       9.689   9.689  21.233  0.00  0.00    +0.000 HD
ENDROOT
BRANCH   1  15
ATOM     11  C   UNL     1       5.087  16.951  18.591  0.00  0.00    +0.000 C 
ATOM     12  C   UNL     1       6.347  16.230  18.963  0.00  0.00    +0.000 A 
ATOM     13  C   UNL     1       7.315  16.837  19.769  0.00  0.00    +0.000 A 
ATOM     14  C   UNL     1       8.479  16.152  20.124  0.00  0.00    +0.000 A 
ATOM     15  C   UNL     1       8.723  14.857  19.639  0.00  0.00    +0.000 A 
ATOM     16  C   UNL     1       7.732  14.248  18.843  0.00  0.00    +0.000 A 
ATOM     17  C   UNL     1       6.559  14.925  18.511  0.00  0.00    +0.000 A 
ENDBRANCH   1  15
BRANCH   8  18
ATOM     18  C   UNL     1       7.893  13.525  22.642  0.00  0.00    +0.000 A 
ATOM     19  C   UNL     1       6.548  13.747  22.427  0.00  0.00    +0.000 A 
ATOM     20  C   UNL     1       5.952  14.518  23.467  0.00  0.00    +0.000 A 
ATOM     21  C   UNL     1       6.884  14.944  24.386  0.00  0.00    +0.000 A 
ATOM     22  S   UNL     1       8.469  14.460  23.958  0.00  0.00    +0.000 S 
ENDBRANCH   8  18
BRANCH   3  23
ATOM     23  N   UNL     1      11.856  11.969  17.360  0.00  0.00    +0.000 N 
ATOM     24  H   UNL     1      11.348  11.964  16.477  0.00  0.00    +0.000 HD
ATOM     25  H   UNL     1      12.375  11.111  17.525  0.00  0.00    +0.000 HD
ENDBRANCH   3  23
BRANCH   2  26
ATOM     26  C   UNL     1      11.015  14.734  17.702  0.00  0.00    +0.000 C 
ATOM     27  N   UNL     1      11.252  15.642  16.859  0.00  0.00    +0.000 NA
ENDBRANCH   2  26
TORSDOF 4
ENDMDL
MODEL 7
REMARK VINA RESULT:      -5.5      3.811      5.904
REMARK  Name = 
REMARK  5 active torsions:
REMARK  status: ('A' for Active; 'I' for Inactive)
REMARK    1  A    between atoms: C_1  and  C_2
REMARK    2  A    between atoms: C_5  and  C_6
REMARK    3  A    between atoms: C_7  and  C_8
REMARK    4  A    between atoms: C_10  and  N_11
REMARK    5  A    between atoms: C_16  and  C_17
REMARK                            x       y       z     vdW  Elec       q    Type
REMARK                         _______ _______ _______ _____ _____    ______ ____
ROOT
ATOM      1  C   UNL     1      -2.957  11.893  20.215  0.00  0.00    +0.000 C 
ATOM      2  C   UNL     1      -1.488  12.055  19.846  0.00  0.00    +0.000 C 
ATOM      3  C   UNL     1      -1.021  12.016  18.572  0.00  0.00    +0.000 C 
ATOM      4  O   UNL     1      -1.888  11.862  17.474  0.00  0.00    +0.000 OA
ATOM      5  C   UNL     1      -3.187  11.851  17.753  0.00  0.00    +0.000 A 
ATOM      6  N   UNL     1      -4.166  11.881  16.815  0.00  0.00    +0.000 N 
ATOM      7  N   UNL     1      -5.394  11.975  17.353  0.00  0.00    +0.000 NA
ATOM      8  C   UNL     1      -5.191  11.935  18.680  0.00  0.00    +0.000 A 
ATOM      9  C   UNL     1      -3.801  11.871  18.983  0.00  0.00    +0.000 A 
ATOM     10  H   UNL     1      -4.072  11.884  15.805  0.00  0.00    +0.000 HD
ENDROOT
BRANCH   1  15
ATOM     11  C   UNL     1      -4.801  15.976  23.967  0.00  0.00    +0.000 C 
ATOM     12  C   UNL     1      -4.319  14.951  22.987  0.00  0.00    +0.000 A 
ATOM     13  C   UNL     1      -3.796  15.329  21.747  0.00  0.00    +0.000 A 
ATOM     14  C   UNL     1      -3.334  14.367  20.845  0.00  0.00    +0.000 A 
ATOM     15  C   UNL     1      -3.430  12.999  21.147  0.00  0.00    +0.000 A 
ATOM     16  C   UNL     1      -3.940  12.632  22.408  0.00  0.00    +0.000 A 
ATOM     17  C   UNL     1      -4.378  13.595  23.316  0.00  0.00    +0.000 A 
ENDBRANCH   1  15
BRANCH   8  18
ATOM     18  C   UNL     1      -6.328  12.076  19.653  0.00  0.00    +0.000 A 
ATOM     19  C   UNL     1      -6.918  11.045  20.356  0.00  0.00    +0.000 A 
ATOM     20  C   UNL     1      -7.782  11.517  21.387  0.00  0.00    +0.000 A 
ATOM     21  C   UNL     1      -7.900  12.887  21.368  0.00  0.00    +0.000 A 
ATOM     22  S   UNL     1      -7.019  13.586  20.079  0.00  0.00    +0.000 S 
ENDBRANCH   8  18
BRANCH   3  23
ATOM     23  N   UNL     1       0.299  12.127  18.199  0.00  0.00    +0.000 N 
ATOM     24  H   UNL     1       0.874  12.738  18.775  0.00  0.00    +0.000 HD
ATOM     25  H   UNL     1       0.409  12.299  17.204  0.00  0.00    +0.000 HD
ENDBRANCH   3  23
BRANCH   2  26
ATOM     26  C   UNL     1      -0.515  12.291  20.989  0.00  0.00    +0.000 C 
ATOM     27  N   UNL     1       0.291  12.488  21.938  0.00  0.00    +0.000 NA
ENDBRANCH   2  26
TORSDOF 4
ENDMDL
MODEL 8
REMARK VINA RESULT:      -5.5      4.357      6.476
REMARK  Name = 
REMARK  5 active torsions:
REMARK  status: ('A' for Active; 'I' for Inactive)
REMARK    1  A    between atoms: C_1  and  C_2
REMARK    2  A    between atoms: C_5  and  C_6
REMARK    3  A    between atoms: C_7  and  C_8
REMARK    4  A    between atoms: C_10  and  N_11
REMARK    5  A    between atoms: C_16  and  C_17
REMARK                            x       y       z     vdW  Elec       q    Type
REMARK                         _______ _______ _______ _____ _____    ______ ____
ROOT
ATOM      1  C   UNL     1      -4.180  11.772  19.850  0.00  0.00    +0.000 C 
ATOM      2  C   UNL     1      -3.021  11.709  18.864  0.00  0.00    +0.000 C 
ATOM      3  C   UNL     1      -3.178  11.686  17.515  0.00  0.00    +0.000 C 
ATOM      4  O   UNL     1      -4.451  11.765  16.920  0.00  0.00    +0.000 OA
ATOM      5  C   UNL     1      -5.473  11.954  17.749  0.00  0.00    +0.000 A 
ATOM      6  N   UNL     1      -6.739  12.219  17.347  0.00  0.00    +0.000 N 
ATOM      7  N   UNL     1      -7.564  12.480  18.374  0.00  0.00    +0.000 NA
ATOM      8  C   UNL     1      -6.810  12.307  19.472  0.00  0.00    +0.000 A 
ATOM      9  C   UNL     1      -5.467  11.986  19.124  0.00  0.00    +0.000 A 
ATOM     10  H   UNL     1      -7.100  12.282  16.401  0.00  0.00    +0.000 HD
ENDROOT
BRANCH   1  15
ATOM     11  C   UNL     1      -3.450  16.151  23.651  0.00  0.00    +0.000 C 
ATOM     12  C   UNL     1      -3.639  15.009  22.699  0.00  0.00    +0.000 A 
ATOM     13  C   UNL     1      -3.715  13.691  23.160  0.00  0.00    +0.000 A 
ATOM     14  C   UNL     1      -3.907  12.634  22.268  0.00  0.00    +0.000 A 
ATOM     15  C   UNL     1      -3.980  12.869  20.885  0.00  0.00    +0.000 A 
ATOM     16  C   UNL     1      -3.922  14.203  20.435  0.00  0.00    +0.000 A 
ATOM     17  C   UNL     1      -3.754  15.259  21.330  0.00  0.00    +0.000 A 
ENDBRANCH   1  15
BRANCH   8  18
ATOM     18  C   UNL     1      -7.355  12.566  20.849  0.00  0.00    +0.000 A 
ATOM     19  C   UNL     1      -7.676  11.601  21.781  0.00  0.00    +0.000 A 
ATOM     20  C   UNL     1      -7.916  12.154  23.073  0.00  0.00    +0.000 A 
ATOM     21  C   UNL     1      -7.870  13.529  23.058  0.00  0.00    +0.000 A 
ATOM     22  S   UNL     1      -7.596  14.141  21.483  0.00  0.00    +0.000 S 
ENDBRANCH   8  18
BRANCH   3  23
ATOM     23  N   UNL     1      -2.161  11.599  16.592  0.00  0.00    +0.000 N 
ATOM     24  H   UNL     1      -1.375  11.006  16.851  0.00  0.00    +0.000 HD
ATOM     25  H   UNL     1      -1.875  12.510  16.242  0.00  0.00    +0.000 HD
ENDBRANCH   3  23
BRANCH   2  26
ATOM     26  C   UNL     1      -1.620  11.691  19.450  0.00  0.00    +0.000 C 
ATOM     27  N   UNL     1      -0.457  11.674  19.938  0.00  0.00    +0.000 NA
ENDBRANCH   2  26
TORSDOF 4
ENDMDL
MODEL 9
REMARK VINA RESULT:      -5.4      9.471     10.916
REMARK  Name = 
REMARK  5 active torsions:
REMARK  status: ('A' for Active; 'I' for Inactive)
REMARK    1  A    between atoms: C_1  and  C_2
REMARK    2  A    between atoms: C_5  and  C_6
REMARK    3  A    between atoms: C_7  and  C_8
REMARK    4  A    between atoms: C_10  and  N_11
REMARK    5  A    between atoms: C_16  and  C_17
REMARK                            x       y       z     vdW  Elec       q    Type
REMARK                         _______ _______ _______ _____ _____    ______ ____
ROOT
ATOM      1  C   UNL     1      10.187  14.388  19.435  0.00  0.00    +0.000 C 
ATOM      2  C   UNL     1      10.650  14.437  17.985  0.00  0.00    +0.000 C 
ATOM      3  C   UNL     1      10.964  13.336  17.255  0.00  0.00    +0.000 C 
ATOM      4  O   UNL     1      10.838  12.039  17.788  0.00  0.00    +0.000 OA
ATOM      5  C   UNL     1      10.310  11.955  19.005  0.00  0.00    +0.000 A 
ATOM      6  N   UNL     1       9.961  10.791  19.603  0.00  0.00    +0.000 N 
ATOM      7  N   UNL     1       9.347  10.980  20.784  0.00  0.00    +0.000 NA
ATOM      8  C   UNL     1       9.369  12.310  20.971  0.00  0.00    +0.000 A 
ATOM      9  C   UNL     1       9.959  12.974  19.859  0.00  0.00    +0.000 A 
ATOM     10  H   UNL     1      10.068   9.845  19.254  0.00  0.00    +0.000 HD
ENDROOT
BRANCH   1  15
ATOM     11  C   UNL     1       5.194  17.338  20.159  0.00  0.00    +0.000 C 
ATOM     12  C   UNL     1       6.487  16.601  19.992  0.00  0.00    +0.000 A 
ATOM     13  C   UNL     1       7.671  17.083  20.559  0.00  0.00    +0.000 A 
ATOM     14  C   UNL     1       8.870  16.382  20.411  0.00  0.00    +0.000 A 
ATOM     15  C   UNL     1       8.919  15.203  19.649  0.00  0.00    +0.000 A 
ATOM     16  C   UNL     1       7.717  14.717  19.099  0.00  0.00    +0.000 A 
ATOM     17  C   UNL     1       6.517  15.406  19.269  0.00  0.00    +0.000 A 
ENDBRANCH   1  15
BRANCH   8  18
ATOM     18  C   UNL     1       8.716  12.945  22.168  0.00  0.00    +0.000 A 
ATOM     19  C   UNL     1       9.237  13.984  22.911  0.00  0.00    +0.000 A 
ATOM     20  C   UNL     1       8.281  14.541  23.810  0.00  0.00    +0.000 A 
ATOM     21  C   UNL     1       7.097  13.841  23.794  0.00  0.00    +0.000 A 
ATOM     22  S   UNL     1       7.167  12.492  22.744  0.00  0.00    +0.000 S 
ENDBRANCH   8  18
BRANCH   3  23
ATOM     23  N   UNL     1      11.415  13.338  15.956  0.00  0.00    +0.000 N 
ATOM     24  H   UNL     1      11.421  14.243  15.488  0.00  0.00    +0.000 HD
ATOM     25  H   UNL     1      10.992  12.604  15.396  0.00  0.00    +0.000 HD
ENDBRANCH   3  23
BRANCH   2  26
ATOM     26  C   UNL     1      10.739  15.809  17.338  0.00  0.00    +0.000 C 
ATOM     27  N   UNL     1      10.814  16.947  16.802  0.00  0.00    +0.000 NA
ENDBRANCH   2  26
TORSDOF 4
ENDMDL
