MODEL 1
REMARK VINA RESULT:      -8.2      0.000      0.000
REMARK  Name = 
REMARK  8 active torsions:
REMARK  status: ('A' for Active; 'I' for Inactive)
REMARK    1  A    between atoms: C_1  and  C_2
REMARK    2  A    between atoms: N_4  and  C_5
REMARK    3  A    between atoms: C_8  and  S_9
REMARK    4  A    between atoms: S_9  and  C_12
REMARK    5  A    between atoms: C_12  and  C_13
REMARK    6  A    between atoms: C_12  and  C_15
REMARK    7  A    between atoms: C_24  and  N_25
REMARK    8  A    between atoms: N_25  and  C_26
REMARK                            x       y       z     vdW  Elec       q    Type
REMARK                         _______ _______ _______ _____ _____    ______ ____
ROOT
ATOM      1  C   UNL     1       5.694   6.088  18.844  0.00  0.00    +0.000 C 
ENDROOT
BRANCH   1   2
ATOM      2  C   UNL     1       4.429   5.348  19.169  0.00  0.00    +0.000 A 
ATOM      3  N   UNL     1       4.429   4.050  19.532  0.00  0.00    +0.000 NA
ATOM      4  C   UNL     1       3.234   3.436  19.350  0.00  0.00    +0.000 A 
ATOM      5  C   UNL     1       2.587   2.622  20.270  0.00  0.00    +0.000 A 
ATOM      6  C   UNL     1       1.362   2.030  19.947  0.00  0.00    +0.000 A 
ATOM      7  C   UNL     1       0.944   2.071  18.624  0.00  0.00    +0.000 A 
ATOM      8  C   UNL     1       1.535   3.004  17.785  0.00  0.00    +0.000 A 
ATOM      9  C   UNL     1       2.395   3.925  18.375  0.00  0.00    +0.000 A 
ATOM     10  N   UNL     1       2.273   5.280  18.336  0.00  0.00    +0.000 NA
ATOM     11  C   UNL     1       3.199   5.957  19.032  0.00  0.00    +0.000 A 
BRANCH  11  12
ATOM     12  N   UNL     1       2.998   7.077  19.830  0.00  0.00    +0.000 N 
ATOM     13  H   UNL     1       3.491   6.953  20.724  0.00  0.00    +0.000 HD
BRANCH  12  14
ATOM     14  C   UNL     1       1.729   7.732  20.110  0.00  0.00    +0.000 C 
ATOM     15  C   UNL     1       1.667   8.494  21.444  0.00  0.00    +0.000 C 
ATOM     16  C   UNL     1       0.679   9.643  21.196  0.00  0.00    +0.000 C 
ATOM     17  C   UNL     1       0.730   9.938  19.702  0.00  0.00    +0.000 C 
ATOM     18  C   UNL     1       1.662   8.899  19.107  0.00  0.00    +0.000 C 
ENDBRANCH  12  14
ENDBRANCH  11  12
ENDBRANCH   1   2
BRANCH   1  19
ATOM     19  S   UNL     1       5.506   6.965  17.330  0.00  0.00    +0.000 S 
ATOM     20  O   UNL     1       6.554   7.956  17.205  0.00  0.00    +0.000 OA
ATOM     21  O   UNL     1       4.106   7.354  17.158  0.00  0.00    +0.000 OA
BRANCH  19  25
ATOM     22  C   UNL     1       6.211   3.857  14.046  0.00  0.00    +0.000 A 
ATOM     23  C   UNL     1       7.102   4.920  14.230  0.00  0.00    +0.000 A 
ATOM     24  C   UNL     1       6.902   5.856  15.243  0.00  0.00    +0.000 A 
ATOM     25  C   UNL     1       5.781   5.743  16.063  0.00  0.00    +0.000 A 
ATOM     26  C   UNL     1       4.884   4.685  15.908  0.00  0.00    +0.000 A 
ATOM     27  C   UNL     1       5.100   3.751  14.891  0.00  0.00    +0.000 A 
BRANCH  22  31
ATOM     28  C   UNL     1       5.922   1.512  11.105  0.00  0.00    +0.000 C 
ATOM     29  C   UNL     1       5.554   2.709  11.932  0.00  0.00    +0.000 C 
ATOM     30  O   UNL     1       4.595   3.408  11.611  0.00  0.00    +0.000 OA
ATOM     31  N   UNL     1       6.375   2.887  13.032  0.00  0.00    +0.000 N 
ATOM     32  H   UNL     1       7.209   2.320  13.078  0.00  0.00    +0.000 HD
ENDBRANCH  22  31
ENDBRANCH  19  25
ENDBRANCH   1  19
BRANCH   1  33
ATOM     33  C   UNL     1       6.893   5.258  18.679  0.00  0.00    +0.000 C 
ATOM     34  N   UNL     1       7.869   4.641  18.568  0.00  0.00    +0.000 NA
ENDBRANCH   1  33
TORSDOF 7
ENDMDL
MODEL 2
REMARK VINA RESULT:      -8.1      2.536      7.687
REMARK  Name = 
REMARK  8 active torsions:
REMARK  status: ('A' for Active; 'I' for Inactive)
REMARK    1  A    between atoms: C_1  and  C_2
REMARK    2  A    between atoms: N_4  and  C_5
REMARK    3  A    between atoms: C_8  and  S_9
REMARK    4  A    between atoms: S_9  and  C_12
REMARK    5  A    between atoms: C_12  and  C_13
REMARK    6  A    between atoms: C_12  and  C_15
REMARK    7  A    between atoms: C_24  and  N_25
REMARK    8  A    between atoms: N_25  and  C_26
REMARK                            x       y       z     vdW  Elec       q    Type
REMARK                         _______ _______ _______ _____ _____    ______ ____
ROOT
ATOM      1  C   UNL     1       4.123   2.749  18.471  0.00  0.00    +0.000 C 
ENDROOT
BRANCH   1   2
ATOM      2  C   UNL     1       5.095   3.805  18.033  0.00  0.00    +0.000 A 
ATOM      3  N   UNL     1       5.879   4.467  18.907  0.00  0.00    +0.000 NA
ATOM      4  C   UNL     1       6.340   5.651  18.432  0.00  0.00    +0.000 A 
ATOM      5  C   UNL     1       7.651   6.104  18.504  0.00  0.00    +0.000 A 
ATOM      6  C   UNL     1       7.991   7.359  17.992  0.00  0.00    +0.000 A 
ATOM      7  C   UNL     1       6.963   8.226  17.647  0.00  0.00    +0.000 A 
ATOM      8  C   UNL     1       5.699   7.689  17.454  0.00  0.00    +0.000 A 
ATOM      9  C   UNL     1       5.594   6.302  17.476  0.00  0.00    +0.000 A 
ATOM     10  N   UNL     1       5.112   5.514  16.476  0.00  0.00    +0.000 NA
ATOM     11  C   UNL     1       5.166   4.195  16.712  0.00  0.00    +0.000 A 
BRANCH  11  12
ATOM     12  N   UNL     1       5.524   3.195  15.815  0.00  0.00    +0.000 N 
ATOM     13  H   UNL     1       5.832   2.363  16.336  0.00  0.00    +0.000 HD
BRANCH  12  14
ATOM     14  C   UNL     1       6.387   3.334  14.651  0.00  0.00    +0.000 C 
ATOM     15  C   UNL     1       5.667   3.693  13.342  0.00  0.00    +0.000 C 
ATOM     16  C   UNL     1       6.694   4.502  12.536  0.00  0.00    +0.000 C 
ATOM     17  C   UNL     1       7.624   5.149  13.555  0.00  0.00    +0.000 C 
ATOM     18  C   UNL     1       7.183   4.628  14.908  0.00  0.00    +0.000 C 
ENDBRANCH  12  14
ENDBRANCH  11  12
ENDBRANCH   1   2
BRANCH   1  19
ATOM     19  S   UNL     1       2.484   3.223  18.043  0.00  0.00    +0.000 S 
ATOM     20  O   UNL     1       1.545   2.232  18.526  0.00  0.00    +0.000 OA
ATOM     21  O   UNL     1       2.445   3.647  16.643  0.00  0.00    +0.000 OA
BRANCH  19  25
ATOM     22  C   UNL     1       1.774   7.080  20.402  0.00  0.00    +0.000 A 
ATOM     23  C   UNL     1       2.198   7.122  19.070  0.00  0.00    +0.000 A 
ATOM     24  C   UNL     1       2.395   5.951  18.342  0.00  0.00    +0.000 A 
ATOM     25  C   UNL     1       2.191   4.720  18.963  0.00  0.00    +0.000 A 
ATOM     26  C   UNL     1       1.755   4.650  20.287  0.00  0.00    +0.000 A 
ATOM     27  C   UNL     1       1.558   5.834  21.004  0.00  0.00    +0.000 A 
BRANCH  22  31
ATOM     28  C   UNL     1       0.436  10.011  22.364  0.00  0.00    +0.000 C 
ATOM     29  C   UNL     1       0.353   8.672  21.692  0.00  0.00    +0.000 C 
ATOM     30  O   UNL     1      -0.723   8.080  21.629  0.00  0.00    +0.000 OA
ATOM     31  N   UNL     1       1.563   8.241  21.177  0.00  0.00    +0.000 N 
ATOM     32  H   UNL     1       2.385   8.767  21.439  0.00  0.00    +0.000 HD
ENDBRANCH  22  31
ENDBRANCH  19  25
ENDBRANCH   1  19
BRANCH   1  33
ATOM     33  C   UNL     1       4.094   2.468  19.912  0.00  0.00    +0.000 C 
ATOM     34  N   UNL     1       4.049   2.201  21.040  0.00  0.00    +0.000 NA
ENDBRANCH   1  33
TORSDOF 7
ENDMDL
MODEL 3
REMARK VINA RESULT:      -8.0      4.397      7.646
REMARK  Name = 
REMARK  8 active torsions:
REMARK  status: ('A' for Active; 'I' for Inactive)
REMARK    1  A    between atoms: C_1  and  C_2
REMARK    2  A    between atoms: N_4  and  C_5
REMARK    3  A    between atoms: C_8  and  S_9
REMARK    4  A    between atoms: S_9  and  C_12
REMARK    5  A    between atoms: C_12  and  C_13
REMARK    6  A    between atoms: C_12  and  C_15
REMARK    7  A    between atoms: C_24  and  N_25
REMARK    8  A    between atoms: N_25  and  C_26
REMARK                            x       y       z     vdW  Elec       q    Type
REMARK                         _______ _______ _______ _____ _____    ______ ____
ROOT
ATOM      1  C   UNL     1       0.816  10.669  19.997  0.00  0.00    +0.000 C 
ENDROOT
BRANCH   1   2
ATOM      2  C   UNL     1      -0.538  10.788  19.361  0.00  0.00    +0.000 A 
ATOM      3  N   UNL     1      -1.139   9.747  18.751  0.00  0.00    +0.000 NA
ATOM      4  C   UNL     1      -2.100  10.118  17.869  0.00  0.00    +0.000 A 
ATOM      5  C   UNL     1      -3.374   9.573  17.774  0.00  0.00    +0.000 A 
ATOM      6  C   UNL     1      -4.265  10.033  16.801  0.00  0.00    +0.000 A 
ATOM      7  C   UNL     1      -3.771  10.850  15.793  0.00  0.00    +0.000 A 
ATOM      8  C   UNL     1      -2.552  11.477  16.006  0.00  0.00    +0.000 A 
ATOM      9  C   UNL     1      -1.994  11.354  17.275  0.00  0.00    +0.000 A 
ATOM     10  N   UNL     1      -1.661  12.376  18.110  0.00  0.00    +0.000 NA
ATOM     11  C   UNL     1      -1.190  12.003  19.310  0.00  0.00    +0.000 A 
BRANCH  11  12
ATOM     12  N   UNL     1      -1.487  12.571  20.543  0.00  0.00    +0.000 N 
ATOM     13  H   UNL     1      -0.612  12.782  21.042  0.00  0.00    +0.000 HD
BRANCH  12  14
ATOM     14  C   UNL     1      -2.448  12.083  21.520  0.00  0.00    +0.000 C 
ATOM     15  C   UNL     1      -1.981  12.142  22.983  0.00  0.00    +0.000 C 
ATOM     16  C   UNL     1      -3.266  12.341  23.800  0.00  0.00    +0.000 C 
ATOM     17  C   UNL     1      -4.257  13.040  22.877  0.00  0.00    +0.000 C 
ATOM     18  C   UNL     1      -3.567  13.141  21.530  0.00  0.00    +0.000 C 
ENDBRANCH  12  14
ENDBRANCH  11  12
ENDBRANCH   1   2
BRANCH   1  19
ATOM     19  S   UNL     1       0.786   9.438  21.254  0.00  0.00    +0.000 S 
ATOM     20  O   UNL     1      -0.585   9.135  21.609  0.00  0.00    +0.000 OA
ATOM     21  O   UNL     1       1.755   9.777  22.297  0.00  0.00    +0.000 OA
BRANCH  19  25
ATOM     22  C   UNL     1       2.503   5.711  19.229  0.00  0.00    +0.000 A 
ATOM     23  C   UNL     1       2.593   6.965  18.617  0.00  0.00    +0.000 A 
ATOM     24  C   UNL     1       2.091   8.106  19.240  0.00  0.00    +0.000 A 
ATOM     25  C   UNL     1       1.464   7.985  20.479  0.00  0.00    +0.000 A 
ATOM     26  C   UNL     1       1.373   6.747  21.118  0.00  0.00    +0.000 A 
ATOM     27  C   UNL     1       1.885   5.613  20.482  0.00  0.00    +0.000 A 
BRANCH  22  31
ATOM     28  C   UNL     1       3.051   2.422  17.466  0.00  0.00    +0.000 C 
ATOM     29  C   UNL     1       2.277   3.649  17.845  0.00  0.00    +0.000 C 
ATOM     30  O   UNL     1       1.114   3.785  17.467  0.00  0.00    +0.000 OA
ATOM     31  N   UNL     1       2.997   4.530  18.634  0.00  0.00    +0.000 N 
ATOM     32  H   UNL     1       3.986   4.351  18.734  0.00  0.00    +0.000 HD
ENDBRANCH  22  31
ENDBRANCH  19  25
ENDBRANCH   1  19
BRANCH   1  33
ATOM     33  C   UNL     1       1.326  11.886  20.641  0.00  0.00    +0.000 C 
ATOM     34  N   UNL     1       1.761  12.855  21.108  0.00  0.00    +0.000 NA
ENDBRANCH   1  33
TORSDOF 7
ENDMDL
MODEL 4
REMARK VINA RESULT:      -7.9      5.094      9.029
REMARK  Name = 
REMARK  8 active torsions:
REMARK  status: ('A' for Active; 'I' for Inactive)
REMARK    1  A    between atoms: C_1  and  C_2
REMARK    2  A    between atoms: N_4  and  C_5
REMARK    3  A    between atoms: C_8  and  S_9
REMARK    4  A    between atoms: S_9  and  C_12
REMARK    5  A    between atoms: C_12  and  C_13
REMARK    6  A    between atoms: C_12  and  C_15
REMARK    7  A    between atoms: C_24  and  N_25
REMARK    8  A    between atoms: N_25  and  C_26
REMARK                            x       y       z     vdW  Elec       q    Type
REMARK                         _______ _______ _______ _____ _____    ______ ____
ROOT
ATOM      1  C   UNL     1      -0.061  11.696  19.313  0.00  0.00    +0.000 C 
ENDROOT
BRANCH   1   2
ATOM      2  C   UNL     1      -1.200  12.589  19.710  0.00  0.00    +0.000 A 
ATOM      3  N   UNL     1      -1.021  13.684  20.475  0.00  0.00    +0.000 NA
ATOM      4  C   UNL     1      -2.151  14.100  21.099  0.00  0.00    +0.000 A 
ATOM      5  C   UNL     1      -2.618  15.407  21.155  0.00  0.00    +0.000 A 
ATOM      6  C   UNL     1      -3.792  15.705  21.852  0.00  0.00    +0.000 A 
ATOM      7  C   UNL     1      -4.328  14.729  22.681  0.00  0.00    +0.000 A 
ATOM      8  C   UNL     1      -3.923  13.417  22.483  0.00  0.00    +0.000 A 
ATOM      9  C   UNL     1      -3.123  13.166  21.373  0.00  0.00    +0.000 A 
ATOM     10  N   UNL     1      -3.400  12.298  20.361  0.00  0.00    +0.000 NA
ATOM     11  C   UNL     1      -2.499  12.273  19.367  0.00  0.00    +0.000 A 
BRANCH  11  12
ATOM     12  N   UNL     1      -2.753  12.203  18.003  0.00  0.00    +0.000 N 
ATOM     13  H   UNL     1      -3.257  13.050  17.706  0.00  0.00    +0.000 HD
BRANCH  12  14
ATOM     14  C   UNL     1      -3.315  11.075  17.276  0.00  0.00    +0.000 C 
ATOM     15  C   UNL     1      -4.055  11.436  15.979  0.00  0.00    +0.000 C 
ATOM     16  C   UNL     1      -3.870  10.215  15.066  0.00  0.00    +0.000 C 
ATOM     17  C   UNL     1      -2.574   9.545  15.506  0.00  0.00    +0.000 C 
ATOM     18  C   UNL     1      -2.093  10.325  16.714  0.00  0.00    +0.000 C 
ENDBRANCH  12  14
ENDBRANCH  11  12
ENDBRANCH   1   2
BRANCH   1  19
ATOM     19  S   UNL     1       0.407  10.677  20.668  0.00  0.00    +0.000 S 
ATOM     20  O   UNL     1      -0.776  10.197  21.352  0.00  0.00    +0.000 OA
ATOM     21  O   UNL     1       1.477  11.327  21.426  0.00  0.00    +0.000 OA
BRANCH  19  25
ATOM     22  C   UNL     1       2.462   7.053  18.774  0.00  0.00    +0.000 A 
ATOM     23  C   UNL     1       2.143   7.065  20.136  0.00  0.00    +0.000 A 
ATOM     24  C   UNL     1       1.498   8.158  20.712  0.00  0.00    +0.000 A 
ATOM     25  C   UNL     1       1.194   9.265  19.921  0.00  0.00    +0.000 A 
ATOM     26  C   UNL     1       1.490   9.271  18.557  0.00  0.00    +0.000 A 
ATOM     27  C   UNL     1       2.133   8.167  17.992  0.00  0.00    +0.000 A 
BRANCH  22  31
ATOM     28  C   UNL     1       3.516   3.771  17.242  0.00  0.00    +0.000 C 
ATOM     29  C   UNL     1       2.530   4.775  17.762  0.00  0.00    +0.000 C 
ATOM     30  O   UNL     1       1.335   4.491  17.822  0.00  0.00    +0.000 OA
ATOM     31  N   UNL     1       3.116   5.968  18.151  0.00  0.00    +0.000 N 
ATOM     32  H   UNL     1       4.084   6.104  17.900  0.00  0.00    +0.000 HD
ENDBRANCH  22  31
ENDBRANCH  19  25
ENDBRANCH   1  19
BRANCH   1  33
ATOM     33  C   UNL     1       1.164  12.380  18.884  0.00  0.00    +0.000 C 
ATOM     34  N   UNL     1       2.120  12.910  18.495  0.00  0.00    +0.000 NA
ENDBRANCH   1  33
TORSDOF 7
ENDMDL
MODEL 5
REMARK VINA RESULT:      -7.8      5.019      8.956
REMARK  Name = 
REMARK  8 active torsions:
REMARK  status: ('A' for Active; 'I' for Inactive)
REMARK    1  A    between atoms: C_1  and  C_2
REMARK    2  A    between atoms: N_4  and  C_5
REMARK    3  A    between atoms: C_8  and  S_9
REMARK    4  A    between atoms: S_9  and  C_12
REMARK    5  A    between atoms: C_12  and  C_13
REMARK    6  A    between atoms: C_12  and  C_15
REMARK    7  A    between atoms: C_24  and  N_25
REMARK    8  A    between atoms: N_25  and  C_26
REMARK                            x       y       z     vdW  Elec       q    Type
REMARK                         _______ _______ _______ _____ _____    ______ ____
ROOT
ATOM      1  C   UNL     1       0.035  11.832  19.312  0.00  0.00    +0.000 C 
ENDROOT
BRANCH   1   2
ATOM      2  C   UNL     1      -1.158  12.668  19.671  0.00  0.00    +0.000 A 
ATOM      3  N   UNL     1      -1.064  13.749  20.471  0.00  0.00    +0.000 NA
ATOM      4  C   UNL     1      -2.241  14.103  21.044  0.00  0.00    +0.000 A 
ATOM      5  C   UNL     1      -2.763  15.388  21.108  0.00  0.00    +0.000 A 
ATOM      6  C   UNL     1      -3.983  15.621  21.750  0.00  0.00    +0.000 A 
ATOM      7  C   UNL     1      -4.521  14.602  22.524  0.00  0.00    +0.000 A 
ATOM      8  C   UNL     1      -4.053  13.313  22.315  0.00  0.00    +0.000 A 
ATOM      9  C   UNL     1      -3.187  13.124  21.243  0.00  0.00    +0.000 A 
ATOM     10  N   UNL     1      -3.375  12.274  20.196  0.00  0.00    +0.000 NA
ATOM     11  C   UNL     1      -2.423  12.311  19.252  0.00  0.00    +0.000 A 
BRANCH  11  12
ATOM     12  N   UNL     1      -2.604  12.268  17.875  0.00  0.00    +0.000 N 
ATOM     13  H   UNL     1      -3.003  13.161  17.555  0.00  0.00    +0.000 HD
BRANCH  12  14
ATOM     14  C   UNL     1      -3.232  11.202  17.109  0.00  0.00    +0.000 C 
ATOM     15  C   UNL     1      -3.227  11.400  15.585  0.00  0.00    +0.000 C 
ATOM     16  C   UNL     1      -3.189   9.981  15.003  0.00  0.00    +0.000 C 
ATOM     17  C   UNL     1      -2.517   9.104  16.053  0.00  0.00    +0.000 C 
ATOM     18  C   UNL     1      -2.273  10.005  17.249  0.00  0.00    +0.000 C 
ENDBRANCH  12  14
ENDBRANCH  11  12
ENDBRANCH   1   2
BRANCH   1  19
ATOM     19  S   UNL     1       0.415  10.728  20.629  0.00  0.00    +0.000 S 
ATOM     20  O   UNL     1      -0.810  10.247  21.233  0.00  0.00    +0.000 OA
ATOM     21  O   UNL     1       1.467  11.304  21.466  0.00  0.00    +0.000 OA
BRANCH  19  25
ATOM     22  C   UNL     1       2.387   7.146  18.574  0.00  0.00    +0.000 A 
ATOM     23  C   UNL     1       2.008   8.274  17.839  0.00  0.00    +0.000 A 
ATOM     24  C   UNL     1       1.427   9.375  18.465  0.00  0.00    +0.000 A 
ATOM     25  C   UNL     1       1.196   9.335  19.839  0.00  0.00    +0.000 A 
ATOM     26  C   UNL     1       1.577   8.227  20.596  0.00  0.00    +0.000 A 
ATOM     27  C   UNL     1       2.163   7.131  19.956  0.00  0.00    +0.000 A 
BRANCH  22  31
ATOM     28  C   UNL     1       4.536   4.625  16.769  0.00  0.00    +0.000 C 
ATOM     29  C   UNL     1       4.248   5.938  17.437  0.00  0.00    +0.000 C 
ATOM     30  O   UNL     1       5.101   6.823  17.447  0.00  0.00    +0.000 OA
ATOM     31  N   UNL     1       2.977   6.008  17.981  0.00  0.00    +0.000 N 
ATOM     32  H   UNL     1       2.449   5.149  18.023  0.00  0.00    +0.000 HD
ENDBRANCH  22  31
ENDBRANCH  19  25
ENDBRANCH   1  19
BRANCH   1  33
ATOM     33  C   UNL     1       1.273  12.573  19.041  0.00  0.00    +0.000 C 
ATOM     34  N   UNL     1       2.265  13.120  18.793  0.00  0.00    +0.000 NA
ENDBRANCH   1  33
TORSDOF 7
ENDMDL
MODEL 6
REMARK VINA RESULT:      -7.8      1.100      1.220
REMARK  Name = 
REMARK  8 active torsions:
REMARK  status: ('A' for Active; 'I' for Inactive)
REMARK    1  A    between atoms: C_1  and  C_2
REMARK    2  A    between atoms: N_4  and  C_5
REMARK    3  A    between atoms: C_8  and  S_9
REMARK    4  A    between atoms: S_9  and  C_12
REMARK    5  A    between atoms: C_12  and  C_13
REMARK    6  A    between atoms: C_12  and  C_15
REMARK    7  A    between atoms: C_24  and  N_25
REMARK    8  A    between atoms: N_25  and  C_26
REMARK                            x       y       z     vdW  Elec       q    Type
REMARK                         _______ _______ _______ _____ _____    ______ ____
ROOT
ATOM      1  C   UNL     1       6.265   6.271  19.224  0.00  0.00    +0.000 C 
ENDROOT
BRANCH   1   2
ATOM      2  C   UNL     1       5.073   5.360  19.185  0.00  0.00    +0.000 A 
ATOM      3  N   UNL     1       5.181   4.028  19.362  0.00  0.00    +0.000 NA
ATOM      4  C   UNL     1       4.133   3.329  18.860  0.00  0.00    +0.000 A 
ATOM      5  C   UNL     1       3.442   2.315  19.512  0.00  0.00    +0.000 A 
ATOM      6  C   UNL     1       2.388   1.657  18.871  0.00  0.00    +0.000 A 
ATOM      7  C   UNL     1       2.219   1.863  17.509  0.00  0.00    +0.000 A 
ATOM      8  C   UNL     1       2.825   2.974  16.940  0.00  0.00    +0.000 A 
ATOM      9  C   UNL     1       3.430   3.875  17.811  0.00  0.00    +0.000 A 
ATOM     10  N   UNL     1       3.137   5.199  17.931  0.00  0.00    +0.000 NA
ATOM     11  C   UNL     1       3.819   5.850  18.885  0.00  0.00    +0.000 A 
BRANCH  11  12
ATOM     12  N   UNL     1       3.326   6.803  19.769  0.00  0.00    +0.000 N 
ATOM     13  H   UNL     1       3.544   6.519  20.734  0.00  0.00    +0.000 HD
BRANCH  12  14
ATOM     14  C   UNL     1       1.993   7.386  19.770  0.00  0.00    +0.000 C 
ATOM     15  C   UNL     1       1.633   8.195  21.025  0.00  0.00    +0.000 C 
ATOM     16  C   UNL     1       0.650   9.267  20.536  0.00  0.00    +0.000 C 
ATOM     17  C   UNL     1       0.971   9.504  19.065  0.00  0.00    +0.000 C 
ATOM     18  C   UNL     1       2.055   8.504  18.713  0.00  0.00    +0.000 C 
ENDBRANCH  12  14
ENDBRANCH  11  12
ENDBRANCH   1   2
BRANCH   1  19
ATOM     19  S   UNL     1       6.391   7.165  17.714  0.00  0.00    +0.000 S 
ATOM     20  O   UNL     1       7.709   7.755  17.602  0.00  0.00    +0.000 OA
ATOM     21  O   UNL     1       5.200   7.995  17.533  0.00  0.00    +0.000 OA
BRANCH  19  25
ATOM     22  C   UNL     1       6.011   3.970  14.459  0.00  0.00    +0.000 A 
ATOM     23  C   UNL     1       5.176   5.093  14.463  0.00  0.00    +0.000 A 
ATOM     24  C   UNL     1       5.304   6.078  15.440  0.00  0.00    +0.000 A 
ATOM     25  C   UNL     1       6.259   5.924  16.443  0.00  0.00    +0.000 A 
ATOM     26  C   UNL     1       7.113   4.820  16.454  0.00  0.00    +0.000 A 
ATOM     27  C   UNL     1       6.977   3.842  15.466  0.00  0.00    +0.000 A 
BRANCH  22  31
ATOM     28  C   UNL     1       6.013   1.810  11.367  0.00  0.00    +0.000 C 
ATOM     29  C   UNL     1       6.378   3.013  12.187  0.00  0.00    +0.000 C 
ATOM     30  O   UNL     1       7.015   3.934  11.679  0.00  0.00    +0.000 OA
ATOM     31  N   UNL     1       5.916   2.948  13.490  0.00  0.00    +0.000 N 
ATOM     32  H   UNL     1       5.540   2.063  13.799  0.00  0.00    +0.000 HD
ENDBRANCH  22  31
ENDBRANCH  19  25
ENDBRANCH   1  19
BRANCH   1  33
ATOM     33  C   UNL     1       7.564   5.612  19.409  0.00  0.00    +0.000 C 
ATOM     34  N   UNL     1       8.565   5.050  19.573  0.00  0.00    +0.000 NA
ENDBRANCH   1  33
TORSDOF 7
ENDMDL
MODEL 7
REMARK VINA RESULT:      -7.8      5.015      8.847
REMARK  Name = 
REMARK  8 active torsions:
REMARK  status: ('A' for Active; 'I' for Inactive)
REMARK    1  A    between atoms: C_1  and  C_2
REMARK    2  A    between atoms: N_4  and  C_5
REMARK    3  A    between atoms: C_8  and  S_9
REMARK    4  A    between atoms: S_9  and  C_12
REMARK    5  A    between atoms: C_12  and  C_13
REMARK    6  A    between atoms: C_12  and  C_15
REMARK    7  A    between atoms: C_24  and  N_25
REMARK    8  A    between atoms: N_25  and  C_26
REMARK                            x       y       z     vdW  Elec       q    Type
REMARK                         _______ _______ _______ _____ _____    ______ ____
ROOT
ATOM      1  C   UNL     1      -0.935  10.665  19.906  0.00  0.00    +0.000 C 
ENDROOT
BRANCH   1   2
ATOM      2  C   UNL     1      -1.571  11.760  20.711  0.00  0.00    +0.000 A 
ATOM      3  N   UNL     1      -1.765  11.654  22.041  0.00  0.00    +0.000 NA
ATOM      4  C   UNL     1      -2.722  12.489  22.517  0.00  0.00    +0.000 A 
ATOM      5  C   UNL     1      -2.614  13.295  23.643  0.00  0.00    +0.000 A 
ATOM      6  C   UNL     1      -3.687  14.098  24.039  0.00  0.00    +0.000 A 
ATOM      7  C   UNL     1      -4.922  13.883  23.441  0.00  0.00    +0.000 A 
ATOM      8  C   UNL     1      -4.949  13.187  22.242  0.00  0.00    +0.000 A 
ATOM      9  C   UNL     1      -3.721  12.888  21.659  0.00  0.00    +0.000 A 
ATOM     10  N   UNL     1      -3.310  13.255  20.415  0.00  0.00    +0.000 NA
ATOM     11  C   UNL     1      -2.056  12.897  20.099  0.00  0.00    +0.000 A 
BRANCH  11  12
ATOM     12  N   UNL     1      -1.110  13.657  19.421  0.00  0.00    +0.000 N 
ATOM     13  H   UNL     1      -0.371  13.040  19.059  0.00  0.00    +0.000 HD
BRANCH  12  14
ATOM     14  C   UNL     1      -0.476  14.881  19.889  0.00  0.00    +0.000 C 
ATOM     15  C   UNL     1       1.018  14.755  20.228  0.00  0.00    +0.000 C 
ATOM     16  C   UNL     1       1.606  16.143  19.939  0.00  0.00    +0.000 C 
ATOM     17  C   UNL     1       0.715  16.773  18.876  0.00  0.00    +0.000 C 
ATOM     18  C   UNL     1      -0.415  15.789  18.647  0.00  0.00    +0.000 C 
ENDBRANCH  12  14
ENDBRANCH  11  12
ENDBRANCH   1   2
BRANCH   1  19
ATOM     19  S   UNL     1       0.803  10.920  19.809  0.00  0.00    +0.000 S 
ATOM     20  O   UNL     1       1.323  11.252  21.119  0.00  0.00    +0.000 OA
ATOM     21  O   UNL     1       1.111  11.774  18.661  0.00  0.00    +0.000 OA
BRANCH  19  25
ATOM     22  C   UNL     1       2.543   6.836  18.696  0.00  0.00    +0.000 A 
ATOM     23  C   UNL     1       2.090   7.093  19.994  0.00  0.00    +0.000 A 
ATOM     24  C   UNL     1       1.540   8.328  20.331  0.00  0.00    +0.000 A 
ATOM     25  C   UNL     1       1.468   9.329  19.364  0.00  0.00    +0.000 A 
ATOM     26  C   UNL     1       1.901   9.094  18.058  0.00  0.00    +0.000 A 
ATOM     27  C   UNL     1       2.447   7.849  17.733  0.00  0.00    +0.000 A 
BRANCH  22  31
ATOM     28  C   UNL     1       3.287   3.308  17.588  0.00  0.00    +0.000 C 
ATOM     29  C   UNL     1       2.426   4.523  17.773  0.00  0.00    +0.000 C 
ATOM     30  O   UNL     1       1.236   4.487  17.466  0.00  0.00    +0.000 OA
ATOM     31  N   UNL     1       3.108   5.601  18.312  0.00  0.00    +0.000 N 
ATOM     32  H   UNL     1       4.113   5.524  18.369  0.00  0.00    +0.000 HD
ENDBRANCH  22  31
ENDBRANCH  19  25
ENDBRANCH   1  19
BRANCH   1  33
ATOM     33  C   UNL     1      -1.400  10.543  18.519  0.00  0.00    +0.000 C 
ATOM     34  N   UNL     1      -1.804  10.411  17.439  0.00  0.00    +0.000 NA
ENDBRANCH   1  33
TORSDOF 7
ENDMDL
MODEL 8
REMARK VINA RESULT:      -7.7      5.540      9.813
REMARK  Name = 
REMARK  8 active torsions:
REMARK  status: ('A' for Active; 'I' for Inactive)
REMARK    1  A    between atoms: C_1  and  C_2
REMARK    2  A    between atoms: N_4  and  C_5
REMARK    3  A    between atoms: C_8  and  S_9
REMARK    4  A    between atoms: S_9  and  C_12
REMARK    5  A    between atoms: C_12  and  C_13
REMARK    6  A    between atoms: C_12  and  C_15
REMARK    7  A    between atoms: C_24  and  N_25
REMARK    8  A    between atoms: N_25  and  C_26
REMARK                            x       y       z     vdW  Elec       q    Type
REMARK                         _______ _______ _______ _____ _____    ______ ____
ROOT
ATOM      1  C   UNL     1      -0.540  13.947  19.509  0.00  0.00    +0.000 C 
ENDROOT
BRANCH   1   2
ATOM      2  C   UNL     1      -1.768  13.785  20.356  0.00  0.00    +0.000 A 
ATOM      3  N   UNL     1      -2.095  14.663  21.325  0.00  0.00    +0.000 NA
ATOM      4  C   UNL     1      -2.935  14.152  22.258  0.00  0.00    +0.000 A 
ATOM      5  C   UNL     1      -4.079  14.768  22.750  0.00  0.00    +0.000 A 
ATOM      6  C   UNL     1      -4.850  14.139  23.731  0.00  0.00    +0.000 A 
ATOM      7  C   UNL     1      -4.319  13.026  24.369  0.00  0.00    +0.000 A 
ATOM      8  C   UNL     1      -3.261  12.371  23.755  0.00  0.00    +0.000 A 
ATOM      9  C   UNL     1      -2.916  12.793  22.476  0.00  0.00    +0.000 A 
ATOM     10  N   UNL     1      -2.886  12.024  21.354  0.00  0.00    +0.000 NA
ATOM     11  C   UNL     1      -2.576  12.674  20.222  0.00  0.00    +0.000 A 
BRANCH  11  12
ATOM     12  N   UNL     1      -3.160  12.510  18.972  0.00  0.00    +0.000 N 
ATOM     13  H   UNL     1      -4.053  13.022  18.942  0.00  0.00    +0.000 HD
BRANCH  12  14
ATOM     14  C   UNL     1      -3.341  11.260  18.250  0.00  0.00    +0.000 C 
ATOM     15  C   UNL     1      -3.857  11.405  16.810  0.00  0.00    +0.000 C 
ATOM     16  C   UNL     1      -3.264  10.206  16.056  0.00  0.00    +0.000 C 
ATOM     17  C   UNL     1      -1.982   9.830  16.790  0.00  0.00    +0.000 C 
ATOM     18  C   UNL     1      -1.912  10.746  17.996  0.00  0.00    +0.000 C 
ENDBRANCH  12  14
ENDBRANCH  11  12
ENDBRANCH   1   2
BRANCH   1  19
ATOM     19  S   UNL     1       0.873  13.359  20.378  0.00  0.00    +0.000 S 
ATOM     20  O   UNL     1       0.550  13.187  21.779  0.00  0.00    +0.000 OA
ATOM     21  O   UNL     1       2.049  14.137  19.988  0.00  0.00    +0.000 OA
BRANCH  19  25
ATOM     22  C   UNL     1       1.625   9.205  18.611  0.00  0.00    +0.000 A 
ATOM     23  C   UNL     1       2.032  10.358  17.931  0.00  0.00    +0.000 A 
ATOM     24  C   UNL     1       1.824  11.623  18.476  0.00  0.00    +0.000 A 
ATOM     25  C   UNL     1       1.175  11.738  19.704  0.00  0.00    +0.000 A 
ATOM     26  C   UNL     1       0.771  10.603  20.409  0.00  0.00    +0.000 A 
ATOM     27  C   UNL     1       0.990   9.340  19.852  0.00  0.00    +0.000 A 
BRANCH  22  31
ATOM     28  C   UNL     1       2.557   5.619  17.905  0.00  0.00    +0.000 C 
ATOM     29  C   UNL     1       2.379   6.833  18.767  0.00  0.00    +0.000 C 
ATOM     30  O   UNL     1       2.738   6.811  19.944  0.00  0.00    +0.000 OA
ATOM     31  N   UNL     1       1.814   7.904  18.096  0.00  0.00    +0.000 N 
ATOM     32  H   UNL     1       1.437   7.720  17.177  0.00  0.00    +0.000 HD
ENDBRANCH  22  31
ENDBRANCH  19  25
ENDBRANCH   1  19
BRANCH   1  33
ATOM     33  C   UNL     1      -0.220  15.323  19.110  0.00  0.00    +0.000 C 
ATOM     34  N   UNL     1       0.067  16.413  18.834  0.00  0.00    +0.000 NA
ENDBRANCH   1  33
TORSDOF 7
ENDMDL
MODEL 9
REMARK VINA RESULT:      -7.7      4.941      8.755
REMARK  Name = 
REMARK  8 active torsions:
REMARK  status: ('A' for Active; 'I' for Inactive)
REMARK    1  A    between atoms: C_1  and  C_2
REMARK    2  A    between atoms: N_4  and  C_5
REMARK    3  A    between atoms: C_8  and  S_9
REMARK    4  A    between atoms: S_9  and  C_12
REMARK    5  A    between atoms: C_12  and  C_13
REMARK    6  A    between atoms: C_12  and  C_15
REMARK    7  A    between atoms: C_24  and  N_25
REMARK    8  A    between atoms: N_25  and  C_26
REMARK                            x       y       z     vdW  Elec       q    Type
REMARK                         _______ _______ _______ _____ _____    ______ ____
ROOT
ATOM      1  C   UNL     1      -0.879  10.511  19.997  0.00  0.00    +0.000 C 
ENDROOT
BRANCH   1   2
ATOM      2  C   UNL     1      -1.518  11.636  20.758  0.00  0.00    +0.000 A 
ATOM      3  N   UNL     1      -1.625  11.625  22.102  0.00  0.00    +0.000 NA
ATOM      4  C   UNL     1      -2.591  12.450  22.575  0.00  0.00    +0.000 A 
ATOM      5  C   UNL     1      -2.456  13.346  23.628  0.00  0.00    +0.000 A 
ATOM      6  C   UNL     1      -3.541  14.127  24.032  0.00  0.00    +0.000 A 
ATOM      7  C   UNL     1      -4.798  13.811  23.533  0.00  0.00    +0.000 A 
ATOM      8  C   UNL     1      -4.864  13.023  22.393  0.00  0.00    +0.000 A 
ATOM      9  C   UNL     1      -3.660  12.736  21.757  0.00  0.00    +0.000 A 
ATOM     10  N   UNL     1      -3.344  13.024  20.464  0.00  0.00    +0.000 NA
ATOM     11  C   UNL     1      -2.096  12.699  20.095  0.00  0.00    +0.000 A 
BRANCH  11  12
ATOM     12  N   UNL     1      -1.233  13.446  19.303  0.00  0.00    +0.000 N 
ATOM     13  H   UNL     1      -0.477  12.840  18.955  0.00  0.00    +0.000 HD
BRANCH  12  14
ATOM     14  C   UNL     1      -0.650  14.739  19.627  0.00  0.00    +0.000 C 
ATOM     15  C   UNL     1      -1.596  15.726  20.329  0.00  0.00    +0.000 C 
ATOM     16  C   UNL     1      -0.683  16.590  21.209  0.00  0.00    +0.000 C 
ATOM     17  C   UNL     1       0.537  15.735  21.532  0.00  0.00    +0.000 C 
ATOM     18  C   UNL     1       0.352  14.443  20.759  0.00  0.00    +0.000 C 
ENDBRANCH  12  14
ENDBRANCH  11  12
ENDBRANCH   1   2
BRANCH   1  19
ATOM     19  S   UNL     1       0.860  10.759  19.904  0.00  0.00    +0.000 S 
ATOM     20  O   UNL     1       1.380  11.085  21.216  0.00  0.00    +0.000 OA
ATOM     21  O   UNL     1       1.174  11.615  18.759  0.00  0.00    +0.000 OA
BRANCH  19  25
ATOM     22  C   UNL     1       2.525   6.664  18.721  0.00  0.00    +0.000 A 
ATOM     23  C   UNL     1       2.461   7.708  17.791  0.00  0.00    +0.000 A 
ATOM     24  C   UNL     1       1.975   8.962  18.154  0.00  0.00    +0.000 A 
ATOM     25  C   UNL     1       1.520   9.167  19.455  0.00  0.00    +0.000 A 
ATOM     26  C   UNL     1       1.585   8.146  20.405  0.00  0.00    +0.000 A 
ATOM     27  C   UNL     1       2.079   6.894  20.028  0.00  0.00    +0.000 A 
BRANCH  22  31
ATOM     28  C   UNL     1       3.048   3.073  17.691  0.00  0.00    +0.000 C 
ATOM     29  C   UNL     1       2.291   4.365  17.785  0.00  0.00    +0.000 C 
ATOM     30  O   UNL     1       1.142   4.438  17.353  0.00  0.00    +0.000 OA
ATOM     31  N   UNL     1       3.009   5.378  18.397  0.00  0.00    +0.000 N 
ATOM     32  H   UNL     1       3.991   5.207  18.561  0.00  0.00    +0.000 HD
ENDBRANCH  22  31
ENDBRANCH  19  25
ENDBRANCH   1  19
BRANCH   1  33
ATOM     33  C   UNL     1      -1.334  10.340  18.612  0.00  0.00    +0.000 C 
ATOM     34  N   UNL     1      -1.664  10.162  17.514  0.00  0.00    +0.000 NA
ENDBRANCH   1  33
TORSDOF 7
ENDMDL
