MODEL 1
REMARK VINA RESULT:      -7.6      0.000      0.000
REMARK  Name = 
REMARK  1 active torsions:
REMARK  status: ('A' for Active; 'I' for Inactive)
REMARK    1  A    between atoms: C_1  and  C_2
REMARK                            x       y       z     vdW  Elec       q    Type
REMARK                         _______ _______ _______ _____ _____    ______ ____
ROOT
ATOM      1  C   UNL     1       6.880   4.759  14.147  0.00  0.00    +0.000 C 
ATOM      2  C   UNL     1       5.885   5.019  15.243  0.00  0.00    +0.000 A 
ATOM      3  C   UNL     1       5.552   6.328  15.599  0.00  0.00    +0.000 A 
ATOM      4  C   UNL     1       4.652   6.557  16.638  0.00  0.00    +0.000 A 
ATOM      5  N   UNL     1       4.081   5.513  17.321  0.00  0.00    +0.000 N 
ATOM      6  C   UNL     1       3.207   5.751  18.369  0.00  0.00    +0.000 A 
ATOM      7  O   UNL     1       2.940   6.895  18.702  0.00  0.00    +0.000 OA
ATOM      8  C   UNL     1       2.618   4.680  19.059  0.00  0.00    +0.000 A 
ATOM      9  C   UNL     1       2.946   3.369  18.662  0.00  0.00    +0.000 A 
ATOM     10  N   UNL     1       3.804   3.178  17.625  0.00  0.00    +0.000 NA
ATOM     11  C   UNL     1       4.377   4.216  16.963  0.00  0.00    +0.000 A 
ATOM     12  C   UNL     1       5.283   3.955  15.926  0.00  0.00    +0.000 A 
ATOM     13  C   UNL     1       2.379   2.163  19.372  0.00  0.00    +0.000 C 
ATOM     14  C   UNL     1       1.801   2.507  20.754  0.00  0.00    +0.000 C 
ATOM     15  C   UNL     1       0.871   3.704  20.637  0.00  0.00    +0.000 C 
ATOM     16  C   UNL     1       1.665   4.947  20.210  0.00  0.00    +0.000 C 
ENDROOT
TORSDOF 0
ENDMDL
MODEL 2
REMARK VINA RESULT:      -7.4      1.682      1.865
REMARK  Name = 
REMARK  1 active torsions:
REMARK  status: ('A' for Active; 'I' for Inactive)
REMARK    1  A    between atoms: C_1  and  C_2
REMARK                            x       y       z     vdW  Elec       q    Type
REMARK                         _______ _______ _______ _____ _____    ______ ____
ROOT
ATOM      1  C   UNL     1       7.081   4.696  13.822  0.00  0.00    +0.000 C 
ATOM      2  C   UNL     1       6.504   4.597  15.205  0.00  0.00    +0.000 A 
ATOM      3  C   UNL     1       7.323   4.752  16.326  0.00  0.00    +0.000 A 
ATOM      4  C   UNL     1       6.782   4.626  17.605  0.00  0.00    +0.000 A 
ATOM      5  N   UNL     1       5.450   4.354  17.784  0.00  0.00    +0.000 N 
ATOM      6  C   UNL     1       4.927   4.205  19.057  0.00  0.00    +0.000 A 
ATOM      7  O   UNL     1       5.648   4.309  20.037  0.00  0.00    +0.000 OA
ATOM      8  C   UNL     1       3.560   3.936  19.237  0.00  0.00    +0.000 A 
ATOM      9  C   UNL     1       2.748   3.814  18.092  0.00  0.00    +0.000 A 
ATOM     10  N   UNL     1       3.299   3.971  16.860  0.00  0.00    +0.000 NA
ATOM     11  C   UNL     1       4.622   4.227  16.689  0.00  0.00    +0.000 A 
ATOM     12  C   UNL     1       5.139   4.341  15.391  0.00  0.00    +0.000 A 
ATOM     13  C   UNL     1       1.277   3.495  18.198  0.00  0.00    +0.000 C 
ATOM     14  C   UNL     1       0.892   2.921  19.572  0.00  0.00    +0.000 C 
ATOM     15  C   UNL     1       1.459   3.803  20.672  0.00  0.00    +0.000 C 
ATOM     16  C   UNL     1       2.993   3.769  20.635  0.00  0.00    +0.000 C 
ENDROOT
TORSDOF 0
ENDMDL
MODEL 3
REMARK VINA RESULT:      -7.3      0.978      5.172
REMARK  Name = 
REMARK  1 active torsions:
REMARK  status: ('A' for Active; 'I' for Inactive)
REMARK    1  A    between atoms: C_1  and  C_2
REMARK                            x       y       z     vdW  Elec       q    Type
REMARK                         _______ _______ _______ _____ _____    ______ ____
ROOT
ATOM      1  C   UNL     1       1.455   2.567  21.740  0.00  0.00    +0.000 C 
ATOM      2  C   UNL     1       2.094   3.474  20.727  0.00  0.00    +0.000 A 
ATOM      3  C   UNL     1       1.867   4.852  20.769  0.00  0.00    +0.000 A 
ATOM      4  C   UNL     1       2.440   5.680  19.805  0.00  0.00    +0.000 A 
ATOM      5  N   UNL     1       3.231   5.163  18.811  0.00  0.00    +0.000 N 
ATOM      6  C   UNL     1       3.775   5.990  17.843  0.00  0.00    +0.000 A 
ATOM      7  O   UNL     1       3.552   7.190  17.859  0.00  0.00    +0.000 OA
ATOM      8  C   UNL     1       4.591   5.458  16.831  0.00  0.00    +0.000 A 
ATOM      9  C   UNL     1       4.830   4.070  16.827  0.00  0.00    +0.000 A 
ATOM     10  N   UNL     1       4.282   3.293  17.798  0.00  0.00    +0.000 NA
ATOM     11  C   UNL     1       3.488   3.810  18.772  0.00  0.00    +0.000 A 
ATOM     12  C   UNL     1       2.920   2.952  19.724  0.00  0.00    +0.000 A 
ATOM     13  C   UNL     1       5.671   3.416  15.758  0.00  0.00    +0.000 C 
ATOM     14  C   UNL     1       5.851   4.307  14.518  0.00  0.00    +0.000 C 
ATOM     15  C   UNL     1       6.290   5.698  14.947  0.00  0.00    +0.000 C 
ATOM     16  C   UNL     1       5.181   6.369  15.770  0.00  0.00    +0.000 C 
ENDROOT
TORSDOF 0
ENDMDL
MODEL 4
REMARK VINA RESULT:      -6.8      1.646      5.338
REMARK  Name = 
REMARK  1 active torsions:
REMARK  status: ('A' for Active; 'I' for Inactive)
REMARK    1  A    between atoms: C_1  and  C_2
REMARK                            x       y       z     vdW  Elec       q    Type
REMARK                         _______ _______ _______ _____ _____    ______ ____
ROOT
ATOM      1  C   UNL     1       1.432   2.359  21.854  0.00  0.00    +0.000 C 
ATOM      2  C   UNL     1       2.074   3.383  20.962  0.00  0.00    +0.000 A 
ATOM      3  C   UNL     1       1.392   4.555  20.625  0.00  0.00    +0.000 A 
ATOM      4  C   UNL     1       1.985   5.483  19.771  0.00  0.00    +0.000 A 
ATOM      5  N   UNL     1       3.236   5.267  19.253  0.00  0.00    +0.000 N 
ATOM      6  C   UNL     1       3.806   6.183  18.385  0.00  0.00    +0.000 A 
ATOM      7  O   UNL     1       3.198   7.192  18.066  0.00  0.00    +0.000 OA
ATOM      8  C   UNL     1       5.092   5.962  17.864  0.00  0.00    +0.000 A 
ATOM      9  C   UNL     1       5.772   4.788  18.241  0.00  0.00    +0.000 A 
ATOM     10  N   UNL     1       5.180   3.917  19.099  0.00  0.00    +0.000 NA
ATOM     11  C   UNL     1       3.935   4.130  19.597  0.00  0.00    +0.000 A 
ATOM     12  C   UNL     1       3.361   3.175  20.449  0.00  0.00    +0.000 A 
ATOM     13  C   UNL     1       7.144   4.463  17.701  0.00  0.00    +0.000 C 
ATOM     14  C   UNL     1       7.494   5.275  16.444  0.00  0.00    +0.000 C 
ATOM     15  C   UNL     1       7.213   6.749  16.692  0.00  0.00    +0.000 C 
ATOM     16  C   UNL     1       5.709   6.967  16.909  0.00  0.00    +0.000 C 
ENDROOT
TORSDOF 0
ENDMDL
MODEL 5
REMARK VINA RESULT:      -6.7      2.397      3.053
REMARK  Name = 
REMARK  1 active torsions:
REMARK  status: ('A' for Active; 'I' for Inactive)
REMARK    1  A    between atoms: C_1  and  C_2
REMARK                            x       y       z     vdW  Elec       q    Type
REMARK                         _______ _______ _______ _____ _____    ______ ____
ROOT
ATOM      1  C   UNL     1       7.842   8.049  17.247  0.00  0.00    +0.000 C 
ATOM      2  C   UNL     1       7.024   6.931  17.829  0.00  0.00    +0.000 A 
ATOM      3  C   UNL     1       7.615   5.990  18.677  0.00  0.00    +0.000 A 
ATOM      4  C   UNL     1       6.854   4.939  19.185  0.00  0.00    +0.000 A 
ATOM      5  N   UNL     1       5.525   4.812  18.869  0.00  0.00    +0.000 N 
ATOM      6  C   UNL     1       4.784   3.750  19.359  0.00  0.00    +0.000 A 
ATOM      7  O   UNL     1       5.307   2.910  20.074  0.00  0.00    +0.000 OA
ATOM      8  C   UNL     1       3.422   3.628  19.039  0.00  0.00    +0.000 A 
ATOM      9  C   UNL     1       2.841   4.605  18.207  0.00  0.00    +0.000 A 
ATOM     10  N   UNL     1       3.602   5.634  17.751  0.00  0.00    +0.000 NA
ATOM     11  C   UNL     1       4.920   5.746  18.057  0.00  0.00    +0.000 A 
ATOM     12  C   UNL     1       5.662   6.811  17.525  0.00  0.00    +0.000 A 
ATOM     13  C   UNL     1       1.392   4.529  17.793  0.00  0.00    +0.000 C 
ATOM     14  C   UNL     1       0.787   3.131  18.002  0.00  0.00    +0.000 C 
ATOM     15  C   UNL     1       1.100   2.643  19.408  0.00  0.00    +0.000 C 
ATOM     16  C   UNL     1       2.615   2.459  19.575  0.00  0.00    +0.000 C 
ENDROOT
TORSDOF 0
ENDMDL
MODEL 6
REMARK VINA RESULT:      -6.7      1.986      2.799
REMARK  Name = 
REMARK  1 active torsions:
REMARK  status: ('A' for Active; 'I' for Inactive)
REMARK    1  A    between atoms: C_1  and  C_2
REMARK                            x       y       z     vdW  Elec       q    Type
REMARK                         _______ _______ _______ _____ _____    ______ ____
ROOT
ATOM      1  C   UNL     1       7.847   7.688  17.334  0.00  0.00    +0.000 C 
ATOM      2  C   UNL     1       6.885   6.544  17.485  0.00  0.00    +0.000 A 
ATOM      3  C   UNL     1       6.962   5.438  16.634  0.00  0.00    +0.000 A 
ATOM      4  C   UNL     1       6.045   4.397  16.763  0.00  0.00    +0.000 A 
ATOM      5  N   UNL     1       5.062   4.437  17.720  0.00  0.00    +0.000 N 
ATOM      6  C   UNL     1       4.139   3.410  17.823  0.00  0.00    +0.000 A 
ATOM      7  O   UNL     1       4.186   2.458  17.060  0.00  0.00    +0.000 OA
ATOM      8  C   UNL     1       3.140   3.450  18.810  0.00  0.00    +0.000 A 
ATOM      9  C   UNL     1       3.101   4.560  19.675  0.00  0.00    +0.000 A 
ATOM     10  N   UNL     1       4.028   5.545  19.544  0.00  0.00    +0.000 NA
ATOM     11  C   UNL     1       4.989   5.506  18.586  0.00  0.00    +0.000 A 
ATOM     12  C   UNL     1       5.895   6.571  18.475  0.00  0.00    +0.000 A 
ATOM     13  C   UNL     1       2.041   4.694  20.741  0.00  0.00    +0.000 C 
ATOM     14  C   UNL     1       0.836   3.770  20.499  0.00  0.00    +0.000 C 
ATOM     15  C   UNL     1       1.323   2.356  20.222  0.00  0.00    +0.000 C 
ATOM     16  C   UNL     1       2.128   2.324  18.916  0.00  0.00    +0.000 C 
ENDROOT
TORSDOF 0
ENDMDL
MODEL 7
REMARK VINA RESULT:      -6.6      1.888      5.586
REMARK  Name = 
REMARK  1 active torsions:
REMARK  status: ('A' for Active; 'I' for Inactive)
REMARK    1  A    between atoms: C_1  and  C_2
REMARK                            x       y       z     vdW  Elec       q    Type
REMARK                         _______ _______ _______ _____ _____    ______ ____
ROOT
ATOM      1  C   UNL     1       1.115   2.502  22.308  0.00  0.00    +0.000 C 
ATOM      2  C   UNL     1       1.663   2.827  20.948  0.00  0.00    +0.000 A 
ATOM      3  C   UNL     1       0.873   2.655  19.808  0.00  0.00    +0.000 A 
ATOM      4  C   UNL     1       1.403   2.930  18.548  0.00  0.00    +0.000 A 
ATOM      5  N   UNL     1       2.693   3.374  18.406  0.00  0.00    +0.000 N 
ATOM      6  C   UNL     1       3.218   3.620  17.149  0.00  0.00    +0.000 A 
ATOM      7  O   UNL     1       2.539   3.439  16.150  0.00  0.00    +0.000 OA
ATOM      8  C   UNL     1       4.537   4.082  17.008  0.00  0.00    +0.000 A 
ATOM      9  C   UNL     1       5.303   4.277  18.173  0.00  0.00    +0.000 A 
ATOM     10  N   UNL     1       4.750   4.028  19.389  0.00  0.00    +0.000 NA
ATOM     11  C   UNL     1       3.476   3.576  19.522  0.00  0.00    +0.000 A 
ATOM     12  C   UNL     1       2.973   3.301  20.801  0.00  0.00    +0.000 A 
ATOM     13  C   UNL     1       6.738   4.742  18.106  0.00  0.00    +0.000 C 
ATOM     14  C   UNL     1       7.355   4.561  16.710  0.00  0.00    +0.000 C 
ATOM     15  C   UNL     1       6.422   5.140  15.659  0.00  0.00    +0.000 C 
ATOM     16  C   UNL     1       5.108   4.345  15.627  0.00  0.00    +0.000 C 
ENDROOT
TORSDOF 0
ENDMDL
MODEL 8
REMARK VINA RESULT:      -6.6      1.686      5.545
REMARK  Name = 
REMARK  1 active torsions:
REMARK  status: ('A' for Active; 'I' for Inactive)
REMARK    1  A    between atoms: C_1  and  C_2
REMARK                            x       y       z     vdW  Elec       q    Type
REMARK                         _______ _______ _______ _____ _____    ______ ____
ROOT
ATOM      1  C   UNL     1       1.091   7.865  21.196  0.00  0.00    +0.000 C 
ATOM      2  C   UNL     1       1.815   6.845  20.364  0.00  0.00    +0.000 A 
ATOM      3  C   UNL     1       1.777   5.493  20.712  0.00  0.00    +0.000 A 
ATOM      4  C   UNL     1       2.479   4.560  19.951  0.00  0.00    +0.000 A 
ATOM      5  N   UNL     1       3.209   4.947  18.856  0.00  0.00    +0.000 N 
ATOM      6  C   UNL     1       3.923   4.016  18.122  0.00  0.00    +0.000 A 
ATOM      7  O   UNL     1       3.916   2.838  18.444  0.00  0.00    +0.000 OA
ATOM      8  C   UNL     1       4.663   4.415  16.996  0.00  0.00    +0.000 A 
ATOM      9  C   UNL     1       4.661   5.780  16.647  0.00  0.00    +0.000 A 
ATOM     10  N   UNL     1       3.943   6.661  17.391  0.00  0.00    +0.000 NA
ATOM     11  C   UNL     1       3.234   6.273  18.482  0.00  0.00    +0.000 A 
ATOM     12  C   UNL     1       2.543   7.235  19.232  0.00  0.00    +0.000 A 
ATOM     13  C   UNL     1       5.454   6.295  15.470  0.00  0.00    +0.000 C 
ATOM     14  C   UNL     1       6.535   5.305  15.005  0.00  0.00    +0.000 C 
ATOM     15  C   UNL     1       5.925   3.922  14.838  0.00  0.00    +0.000 C 
ATOM     16  C   UNL     1       5.448   3.391  16.198  0.00  0.00    +0.000 C 
ENDROOT
TORSDOF 0
ENDMDL
MODEL 9
REMARK VINA RESULT:      -6.4      2.361      3.763
REMARK  Name = 
REMARK  1 active torsions:
REMARK  status: ('A' for Active; 'I' for Inactive)
REMARK    1  A    between atoms: C_1  and  C_2
REMARK                            x       y       z     vdW  Elec       q    Type
REMARK                         _______ _______ _______ _____ _____    ______ ____
ROOT
ATOM      1  C   UNL     1       6.328   4.535  15.094  0.00  0.00    +0.000 C 
ATOM      2  C   UNL     1       5.469   4.906  16.270  0.00  0.00    +0.000 A 
ATOM      3  C   UNL     1       5.283   4.005  17.322  0.00  0.00    +0.000 A 
ATOM      4  C   UNL     1       4.459   4.348  18.392  0.00  0.00    +0.000 A 
ATOM      5  N   UNL     1       3.824   5.564  18.433  0.00  0.00    +0.000 N 
ATOM      6  C   UNL     1       2.987   5.885  19.488  0.00  0.00    +0.000 A 
ATOM      7  O   UNL     1       2.799   5.086  20.392  0.00  0.00    +0.000 OA
ATOM      8  C   UNL     1       2.346   7.134  19.530  0.00  0.00    +0.000 A 
ATOM      9  C   UNL     1       2.573   8.037  18.474  0.00  0.00    +0.000 A 
ATOM     10  N   UNL     1       3.406   7.685  17.459  0.00  0.00    +0.000 NA
ATOM     11  C   UNL     1       4.019   6.475  17.418  0.00  0.00    +0.000 A 
ATOM     12  C   UNL     1       4.838   6.155  16.325  0.00  0.00    +0.000 A 
ATOM     13  C   UNL     1       1.898   9.387  18.430  0.00  0.00    +0.000 C 
ATOM     14  C   UNL     1       0.684   9.474  19.369  0.00  0.00    +0.000 C 
ATOM     15  C   UNL     1       1.069   8.971  20.751  0.00  0.00    +0.000 C 
ATOM     16  C   UNL     1       1.425   7.479  20.687  0.00  0.00    +0.000 C 
ENDROOT
TORSDOF 0
ENDMDL
