MODEL 1
REMARK VINA RESULT:      -7.7      0.000      0.000
REMARK  Name = 
REMARK  9 active torsions:
REMARK  status: ('A' for Active; 'I' for Inactive)
REMARK    1  A    between atoms: C_1  and  C_2
REMARK    2  A    between atoms: C_2  and  C_3
REMARK    3  A    between atoms: C_2  and  C_4
REMARK    4  A    between atoms: C_2  and  N_6
REMARK    5  A    between atoms: C_7  and  C_9
REMARK    6  A    between atoms: C_9  and  C_10
REMARK    7  A    between atoms: C_9  and  N_17
REMARK    8  A    between atoms: C_10  and  C_11
REMARK    9  A    between atoms: C_18  and  C_20
REMARK                            x       y       z     vdW  Elec       q    Type
REMARK                         _______ _______ _______ _____ _____    ______ ____
ROOT
ATOM      1  C   UNL     1       3.093   6.531  17.948  0.00  0.00    +0.000 C 
ENDROOT
BRANCH   1   3
ATOM      2  N   UNL     1       2.696   4.725  19.596  0.00  0.00    +0.000 N 
ATOM      3  C   UNL     1       2.878   5.032  18.260  0.00  0.00    +0.000 C 
ATOM      4  O   UNL     1       2.837   4.173  17.377  0.00  0.00    +0.000 OA
ATOM      5  H   UNL     1       2.663   5.508  20.254  0.00  0.00    +0.000 HD
BRANCH   2   7
ATOM      6  C   UNL     1       3.717   2.486  19.899  0.00  0.00    +0.000 C 
ATOM      7  C   UNL     1       2.460   3.356  20.086  0.00  0.00    +0.000 C 
ATOM      8  C   UNL     1       2.151   3.402  21.597  0.00  0.00    +0.000 C 
BRANCH   7   9
ATOM      9  C   UNL     1       1.292   2.727  19.403  0.00  0.00    +0.000 C 
ATOM     10  N   UNL     1       0.392   2.261  18.832  0.00  0.00    +0.000 NA
ENDBRANCH   7   9
ENDBRANCH   2   7
ENDBRANCH   1   3
BRANCH   1  11
ATOM     11  N   UNL     1       2.300   7.320  18.897  0.00  0.00    +0.000 N 
ATOM     12  C   UNL     1       1.848   8.581  18.584  0.00  0.00    +0.000 C 
ATOM     13  O   UNL     1       2.042   9.097  17.487  0.00  0.00    +0.000 OA
ATOM     14  H   UNL     1       2.158   6.941  19.824  0.00  0.00    +0.000 HD
BRANCH  12  15
ATOM     15  C   UNL     1       1.068   9.293  19.626  0.00  0.00    +0.000 A 
ATOM     16  C   UNL     1       1.002   8.732  20.906  0.00  0.00    +0.000 A 
ATOM     17  C   UNL     1       0.281   9.375  21.913  0.00  0.00    +0.000 A 
ATOM     18  C   UNL     1      -0.362  10.584  21.645  0.00  0.00    +0.000 A 
ATOM     19  C   UNL     1      -0.276  11.159  20.377  0.00  0.00    +0.000 A 
ATOM     20  C   UNL     1       0.444  10.519  19.367  0.00  0.00    +0.000 A 
ENDBRANCH  12  15
ENDBRANCH   1  11
BRANCH   1  21
ATOM     21  C   UNL     1       4.600   6.881  18.009  0.00  0.00    +0.000 C 
BRANCH  21  22
ATOM     22  C   UNL     1       5.460   6.070  17.061  0.00  0.00    +0.000 A 
ATOM     23  C   UNL     1       5.202   6.072  15.682  0.00  0.00    +0.000 A 
ATOM     24  C   UNL     1       5.930   5.246  14.822  0.00  0.00    +0.000 A 
ATOM     25  C   UNL     1       6.943   4.432  15.327  0.00  0.00    +0.000 A 
ATOM     26  C   UNL     1       7.257   4.479  16.683  0.00  0.00    +0.000 A 
ATOM     27  C   UNL     1       6.526   5.299  17.544  0.00  0.00    +0.000 A 
ENDBRANCH  21  22
ENDBRANCH   1  21
TORSDOF 7
ENDMDL
MODEL 2
REMARK VINA RESULT:      -7.6      0.310      1.014
REMARK  Name = 
REMARK  9 active torsions:
REMARK  status: ('A' for Active; 'I' for Inactive)
REMARK    1  A    between atoms: C_1  and  C_2
REMARK    2  A    between atoms: C_2  and  C_3
REMARK    3  A    between atoms: C_2  and  C_4
REMARK    4  A    between atoms: C_2  and  N_6
REMARK    5  A    between atoms: C_7  and  C_9
REMARK    6  A    between atoms: C_9  and  C_10
REMARK    7  A    between atoms: C_9  and  N_17
REMARK    8  A    between atoms: C_10  and  C_11
REMARK    9  A    between atoms: C_18  and  C_20
REMARK                            x       y       z     vdW  Elec       q    Type
REMARK                         _______ _______ _______ _____ _____    ______ ____
ROOT
ATOM      1  C   UNL     1       3.126   6.464  18.079  0.00  0.00    +0.000 C 
ENDROOT
BRANCH   1   3
ATOM      2  N   UNL     1       2.765   4.508  19.554  0.00  0.00    +0.000 N 
ATOM      3  C   UNL     1       2.862   4.951  18.247  0.00  0.00    +0.000 C 
ATOM      4  O   UNL     1       2.714   4.195  17.285  0.00  0.00    +0.000 OA
ATOM      5  H   UNL     1       2.819   5.215  20.291  0.00  0.00    +0.000 HD
BRANCH   2   7
ATOM      6  C   UNL     1       3.725   2.222  19.609  0.00  0.00    +0.000 C 
ATOM      7  C   UNL     1       2.499   3.105  19.914  0.00  0.00    +0.000 C 
ATOM      8  C   UNL     1       2.229   3.010  21.430  0.00  0.00    +0.000 C 
BRANCH   7   9
ATOM      9  C   UNL     1       1.297   2.578  19.206  0.00  0.00    +0.000 C 
ATOM     10  N   UNL     1       0.382   2.126  18.647  0.00  0.00    +0.000 NA
ENDBRANCH   7   9
ENDBRANCH   2   7
ENDBRANCH   1   3
BRANCH   1  11
ATOM     11  N   UNL     1       2.372   7.184  19.111  0.00  0.00    +0.000 N 
ATOM     12  C   UNL     1       1.832   8.427  18.874  0.00  0.00    +0.000 C 
ATOM     13  O   UNL     1       1.911   8.982  17.782  0.00  0.00    +0.000 OA
ATOM     14  H   UNL     1       2.325   6.773  20.034  0.00  0.00    +0.000 HD
BRANCH  12  15
ATOM     15  C   UNL     1       1.104   9.068  19.996  0.00  0.00    +0.000 A 
ATOM     16  C   UNL     1       0.337  10.207  19.726  0.00  0.00    +0.000 A 
ATOM     17  C   UNL     1      -0.364  10.836  20.756  0.00  0.00    +0.000 A 
ATOM     18  C   UNL     1      -0.311  10.319  22.051  0.00  0.00    +0.000 A 
ATOM     19  C   UNL     1       0.431   9.169  22.318  0.00  0.00    +0.000 A 
ATOM     20  C   UNL     1       1.135   8.538  21.291  0.00  0.00    +0.000 A 
ENDBRANCH  12  15
ENDBRANCH   1  11
BRANCH   1  21
ATOM     21  C   UNL     1       4.644   6.755  18.150  0.00  0.00    +0.000 C 
BRANCH  21  22
ATOM     22  C   UNL     1       5.467   5.996  17.129  0.00  0.00    +0.000 A 
ATOM     23  C   UNL     1       5.173   6.091  15.761  0.00  0.00    +0.000 A 
ATOM     24  C   UNL     1       5.866   5.312  14.830  0.00  0.00    +0.000 A 
ATOM     25  C   UNL     1       6.879   4.454  15.254  0.00  0.00    +0.000 A 
ATOM     26  C   UNL     1       7.230   4.409  16.601  0.00  0.00    +0.000 A 
ATOM     27  C   UNL     1       6.534   5.181  17.533  0.00  0.00    +0.000 A 
ENDBRANCH  21  22
ENDBRANCH   1  21
TORSDOF 7
ENDMDL
MODEL 3
REMARK VINA RESULT:      -7.6      0.844      1.237
REMARK  Name = 
REMARK  9 active torsions:
REMARK  status: ('A' for Active; 'I' for Inactive)
REMARK    1  A    between atoms: C_1  and  C_2
REMARK    2  A    between atoms: C_2  and  C_3
REMARK    3  A    between atoms: C_2  and  C_4
REMARK    4  A    between atoms: C_2  and  N_6
REMARK    5  A    between atoms: C_7  and  C_9
REMARK    6  A    between atoms: C_9  and  C_10
REMARK    7  A    between atoms: C_9  and  N_17
REMARK    8  A    between atoms: C_10  and  C_11
REMARK    9  A    between atoms: C_18  and  C_20
REMARK                            x       y       z     vdW  Elec       q    Type
REMARK                         _______ _______ _______ _____ _____    ______ ____
ROOT
ATOM      1  C   UNL     1       3.107   6.271  17.931  0.00  0.00    +0.000 C 
ENDROOT
BRANCH   1   3
ATOM      2  N   UNL     1       2.461   4.324  19.318  0.00  0.00    +0.000 N 
ATOM      3  C   UNL     1       2.710   4.781  18.037  0.00  0.00    +0.000 C 
ATOM      4  O   UNL     1       2.591   4.057  17.047  0.00  0.00    +0.000 OA
ATOM      5  H   UNL     1       2.503   5.011  20.075  0.00  0.00    +0.000 HD
BRANCH   2   7
ATOM      6  C   UNL     1       0.774   2.569  18.845  0.00  0.00    +0.000 C 
ATOM      7  C   UNL     1       2.054   2.941  19.618  0.00  0.00    +0.000 C 
ATOM      8  C   UNL     1       3.166   1.972  19.162  0.00  0.00    +0.000 C 
BRANCH   7   9
ATOM      9  C   UNL     1       1.849   2.737  21.081  0.00  0.00    +0.000 C 
ATOM     10  N   UNL     1       1.710   2.622  22.231  0.00  0.00    +0.000 NA
ENDBRANCH   7   9
ENDBRANCH   2   7
ENDBRANCH   1   3
BRANCH   1  11
ATOM     11  N   UNL     1       2.319   7.031  18.907  0.00  0.00    +0.000 N 
ATOM     12  C   UNL     1       1.924   8.326  18.663  0.00  0.00    +0.000 C 
ATOM     13  O   UNL     1       2.167   8.901  17.605  0.00  0.00    +0.000 OA
ATOM     14  H   UNL     1       2.138   6.602  19.805  0.00  0.00    +0.000 HD
BRANCH  12  15
ATOM     15  C   UNL     1       1.144   9.003  19.728  0.00  0.00    +0.000 A 
ATOM     16  C   UNL     1       1.249   8.520  21.037  0.00  0.00    +0.000 A 
ATOM     17  C   UNL     1       0.533   9.134  22.065  0.00  0.00    +0.000 A 
ATOM     18  C   UNL     1      -0.276  10.237  21.789  0.00  0.00    +0.000 A 
ATOM     19  C   UNL     1      -0.362  10.736  20.490  0.00  0.00    +0.000 A 
ATOM     20  C   UNL     1       0.352  10.125  19.458  0.00  0.00    +0.000 A 
ENDBRANCH  12  15
ENDBRANCH   1  11
BRANCH   1  21
ATOM     21  C   UNL     1       4.630   6.438  18.148  0.00  0.00    +0.000 C 
BRANCH  21  22
ATOM     22  C   UNL     1       5.481   5.800  17.068  0.00  0.00    +0.000 A 
ATOM     23  C   UNL     1       5.191   6.012  15.712  0.00  0.00    +0.000 A 
ATOM     24  C   UNL     1       5.912   5.343  14.719  0.00  0.00    +0.000 A 
ATOM     25  C   UNL     1       6.949   4.480  15.070  0.00  0.00    +0.000 A 
ATOM     26  C   UNL     1       7.294   4.322  16.410  0.00  0.00    +0.000 A 
ATOM     27  C   UNL     1       6.570   4.984  17.403  0.00  0.00    +0.000 A 
ENDBRANCH  21  22
ENDBRANCH   1  21
TORSDOF 7
ENDMDL
MODEL 4
REMARK VINA RESULT:      -7.6      1.052      1.595
REMARK  Name = 
REMARK  9 active torsions:
REMARK  status: ('A' for Active; 'I' for Inactive)
REMARK    1  A    between atoms: C_1  and  C_2
REMARK    2  A    between atoms: C_2  and  C_3
REMARK    3  A    between atoms: C_2  and  C_4
REMARK    4  A    between atoms: C_2  and  N_6
REMARK    5  A    between atoms: C_7  and  C_9
REMARK    6  A    between atoms: C_9  and  C_10
REMARK    7  A    between atoms: C_9  and  N_17
REMARK    8  A    between atoms: C_10  and  C_11
REMARK    9  A    between atoms: C_18  and  C_20
REMARK                            x       y       z     vdW  Elec       q    Type
REMARK                         _______ _______ _______ _____ _____    ______ ____
ROOT
ATOM      1  C   UNL     1       3.106   6.343  18.107  0.00  0.00    +0.000 C 
ENDROOT
BRANCH   1   3
ATOM      2  N   UNL     1       3.457   4.125  19.153  0.00  0.00    +0.000 N 
ATOM      3  C   UNL     1       2.738   4.845  18.216  0.00  0.00    +0.000 C 
ATOM      4  O   UNL     1       1.843   4.334  17.541  0.00  0.00    +0.000 OA
ATOM      5  H   UNL     1       4.125   4.645  19.728  0.00  0.00    +0.000 HD
BRANCH   2   7
ATOM      6  C   UNL     1       1.853   2.459  20.049  0.00  0.00    +0.000 C 
ATOM      7  C   UNL     1       3.237   2.692  19.413  0.00  0.00    +0.000 C 
ATOM      8  C   UNL     1       3.265   1.921  18.077  0.00  0.00    +0.000 C 
BRANCH   7   9
ATOM      9  C   UNL     1       4.306   2.126  20.286  0.00  0.00    +0.000 C 
ATOM     10  N   UNL     1       5.161   1.728  20.966  0.00  0.00    +0.000 NA
ENDBRANCH   7   9
ENDBRANCH   2   7
ENDBRANCH   1   3
BRANCH   1  11
ATOM     11  N   UNL     1       2.347   7.082  19.122  0.00  0.00    +0.000 N 
ATOM     12  C   UNL     1       1.873   8.352  18.884  0.00  0.00    +0.000 C 
ATOM     13  O   UNL     1       2.019   8.917  17.804  0.00  0.00    +0.000 OA
ATOM     14  H   UNL     1       2.246   6.661  20.036  0.00  0.00    +0.000 HD
BRANCH  12  15
ATOM     15  C   UNL     1       1.133   9.010  19.988  0.00  0.00    +0.000 A 
ATOM     16  C   UNL     1       1.200   8.442  21.265  0.00  0.00    +0.000 A 
ATOM     17  C   UNL     1       0.518   9.036  22.328  0.00  0.00    +0.000 A 
ATOM     18  C   UNL     1      -0.218  10.202  22.119  0.00  0.00    +0.000 A 
ATOM     19  C   UNL     1      -0.265  10.785  20.853  0.00  0.00    +0.000 A 
ATOM     20  C   UNL     1       0.415  10.194  19.786  0.00  0.00    +0.000 A 
ENDBRANCH  12  15
ENDBRANCH   1  11
BRANCH   1  21
ATOM     21  C   UNL     1       4.634   6.532  18.263  0.00  0.00    +0.000 C 
BRANCH  21  22
ATOM     22  C   UNL     1       5.453   5.856  17.182  0.00  0.00    +0.000 A 
ATOM     23  C   UNL     1       5.108   5.998  15.829  0.00  0.00    +0.000 A 
ATOM     24  C   UNL     1       5.801   5.293  14.842  0.00  0.00    +0.000 A 
ATOM     25  C   UNL     1       6.865   4.464  15.193  0.00  0.00    +0.000 A 
ATOM     26  C   UNL     1       7.264   4.376  16.524  0.00  0.00    +0.000 A 
ATOM     27  C   UNL     1       6.568   5.074  17.513  0.00  0.00    +0.000 A 
ENDBRANCH  21  22
ENDBRANCH   1  21
TORSDOF 7
ENDMDL
MODEL 5
REMARK VINA RESULT:      -7.6      0.812      1.053
REMARK  Name = 
REMARK  9 active torsions:
REMARK  status: ('A' for Active; 'I' for Inactive)
REMARK    1  A    between atoms: C_1  and  C_2
REMARK    2  A    between atoms: C_2  and  C_3
REMARK    3  A    between atoms: C_2  and  C_4
REMARK    4  A    between atoms: C_2  and  N_6
REMARK    5  A    between atoms: C_7  and  C_9
REMARK    6  A    between atoms: C_9  and  C_10
REMARK    7  A    between atoms: C_9  and  N_17
REMARK    8  A    between atoms: C_10  and  C_11
REMARK    9  A    between atoms: C_18  and  C_20
REMARK                            x       y       z     vdW  Elec       q    Type
REMARK                         _______ _______ _______ _____ _____    ______ ____
ROOT
ATOM      1  C   UNL     1       3.053   6.444  18.231  0.00  0.00    +0.000 C 
ENDROOT
BRANCH   1   3
ATOM      2  N   UNL     1       2.668   4.445  19.641  0.00  0.00    +0.000 N 
ATOM      3  C   UNL     1       2.626   4.964  18.360  0.00  0.00    +0.000 C 
ATOM      4  O   UNL     1       2.242   4.301  17.395  0.00  0.00    +0.000 OA
ATOM      5  H   UNL     1       2.920   5.087  20.397  0.00  0.00    +0.000 HD
BRANCH   2   7
ATOM      6  C   UNL     1       2.507   2.767  21.461  0.00  0.00    +0.000 C 
ATOM      7  C   UNL     1       2.282   3.060  19.965  0.00  0.00    +0.000 C 
ATOM      8  C   UNL     1       0.777   2.871  19.680  0.00  0.00    +0.000 C 
BRANCH   7   9
ATOM      9  C   UNL     1       3.029   2.076  19.130  0.00  0.00    +0.000 C 
ATOM     10  N   UNL     1       3.638   1.345  18.461  0.00  0.00    +0.000 NA
ENDBRANCH   7   9
ENDBRANCH   2   7
ENDBRANCH   1   3
BRANCH   1  11
ATOM     11  N   UNL     1       2.299   7.231  19.214  0.00  0.00    +0.000 N 
ATOM     12  C   UNL     1       1.797   8.475  18.908  0.00  0.00    +0.000 C 
ATOM     13  O   UNL     1       1.910   8.975  17.792  0.00  0.00    +0.000 OA
ATOM     14  H   UNL     1       2.224   6.866  20.154  0.00  0.00    +0.000 HD
BRANCH  12  15
ATOM     15  C   UNL     1       1.065   9.187  19.984  0.00  0.00    +0.000 A 
ATOM     16  C   UNL     1       0.897   8.541  21.214  0.00  0.00    +0.000 A 
ATOM     17  C   UNL     1       0.217   9.181  22.250  0.00  0.00    +0.000 A 
ATOM     18  C   UNL     1      -0.284  10.470  22.063  0.00  0.00    +0.000 A 
ATOM     19  C   UNL     1      -0.095  11.127  20.847  0.00  0.00    +0.000 A 
ATOM     20  C   UNL     1       0.584  10.489  19.807  0.00  0.00    +0.000 A 
ENDBRANCH  12  15
ENDBRANCH   1  11
BRANCH   1  21
ATOM     21  C   UNL     1       4.583   6.579  18.419  0.00  0.00    +0.000 C 
BRANCH  21  22
ATOM     22  C   UNL     1       5.400   5.916  17.328  0.00  0.00    +0.000 A 
ATOM     23  C   UNL     1       5.076   6.108  15.977  0.00  0.00    +0.000 A 
ATOM     24  C   UNL     1       5.765   5.415  14.977  0.00  0.00    +0.000 A 
ATOM     25  C   UNL     1       6.803   4.550  15.316  0.00  0.00    +0.000 A 
ATOM     26  C   UNL     1       7.182   4.412  16.649  0.00  0.00    +0.000 A 
ATOM     27  C   UNL     1       6.490   5.097  17.649  0.00  0.00    +0.000 A 
ENDBRANCH  21  22
ENDBRANCH   1  21
TORSDOF 7
ENDMDL
MODEL 6
REMARK VINA RESULT:      -7.6      0.899      1.583
REMARK  Name = 
REMARK  9 active torsions:
REMARK  status: ('A' for Active; 'I' for Inactive)
REMARK    1  A    between atoms: C_1  and  C_2
REMARK    2  A    between atoms: C_2  and  C_3
REMARK    3  A    between atoms: C_2  and  C_4
REMARK    4  A    between atoms: C_2  and  N_6
REMARK    5  A    between atoms: C_7  and  C_9
REMARK    6  A    between atoms: C_9  and  C_10
REMARK    7  A    between atoms: C_9  and  N_17
REMARK    8  A    between atoms: C_10  and  C_11
REMARK    9  A    between atoms: C_18  and  C_20
REMARK                            x       y       z     vdW  Elec       q    Type
REMARK                         _______ _______ _______ _____ _____    ______ ____
ROOT
ATOM      1  C   UNL     1       3.066   6.367  18.197  0.00  0.00    +0.000 C 
ENDROOT
BRANCH   1   3
ATOM      2  N   UNL     1       2.512   4.313  19.464  0.00  0.00    +0.000 N 
ATOM      3  C   UNL     1       2.598   4.894  18.212  0.00  0.00    +0.000 C 
ATOM      4  O   UNL     1       2.290   4.289  17.184  0.00  0.00    +0.000 OA
ATOM      5  H   UNL     1       2.708   4.911  20.271  0.00  0.00    +0.000 HD
BRANCH   2   7
ATOM      6  C   UNL     1       0.800   2.623  18.862  0.00  0.00    +0.000 C 
ATOM      7  C   UNL     1       2.069   2.925  19.681  0.00  0.00    +0.000 C 
ATOM      8  C   UNL     1       3.170   1.957  19.198  0.00  0.00    +0.000 C 
BRANCH   7   9
ATOM      9  C   UNL     1       1.826   2.650  21.127  0.00  0.00    +0.000 C 
ATOM     10  N   UNL     1       1.595   2.458  22.251  0.00  0.00    +0.000 NA
ENDBRANCH   7   9
ENDBRANCH   2   7
ENDBRANCH   1   3
BRANCH   1  11
ATOM     11  N   UNL     1       2.309   7.104  19.215  0.00  0.00    +0.000 N 
ATOM     12  C   UNL     1       1.855   8.383  18.990  0.00  0.00    +0.000 C 
ATOM     13  O   UNL     1       2.016   8.960  17.918  0.00  0.00    +0.000 OA
ATOM     14  H   UNL     1       2.196   6.673  20.124  0.00  0.00    +0.000 HD
BRANCH  12  15
ATOM     15  C   UNL     1       1.115   9.038  20.096  0.00  0.00    +0.000 A 
ATOM     16  C   UNL     1       0.306  10.140  19.794  0.00  0.00    +0.000 A 
ATOM     17  C   UNL     1      -0.408  10.779  20.809  0.00  0.00    +0.000 A 
ATOM     18  C   UNL     1      -0.324  10.311  22.121  0.00  0.00    +0.000 A 
ATOM     19  C   UNL     1       0.461   9.198  22.420  0.00  0.00    +0.000 A 
ATOM     20  C   UNL     1       1.177   8.555  21.408  0.00  0.00    +0.000 A 
ENDBRANCH  12  15
ENDBRANCH   1  11
BRANCH   1  21
ATOM     21  C   UNL     1       4.594   6.447  18.429  0.00  0.00    +0.000 C 
BRANCH  21  22
ATOM     22  C   UNL     1       5.421   5.838  17.315  0.00  0.00    +0.000 A 
ATOM     23  C   UNL     1       5.100   6.083  15.971  0.00  0.00    +0.000 A 
ATOM     24  C   UNL     1       5.798   5.439  14.946  0.00  0.00    +0.000 A 
ATOM     25  C   UNL     1       6.843   4.569  15.252  0.00  0.00    +0.000 A 
ATOM     26  C   UNL     1       7.219   4.379  16.580  0.00  0.00    +0.000 A 
ATOM     27  C   UNL     1       6.517   5.015  17.605  0.00  0.00    +0.000 A 
ENDBRANCH  21  22
ENDBRANCH   1  21
TORSDOF 7
ENDMDL
MODEL 7
REMARK VINA RESULT:      -7.6      0.363      1.030
REMARK  Name = 
REMARK  9 active torsions:
REMARK  status: ('A' for Active; 'I' for Inactive)
REMARK    1  A    between atoms: C_1  and  C_2
REMARK    2  A    between atoms: C_2  and  C_3
REMARK    3  A    between atoms: C_2  and  C_4
REMARK    4  A    between atoms: C_2  and  N_6
REMARK    5  A    between atoms: C_7  and  C_9
REMARK    6  A    between atoms: C_9  and  C_10
REMARK    7  A    between atoms: C_9  and  N_17
REMARK    8  A    between atoms: C_10  and  C_11
REMARK    9  A    between atoms: C_18  and  C_20
REMARK                            x       y       z     vdW  Elec       q    Type
REMARK                         _______ _______ _______ _____ _____    ______ ____
ROOT
ATOM      1  C   UNL     1       3.027   6.457  18.094  0.00  0.00    +0.000 C 
ENDROOT
BRANCH   1   3
ATOM      2  N   UNL     1       2.822   4.478  19.569  0.00  0.00    +0.000 N 
ATOM      3  C   UNL     1       2.750   4.946  18.269  0.00  0.00    +0.000 C 
ATOM      4  O   UNL     1       2.452   4.215  17.323  0.00  0.00    +0.000 OA
ATOM      5  H   UNL     1       2.994   5.167  20.304  0.00  0.00    +0.000 HD
BRANCH   2   7
ATOM      6  C   UNL     1       3.769   2.186  19.542  0.00  0.00    +0.000 C 
ATOM      7  C   UNL     1       2.572   3.073  19.936  0.00  0.00    +0.000 C 
ATOM      8  C   UNL     1       2.406   2.969  21.466  0.00  0.00    +0.000 C 
BRANCH   7   9
ATOM      9  C   UNL     1       1.321   2.559  19.308  0.00  0.00    +0.000 C 
ATOM     10  N   UNL     1       0.331   2.142  18.861  0.00  0.00    +0.000 NA
ENDBRANCH   7   9
ENDBRANCH   2   7
ENDBRANCH   1   3
BRANCH   1  11
ATOM     11  N   UNL     1       2.277   7.188  19.122  0.00  0.00    +0.000 N 
ATOM     12  C   UNL     1       1.794   8.456  18.896  0.00  0.00    +0.000 C 
ATOM     13  O   UNL     1       1.922   9.027  17.817  0.00  0.00    +0.000 OA
ATOM     14  H   UNL     1       2.191   6.762  20.036  0.00  0.00    +0.000 HD
BRANCH  12  15
ATOM     15  C   UNL     1       1.064   9.106  20.013  0.00  0.00    +0.000 A 
ATOM     16  C   UNL     1       1.227   8.589  21.303  0.00  0.00    +0.000 A 
ATOM     17  C   UNL     1       0.558   9.176  22.378  0.00  0.00    +0.000 A 
ATOM     18  C   UNL     1      -0.260  10.286  22.167  0.00  0.00    +0.000 A 
ATOM     19  C   UNL     1      -0.403  10.820  20.886  0.00  0.00    +0.000 A 
ATOM     20  C   UNL     1       0.263  10.235  19.808  0.00  0.00    +0.000 A 
ENDBRANCH  12  15
ENDBRANCH   1  11
BRANCH   1  21
ATOM     21  C   UNL     1       4.547   6.736  18.166  0.00  0.00    +0.000 C 
BRANCH  21  22
ATOM     22  C   UNL     1       5.371   5.922  17.189  0.00  0.00    +0.000 A 
ATOM     23  C   UNL     1       6.415   5.102  17.643  0.00  0.00    +0.000 A 
ATOM     24  C   UNL     1       7.239   4.433  16.734  0.00  0.00    +0.000 A 
ATOM     25  C   UNL     1       7.009   4.552  15.365  0.00  0.00    +0.000 A 
ATOM     26  C   UNL     1       5.929   5.303  14.907  0.00  0.00    +0.000 A 
ATOM     27  C   UNL     1       5.110   5.978  15.813  0.00  0.00    +0.000 A 
ENDBRANCH  21  22
ENDBRANCH   1  21
TORSDOF 7
ENDMDL
MODEL 8
REMARK VINA RESULT:      -7.6      0.898      1.865
REMARK  Name = 
REMARK  9 active torsions:
REMARK  status: ('A' for Active; 'I' for Inactive)
REMARK    1  A    between atoms: C_1  and  C_2
REMARK    2  A    between atoms: C_2  and  C_3
REMARK    3  A    between atoms: C_2  and  C_4
REMARK    4  A    between atoms: C_2  and  N_6
REMARK    5  A    between atoms: C_7  and  C_9
REMARK    6  A    between atoms: C_9  and  C_10
REMARK    7  A    between atoms: C_9  and  N_17
REMARK    8  A    between atoms: C_10  and  C_11
REMARK    9  A    between atoms: C_18  and  C_20
REMARK                            x       y       z     vdW  Elec       q    Type
REMARK                         _______ _______ _______ _____ _____    ______ ____
ROOT
ATOM      1  C   UNL     1       2.961   6.207  17.945  0.00  0.00    +0.000 C 
ENDROOT
BRANCH   1   3
ATOM      2  N   UNL     1       2.516   4.204  19.332  0.00  0.00    +0.000 N 
ATOM      3  C   UNL     1       2.435   4.758  18.068  0.00  0.00    +0.000 C 
ATOM      4  O   UNL     1       1.946   4.150  17.114  0.00  0.00    +0.000 OA
ATOM      5  H   UNL     1       2.859   4.806  20.085  0.00  0.00    +0.000 HD
BRANCH   2   7
ATOM      6  C   UNL     1       0.709   2.548  18.949  0.00  0.00    +0.000 C 
ATOM      7  C   UNL     1       2.050   2.843  19.649  0.00  0.00    +0.000 C 
ATOM      8  C   UNL     1       3.078   1.818  19.126  0.00  0.00    +0.000 C 
BRANCH   7   9
ATOM      9  C   UNL     1       1.917   2.640  21.121  0.00  0.00    +0.000 C 
ATOM     10  N   UNL     1       1.772   2.506  22.267  0.00  0.00    +0.000 NA
ENDBRANCH   7   9
ENDBRANCH   2   7
ENDBRANCH   1   3
BRANCH   1  11
ATOM     11  N   UNL     1       2.171   7.063  18.837  0.00  0.00    +0.000 N 
ATOM     12  C   UNL     1       1.888   8.371  18.516  0.00  0.00    +0.000 C 
ATOM     13  O   UNL     1       2.239   8.879  17.455  0.00  0.00    +0.000 OA
ATOM     14  H   UNL     1       1.902   6.688  19.737  0.00  0.00    +0.000 HD
BRANCH  12  15
ATOM     15  C   UNL     1       1.095   9.148  19.500  0.00  0.00    +0.000 A 
ATOM     16  C   UNL     1       0.314  10.211  19.032  0.00  0.00    +0.000 A 
ATOM     17  C   UNL     1      -0.447  10.963  19.928  0.00  0.00    +0.000 A 
ATOM     18  C   UNL     1      -0.439  10.645  21.287  0.00  0.00    +0.000 A 
ATOM     19  C   UNL     1       0.319   9.570  21.752  0.00  0.00    +0.000 A 
ATOM     20  C   UNL     1       1.082   8.816  20.859  0.00  0.00    +0.000 A 
ENDBRANCH  12  15
ENDBRANCH   1  11
BRANCH   1  21
ATOM     21  C   UNL     1       4.473   6.258  18.270  0.00  0.00    +0.000 C 
BRANCH  21  22
ATOM     22  C   UNL     1       5.354   5.633  17.206  0.00  0.00    +0.000 A 
ATOM     23  C   UNL     1       6.476   4.871  17.565  0.00  0.00    +0.000 A 
ATOM     24  C   UNL     1       7.344   4.382  16.586  0.00  0.00    +0.000 A 
ATOM     25  C   UNL     1       7.083   4.623  15.238  0.00  0.00    +0.000 A 
ATOM     26  C   UNL     1       5.932   5.313  14.868  0.00  0.00    +0.000 A 
ATOM     27  C   UNL     1       5.067   5.809  15.846  0.00  0.00    +0.000 A 
ENDBRANCH  21  22
ENDBRANCH   1  21
TORSDOF 7
ENDMDL
MODEL 9
REMARK VINA RESULT:      -7.6      0.771      1.640
REMARK  Name = 
REMARK  9 active torsions:
REMARK  status: ('A' for Active; 'I' for Inactive)
REMARK    1  A    between atoms: C_1  and  C_2
REMARK    2  A    between atoms: C_2  and  C_3
REMARK    3  A    between atoms: C_2  and  C_4
REMARK    4  A    between atoms: C_2  and  N_6
REMARK    5  A    between atoms: C_7  and  C_9
REMARK    6  A    between atoms: C_9  and  C_10
REMARK    7  A    between atoms: C_9  and  N_17
REMARK    8  A    between atoms: C_10  and  C_11
REMARK    9  A    between atoms: C_18  and  C_20
REMARK                            x       y       z     vdW  Elec       q    Type
REMARK                         _______ _______ _______ _____ _____    ______ ____
ROOT
ATOM      1  C   UNL     1       3.164   6.288  17.900  0.00  0.00    +0.000 C 
ENDROOT
BRANCH   1   3
ATOM      2  N   UNL     1       2.735   4.586  19.647  0.00  0.00    +0.000 N 
ATOM      3  C   UNL     1       3.061   4.804  18.321  0.00  0.00    +0.000 C 
ATOM      4  O   UNL     1       3.224   3.878  17.524  0.00  0.00    +0.000 OA
ATOM      5  H   UNL     1       2.536   5.409  20.220  0.00  0.00    +0.000 HD
BRANCH   2   7
ATOM      6  C   UNL     1       1.992   3.330  21.653  0.00  0.00    +0.000 C 
ATOM      7  C   UNL     1       2.574   3.242  20.229  0.00  0.00    +0.000 C 
ATOM      8  C   UNL     1       1.579   2.431  19.373  0.00  0.00    +0.000 C 
BRANCH   7   9
ATOM      9  C   UNL     1       3.867   2.498  20.248  0.00  0.00    +0.000 C 
ATOM     10  N   UNL     1       4.877   1.922  20.214  0.00  0.00    +0.000 NA
ENDBRANCH   7   9
ENDBRANCH   2   7
ENDBRANCH   1   3
BRANCH   1  11
ATOM     11  N   UNL     1       2.362   7.090  18.831  0.00  0.00    +0.000 N 
ATOM     12  C   UNL     1       1.957   8.367  18.517  0.00  0.00    +0.000 C 
ATOM     13  O   UNL     1       2.202   8.888  17.432  0.00  0.00    +0.000 OA
ATOM     14  H   UNL     1       2.179   6.706  19.749  0.00  0.00    +0.000 HD
BRANCH  12  15
ATOM     15  C   UNL     1       1.164   9.091  19.540  0.00  0.00    +0.000 A 
ATOM     16  C   UNL     1       0.407  10.196  19.135  0.00  0.00    +0.000 A 
ATOM     17  C   UNL     1      -0.353  10.900  20.070  0.00  0.00    +0.000 A 
ATOM     18  C   UNL     1      -0.368  10.493  21.405  0.00  0.00    +0.000 A 
ATOM     19  C   UNL     1       0.365   9.376  21.806  0.00  0.00    +0.000 A 
ATOM     20  C   UNL     1       1.127   8.669  20.874  0.00  0.00    +0.000 A 
ENDBRANCH  12  15
ENDBRANCH   1  11
BRANCH   1  21
ATOM     21  C   UNL     1       4.645   6.734  17.865  0.00  0.00    +0.000 C 
BRANCH  21  22
ATOM     22  C   UNL     1       5.502   5.955  16.887  0.00  0.00    +0.000 A 
ATOM     23  C   UNL     1       5.190   5.939  15.520  0.00  0.00    +0.000 A 
ATOM     24  C   UNL     1       5.919   5.139  14.635  0.00  0.00    +0.000 A 
ATOM     25  C   UNL     1       6.984   4.373  15.103  0.00  0.00    +0.000 A 
ATOM     26  C   UNL     1       7.349   4.441  16.445  0.00  0.00    +0.000 A 
ATOM     27  C   UNL     1       6.618   5.233  17.331  0.00  0.00    +0.000 A 
ENDBRANCH  21  22
ENDBRANCH   1  21
TORSDOF 7
ENDMDL
