MODEL 1
REMARK VINA RESULT:      -8.1      0.000      0.000
REMARK  Name = 
REMARK  7 active torsions:
REMARK  status: ('A' for Active; 'I' for Inactive)
REMARK    1  A    between atoms: C_2  and  C_3
REMARK    2  A    between atoms: C_2  and  C_17
REMARK    3  A    between atoms: C_3  and  S_4
REMARK    4  A    between atoms: S_4  and  C_5
REMARK    5  A    between atoms: C_9  and  N_10
REMARK    6  A    between atoms: C_20  and  O_21
REMARK    7  A    between atoms: C_22  and  O_23
REMARK                            x       y       z     vdW  Elec       q    Type
REMARK                         _______ _______ _______ _____ _____    ______ ____
ROOT
ATOM      1  S   UNL     1       7.025   6.214  17.865  0.00  0.00    +0.000 S 
ENDROOT
BRANCH   1   2
ATOM      2  C   UNL     1       6.734   5.481  16.340  0.00  0.00    +0.000 A 
ATOM      3  N   UNL     1       5.780   4.660  15.977  0.00  0.00    +0.000 NA
ATOM      4  C   UNL     1       6.052   4.371  14.655  0.00  0.00    +0.000 A 
ATOM      5  C   UNL     1       5.375   3.530  13.758  0.00  0.00    +0.000 A 
ATOM      6  C   UNL     1       5.901   3.393  12.459  0.00  0.00    +0.000 A 
ATOM      7  C   UNL     1       7.057   4.082  12.054  0.00  0.00    +0.000 A 
ATOM      8  C   UNL     1       7.727   4.933  12.938  0.00  0.00    +0.000 A 
ATOM      9  C   UNL     1       7.196   5.042  14.223  0.00  0.00    +0.000 A 
ATOM     10  N   UNL     1       7.599   5.754  15.323  0.00  0.00    +0.000 N 
ATOM     11  H   UNL     1       8.401   6.359  15.395  0.00  0.00    +0.000 HD
BRANCH   6  12
ATOM     12  N   UNL     1       5.234   2.497  11.505  0.00  0.00    +0.000 N 
ATOM     13  O   UNL     1       5.839   1.476  11.152  0.00  0.00    +0.000 OA
ATOM     14  O   UNL     1       4.104   2.817  11.107  0.00  0.00    +0.000 OA
ENDBRANCH   6  12
ENDBRANCH   1   2
BRANCH   1  15
ATOM     15  C   UNL     1       5.807   5.402  18.942  0.00  0.00    +0.000 C 
BRANCH  15  17
ATOM     16  O   UNL     1       4.142   6.963  18.089  0.00  0.00    +0.000 OA
ATOM     17  C   UNL     1       4.395   5.868  18.594  0.00  0.00    +0.000 C 
BRANCH  17  18
ATOM     18  C   UNL     1       3.243   4.961  18.885  0.00  0.00    +0.000 A 
ATOM     19  C   UNL     1       2.387   5.298  19.954  0.00  0.00    +0.000 A 
ATOM     20  C   UNL     1       1.295   4.490  20.288  0.00  0.00    +0.000 A 
ATOM     21  C   UNL     1       1.064   3.340  19.550  0.00  0.00    +0.000 A 
ATOM     22  C   UNL     1       1.907   3.002  18.494  0.00  0.00    +0.000 A 
ATOM     23  C   UNL     1       2.995   3.798  18.151  0.00  0.00    +0.000 A 
BRANCH  21  24
ATOM     24  O   UNL     1       0.020   2.502  19.825  0.00  0.00    +0.000 OA
ATOM     25  H   UNL     1      -0.317   2.714  20.714  0.00  0.00    +0.000 HD
ENDBRANCH  21  24
BRANCH  22  26
ATOM     26  O   UNL     1       1.671   1.863  17.776  0.00  0.00    +0.000 OA
ATOM     27  H   UNL     1       0.698   1.827  17.680  0.00  0.00    +0.000 HD
ENDBRANCH  22  26
ENDBRANCH  17  18
ENDBRANCH  15  17
ENDBRANCH   1  15
TORSDOF 7
ENDMDL
MODEL 2
REMARK VINA RESULT:      -8.1      0.844      1.136
REMARK  Name = 
REMARK  7 active torsions:
REMARK  status: ('A' for Active; 'I' for Inactive)
REMARK    1  A    between atoms: C_2  and  C_3
REMARK    2  A    between atoms: C_2  and  C_17
REMARK    3  A    between atoms: C_3  and  S_4
REMARK    4  A    between atoms: S_4  and  C_5
REMARK    5  A    between atoms: C_9  and  N_10
REMARK    6  A    between atoms: C_20  and  O_21
REMARK    7  A    between atoms: C_22  and  O_23
REMARK                            x       y       z     vdW  Elec       q    Type
REMARK                         _______ _______ _______ _____ _____    ______ ____
ROOT
ATOM      1  S   UNL     1       7.229   6.100  17.890  0.00  0.00    +0.000 S 
ENDROOT
BRANCH   1   2
ATOM      2  C   UNL     1       6.878   5.405  16.360  0.00  0.00    +0.000 A 
ATOM      3  N   UNL     1       5.949   4.542  16.029  0.00  0.00    +0.000 NA
ATOM      4  C   UNL     1       6.148   4.314  14.682  0.00  0.00    +0.000 A 
ATOM      5  C   UNL     1       5.460   3.466  13.800  0.00  0.00    +0.000 A 
ATOM      6  C   UNL     1       5.905   3.405  12.465  0.00  0.00    +0.000 A 
ATOM      7  C   UNL     1       6.991   4.173  12.012  0.00  0.00    +0.000 A 
ATOM      8  C   UNL     1       7.670   5.031  12.882  0.00  0.00    +0.000 A 
ATOM      9  C   UNL     1       7.221   5.065  14.203  0.00  0.00    +0.000 A 
ATOM     10  N   UNL     1       7.657   5.761  15.300  0.00  0.00    +0.000 N 
ATOM     11  H   UNL     1       8.426   6.410  15.343  0.00  0.00    +0.000 HD
BRANCH   6  12
ATOM     12  N   UNL     1       5.227   2.504  11.523  0.00  0.00    +0.000 N 
ATOM     13  O   UNL     1       4.129   2.858  11.074  0.00  0.00    +0.000 OA
ATOM     14  O   UNL     1       5.793   1.439  11.236  0.00  0.00    +0.000 OA
ENDBRANCH   6  12
ENDBRANCH   1   2
BRANCH   1  15
ATOM     15  C   UNL     1       6.009   5.312  18.982  0.00  0.00    +0.000 C 
BRANCH  15  17
ATOM     16  O   UNL     1       4.226   6.794  18.227  0.00  0.00    +0.000 OA
ATOM     17  C   UNL     1       4.591   5.656  18.530  0.00  0.00    +0.000 C 
BRANCH  17  18
ATOM     18  C   UNL     1       3.573   4.563  18.454  0.00  0.00    +0.000 A 
ATOM     19  C   UNL     1       2.223   4.927  18.260  0.00  0.00    +0.000 A 
ATOM     20  C   UNL     1       1.218   3.958  18.189  0.00  0.00    +0.000 A 
ATOM     21  C   UNL     1       1.565   2.622  18.316  0.00  0.00    +0.000 A 
ATOM     22  C   UNL     1       2.897   2.258  18.508  0.00  0.00    +0.000 A 
ATOM     23  C   UNL     1       3.906   3.212  18.579  0.00  0.00    +0.000 A 
BRANCH  21  24
ATOM     24  O   UNL     1       0.634   1.624  18.262  0.00  0.00    +0.000 OA
ATOM     25  H   UNL     1      -0.211   1.974  18.600  0.00  0.00    +0.000 HD
ENDBRANCH  21  24
BRANCH  22  26
ATOM     26  O   UNL     1       3.226   0.938  18.635  0.00  0.00    +0.000 OA
ATOM     27  H   UNL     1       2.637   0.473  18.007  0.00  0.00    +0.000 HD
ENDBRANCH  22  26
ENDBRANCH  17  18
ENDBRANCH  15  17
ENDBRANCH   1  15
TORSDOF 7
ENDMDL
MODEL 3
REMARK VINA RESULT:      -8.0      1.191      1.522
REMARK  Name = 
REMARK  7 active torsions:
REMARK  status: ('A' for Active; 'I' for Inactive)
REMARK    1  A    between atoms: C_2  and  C_3
REMARK    2  A    between atoms: C_2  and  C_17
REMARK    3  A    between atoms: C_3  and  S_4
REMARK    4  A    between atoms: S_4  and  C_5
REMARK    5  A    between atoms: C_9  and  N_10
REMARK    6  A    between atoms: C_20  and  O_21
REMARK    7  A    between atoms: C_22  and  O_23
REMARK                            x       y       z     vdW  Elec       q    Type
REMARK                         _______ _______ _______ _____ _____    ______ ____
ROOT
ATOM      1  S   UNL     1       7.037   6.263  17.658  0.00  0.00    +0.000 S 
ENDROOT
BRANCH   1   2
ATOM      2  C   UNL     1       6.730   5.498  16.152  0.00  0.00    +0.000 A 
ATOM      3  N   UNL     1       5.732   4.726  15.797  0.00  0.00    +0.000 NA
ATOM      4  C   UNL     1       6.012   4.374  14.491  0.00  0.00    +0.000 A 
ATOM      5  C   UNL     1       5.300   3.547  13.609  0.00  0.00    +0.000 A 
ATOM      6  C   UNL     1       5.841   3.332  12.327  0.00  0.00    +0.000 A 
ATOM      7  C   UNL     1       7.047   3.932  11.924  0.00  0.00    +0.000 A 
ATOM      8  C   UNL     1       7.752   4.769  12.793  0.00  0.00    +0.000 A 
ATOM      9  C   UNL     1       7.204   4.956  14.063  0.00  0.00    +0.000 A 
ATOM     10  N   UNL     1       7.631   5.679  15.146  0.00  0.00    +0.000 N 
ATOM     11  H   UNL     1       8.468   6.235  15.215  0.00  0.00    +0.000 HD
BRANCH   6  12
ATOM     12  N   UNL     1       5.137   2.446  11.389  0.00  0.00    +0.000 N 
ATOM     13  O   UNL     1       4.043   2.824  10.949  0.00  0.00    +0.000 OA
ATOM     14  O   UNL     1       5.679   1.371  11.096  0.00  0.00    +0.000 OA
ENDBRANCH   6  12
ENDBRANCH   1   2
BRANCH   1  15
ATOM     15  C   UNL     1       5.410   6.233  18.466  0.00  0.00    +0.000 C 
BRANCH  15  17
ATOM     16  O   UNL     1       6.029   4.398  19.946  0.00  0.00    +0.000 OA
ATOM     17  C   UNL     1       5.198   4.905  19.189  0.00  0.00    +0.000 C 
BRANCH  17  18
ATOM     18  C   UNL     1       3.922   4.158  18.968  0.00  0.00    +0.000 A 
ATOM     19  C   UNL     1       3.734   2.945  19.665  0.00  0.00    +0.000 A 
ATOM     20  C   UNL     1       2.569   2.190  19.499  0.00  0.00    +0.000 A 
ATOM     21  C   UNL     1       1.592   2.649  18.630  0.00  0.00    +0.000 A 
ATOM     22  C   UNL     1       1.774   3.846  17.938  0.00  0.00    +0.000 A 
ATOM     23  C   UNL     1       2.927   4.607  18.096  0.00  0.00    +0.000 A 
BRANCH  21  24
ATOM     24  O   UNL     1       0.432   1.960  18.415  0.00  0.00    +0.000 OA
ATOM     25  H   UNL     1       0.657   1.026  18.253  0.00  0.00    +0.000 HD
ENDBRANCH  21  24
BRANCH  22  26
ATOM     26  O   UNL     1       0.804   4.286  17.081  0.00  0.00    +0.000 OA
ATOM     27  H   UNL     1       1.178   5.094  16.675  0.00  0.00    +0.000 HD
ENDBRANCH  22  26
ENDBRANCH  17  18
ENDBRANCH  15  17
ENDBRANCH   1  15
TORSDOF 7
ENDMDL
MODEL 4
REMARK VINA RESULT:      -7.9      1.133      1.626
REMARK  Name = 
REMARK  7 active torsions:
REMARK  status: ('A' for Active; 'I' for Inactive)
REMARK    1  A    between atoms: C_2  and  C_3
REMARK    2  A    between atoms: C_2  and  C_17
REMARK    3  A    between atoms: C_3  and  S_4
REMARK    4  A    between atoms: S_4  and  C_5
REMARK    5  A    between atoms: C_9  and  N_10
REMARK    6  A    between atoms: C_20  and  O_21
REMARK    7  A    between atoms: C_22  and  O_23
REMARK                            x       y       z     vdW  Elec       q    Type
REMARK                         _______ _______ _______ _____ _____    ______ ____
ROOT
ATOM      1  S   UNL     1       6.739   6.371  17.753  0.00  0.00    +0.000 S 
ENDROOT
BRANCH   1   2
ATOM      2  C   UNL     1       6.511   5.587  16.243  0.00  0.00    +0.000 A 
ATOM      3  N   UNL     1       5.524   4.826  15.839  0.00  0.00    +0.000 NA
ATOM      4  C   UNL     1       5.876   4.447  14.559  0.00  0.00    +0.000 A 
ATOM      5  C   UNL     1       5.206   3.618  13.647  0.00  0.00    +0.000 A 
ATOM      6  C   UNL     1       5.821   3.373  12.404  0.00  0.00    +0.000 A 
ATOM      7  C   UNL     1       7.059   3.946  12.067  0.00  0.00    +0.000 A 
ATOM      8  C   UNL     1       7.724   4.786  12.965  0.00  0.00    +0.000 A 
ATOM      9  C   UNL     1       7.103   5.003  14.195  0.00  0.00    +0.000 A 
ATOM     10  N   UNL     1       7.475   5.737  15.292  0.00  0.00    +0.000 N 
ATOM     11  H   UNL     1       8.316   6.280  15.403  0.00  0.00    +0.000 HD
BRANCH   6  12
ATOM     12  N   UNL     1       5.160   2.483  11.439  0.00  0.00    +0.000 N 
ATOM     13  O   UNL     1       4.065   2.838  10.983  0.00  0.00    +0.000 OA
ATOM     14  O   UNL     1       5.737   1.428  11.140  0.00  0.00    +0.000 OA
ENDBRANCH   6  12
ENDBRANCH   1   2
BRANCH   1  15
ATOM     15  C   UNL     1       5.125   6.165  18.563  0.00  0.00    +0.000 C 
BRANCH  15  17
ATOM     16  O   UNL     1       5.930   4.023  19.403  0.00  0.00    +0.000 OA
ATOM     17  C   UNL     1       4.976   4.742  19.097  0.00  0.00    +0.000 C 
BRANCH  17  18
ATOM     18  C   UNL     1       3.604   4.169  19.254  0.00  0.00    +0.000 A 
ATOM     19  C   UNL     1       2.753   4.168  18.129  0.00  0.00    +0.000 A 
ATOM     20  C   UNL     1       1.454   3.656  18.207  0.00  0.00    +0.000 A 
ATOM     21  C   UNL     1       1.006   3.148  19.416  0.00  0.00    +0.000 A 
ATOM     22  C   UNL     1       1.843   3.148  20.530  0.00  0.00    +0.000 A 
ATOM     23  C   UNL     1       3.137   3.652  20.466  0.00  0.00    +0.000 A 
BRANCH  21  24
ATOM     24  O   UNL     1      -0.253   2.639  19.564  0.00  0.00    +0.000 OA
ATOM     25  H   UNL     1      -0.890   3.375  19.508  0.00  0.00    +0.000 HD
ENDBRANCH  21  24
BRANCH  22  26
ATOM     26  O   UNL     1       1.387   2.648  21.718  0.00  0.00    +0.000 OA
ATOM     27  H   UNL     1       2.118   2.087  22.048  0.00  0.00    +0.000 HD
ENDBRANCH  22  26
ENDBRANCH  17  18
ENDBRANCH  15  17
ENDBRANCH   1  15
TORSDOF 7
ENDMDL
MODEL 5
REMARK VINA RESULT:      -7.9      3.859      5.473
REMARK  Name = 
REMARK  7 active torsions:
REMARK  status: ('A' for Active; 'I' for Inactive)
REMARK    1  A    between atoms: C_2  and  C_3
REMARK    2  A    between atoms: C_2  and  C_17
REMARK    3  A    between atoms: C_3  and  S_4
REMARK    4  A    between atoms: S_4  and  C_5
REMARK    5  A    between atoms: C_9  and  N_10
REMARK    6  A    between atoms: C_20  and  O_21
REMARK    7  A    between atoms: C_22  and  O_23
REMARK                            x       y       z     vdW  Elec       q    Type
REMARK                         _______ _______ _______ _____ _____    ______ ____
ROOT
ATOM      1  S   UNL     1       3.329   1.511  18.855  0.00  0.00    +0.000 S 
ENDROOT
BRANCH   1   2
ATOM      2  C   UNL     1       4.365   2.831  18.491  0.00  0.00    +0.000 A 
ATOM      3  N   UNL     1       5.053   3.599  19.298  0.00  0.00    +0.000 NA
ATOM      4  C   UNL     1       5.679   4.507  18.468  0.00  0.00    +0.000 A 
ATOM      5  C   UNL     1       6.530   5.578  18.782  0.00  0.00    +0.000 A 
ATOM      6  C   UNL     1       7.005   6.374  17.722  0.00  0.00    +0.000 A 
ATOM      7  C   UNL     1       6.660   6.107  16.386  0.00  0.00    +0.000 A 
ATOM      8  C   UNL     1       5.825   5.033  16.066  0.00  0.00    +0.000 A 
ATOM      9  C   UNL     1       5.355   4.267  17.133  0.00  0.00    +0.000 A 
ATOM     10  N   UNL     1       4.523   3.179  17.183  0.00  0.00    +0.000 N 
ATOM     11  H   UNL     1       4.079   2.717  16.405  0.00  0.00    +0.000 HD
BRANCH   6  12
ATOM     12  N   UNL     1       7.874   7.522  18.019  0.00  0.00    +0.000 N 
ATOM     13  O   UNL     1       8.625   7.439  18.999  0.00  0.00    +0.000 OA
ATOM     14  O   UNL     1       7.799   8.508  17.272  0.00  0.00    +0.000 OA
ENDBRANCH   6  12
ENDBRANCH   1   2
BRANCH   1  15
ATOM     15  C   UNL     1       1.676   2.262  18.775  0.00  0.00    +0.000 C 
BRANCH  15  17
ATOM     16  O   UNL     1       1.184   3.005  21.044  0.00  0.00    +0.000 OA
ATOM     17  C   UNL     1       1.506   3.293  19.889  0.00  0.00    +0.000 C 
BRANCH  17  18
ATOM     18  C   UNL     1       1.728   4.738  19.575  0.00  0.00    +0.000 A 
ATOM     19  C   UNL     1       1.932   5.101  18.228  0.00  0.00    +0.000 A 
ATOM     20  C   UNL     1       2.155   6.433  17.864  0.00  0.00    +0.000 A 
ATOM     21  C   UNL     1       2.177   7.402  18.854  0.00  0.00    +0.000 A 
ATOM     22  C   UNL     1       1.976   7.048  20.187  0.00  0.00    +0.000 A 
ATOM     23  C   UNL     1       1.752   5.728  20.561  0.00  0.00    +0.000 A 
BRANCH  21  24
ATOM     24  O   UNL     1       2.395   8.721  18.571  0.00  0.00    +0.000 OA
ATOM     25  H   UNL     1       1.901   9.258  19.218  0.00  0.00    +0.000 HD
ENDBRANCH  21  24
BRANCH  22  26
ATOM     26  O   UNL     1       2.003   8.014  21.155  0.00  0.00    +0.000 OA
ATOM     27  H   UNL     1       2.535   7.626  21.878  0.00  0.00    +0.000 HD
ENDBRANCH  22  26
ENDBRANCH  17  18
ENDBRANCH  15  17
ENDBRANCH   1  15
TORSDOF 7
ENDMDL
MODEL 6
REMARK VINA RESULT:      -7.8      2.660      3.953
REMARK  Name = 
REMARK  7 active torsions:
REMARK  status: ('A' for Active; 'I' for Inactive)
REMARK    1  A    between atoms: C_2  and  C_3
REMARK    2  A    between atoms: C_2  and  C_17
REMARK    3  A    between atoms: C_3  and  S_4
REMARK    4  A    between atoms: S_4  and  C_5
REMARK    5  A    between atoms: C_9  and  N_10
REMARK    6  A    between atoms: C_20  and  O_21
REMARK    7  A    between atoms: C_22  and  O_23
REMARK                            x       y       z     vdW  Elec       q    Type
REMARK                         _______ _______ _______ _____ _____    ______ ____
ROOT
ATOM      1  S   UNL     1       2.301   7.220  19.460  0.00  0.00    +0.000 S 
ENDROOT
BRANCH   1   2
ATOM      2  C   UNL     1       3.513   6.647  18.388  0.00  0.00    +0.000 A 
ATOM      3  N   UNL     1       3.632   6.817  17.094  0.00  0.00    +0.000 NA
ATOM      4  C   UNL     1       4.771   6.115  16.753  0.00  0.00    +0.000 A 
ATOM      5  C   UNL     1       5.374   5.930  15.499  0.00  0.00    +0.000 A 
ATOM      6  C   UNL     1       6.529   5.127  15.436  0.00  0.00    +0.000 A 
ATOM      7  C   UNL     1       7.082   4.538  16.586  0.00  0.00    +0.000 A 
ATOM      8  C   UNL     1       6.495   4.732  17.839  0.00  0.00    +0.000 A 
ATOM      9  C   UNL     1       5.344   5.518  17.875  0.00  0.00    +0.000 A 
ATOM     10  N   UNL     1       4.521   5.890  18.907  0.00  0.00    +0.000 N 
ATOM     11  H   UNL     1       4.613   5.641  19.879  0.00  0.00    +0.000 HD
BRANCH   6  12
ATOM     12  N   UNL     1       7.167   4.887  14.134  0.00  0.00    +0.000 N 
ATOM     13  O   UNL     1       6.673   4.021  13.401  0.00  0.00    +0.000 OA
ATOM     14  O   UNL     1       8.164   5.565  13.848  0.00  0.00    +0.000 OA
ENDBRANCH   6  12
ENDBRANCH   1   2
BRANCH   1  15
ATOM     15  C   UNL     1       2.321   5.983  20.791  0.00  0.00    +0.000 C 
BRANCH  15  17
ATOM     16  O   UNL     1       0.359   4.559  20.536  0.00  0.00    +0.000 OA
ATOM     17  C   UNL     1       1.568   4.726  20.360  0.00  0.00    +0.000 C 
BRANCH  17  18
ATOM     18  C   UNL     1       2.326   3.622  19.696  0.00  0.00    +0.000 A 
ATOM     19  C   UNL     1       1.858   3.151  18.451  0.00  0.00    +0.000 A 
ATOM     20  C   UNL     1       2.512   2.114  17.779  0.00  0.00    +0.000 A 
ATOM     21  C   UNL     1       3.637   1.546  18.356  0.00  0.00    +0.000 A 
ATOM     22  C   UNL     1       4.102   2.008  19.586  0.00  0.00    +0.000 A 
ATOM     23  C   UNL     1       3.462   3.039  20.264  0.00  0.00    +0.000 A 
BRANCH  21  24
ATOM     24  O   UNL     1       4.321   0.527  17.758  0.00  0.00    +0.000 OA
ATOM     25  H   UNL     1       4.458  -0.178  18.417  0.00  0.00    +0.000 HD
ENDBRANCH  21  24
BRANCH  22  26
ATOM     26  O   UNL     1       5.210   1.437  20.148  0.00  0.00    +0.000 OA
ATOM     27  H   UNL     1       5.935   2.067  19.965  0.00  0.00    +0.000 HD
ENDBRANCH  22  26
ENDBRANCH  17  18
ENDBRANCH  15  17
ENDBRANCH   1  15
TORSDOF 7
ENDMDL
MODEL 7
REMARK VINA RESULT:      -7.7      0.616      1.373
REMARK  Name = 
REMARK  7 active torsions:
REMARK  status: ('A' for Active; 'I' for Inactive)
REMARK    1  A    between atoms: C_2  and  C_3
REMARK    2  A    between atoms: C_2  and  C_17
REMARK    3  A    between atoms: C_3  and  S_4
REMARK    4  A    between atoms: S_4  and  C_5
REMARK    5  A    between atoms: C_9  and  N_10
REMARK    6  A    between atoms: C_20  and  O_21
REMARK    7  A    between atoms: C_22  and  O_23
REMARK                            x       y       z     vdW  Elec       q    Type
REMARK                         _______ _______ _______ _____ _____    ______ ____
ROOT
ATOM      1  S   UNL     1       6.759   6.329  17.816  0.00  0.00    +0.000 S 
ENDROOT
BRANCH   1   2
ATOM      2  C   UNL     1       6.541   5.565  16.294  0.00  0.00    +0.000 A 
ATOM      3  N   UNL     1       5.570   4.787  15.882  0.00  0.00    +0.000 NA
ATOM      4  C   UNL     1       5.924   4.440  14.593  0.00  0.00    +0.000 A 
ATOM      5  C   UNL     1       5.269   3.609  13.671  0.00  0.00    +0.000 A 
ATOM      6  C   UNL     1       5.882   3.401  12.421  0.00  0.00    +0.000 A 
ATOM      7  C   UNL     1       7.103   4.011  12.087  0.00  0.00    +0.000 A 
ATOM      8  C   UNL     1       7.754   4.850  12.995  0.00  0.00    +0.000 A 
ATOM      9  C   UNL     1       7.135   5.031  14.232  0.00  0.00    +0.000 A 
ATOM     10  N   UNL     1       7.495   5.755  15.339  0.00  0.00    +0.000 N 
ATOM     11  H   UNL     1       8.323   6.317  15.455  0.00  0.00    +0.000 HD
BRANCH   6  12
ATOM     12  N   UNL     1       5.237   2.512  11.444  0.00  0.00    +0.000 N 
ATOM     13  O   UNL     1       5.847   1.490  11.104  0.00  0.00    +0.000 OA
ATOM     14  O   UNL     1       4.122   2.842  11.014  0.00  0.00    +0.000 OA
ENDBRANCH   6  12
ENDBRANCH   1   2
BRANCH   1  15
ATOM     15  C   UNL     1       5.931   5.187  18.963  0.00  0.00    +0.000 C 
BRANCH  15  17
ATOM     16  O   UNL     1       4.026   6.678  19.262  0.00  0.00    +0.000 OA
ATOM     17  C   UNL     1       4.449   5.534  19.081  0.00  0.00    +0.000 C 
BRANCH  17  18
ATOM     18  C   UNL     1       3.440   4.435  18.984  0.00  0.00    +0.000 A 
ATOM     19  C   UNL     1       3.662   3.412  18.038  0.00  0.00    +0.000 A 
ATOM     20  C   UNL     1       2.755   2.359  17.887  0.00  0.00    +0.000 A 
ATOM     21  C   UNL     1       1.622   2.331  18.684  0.00  0.00    +0.000 A 
ATOM     22  C   UNL     1       1.398   3.340  19.620  0.00  0.00    +0.000 A 
ATOM     23  C   UNL     1       2.293   4.392  19.781  0.00  0.00    +0.000 A 
BRANCH  21  24
ATOM     24  O   UNL     1       0.692   1.336  18.586  0.00  0.00    +0.000 OA
ATOM     25  H   UNL     1       0.436   1.247  17.650  0.00  0.00    +0.000 HD
ENDBRANCH  21  24
BRANCH  22  26
ATOM     26  O   UNL     1       0.275   3.304  20.398  0.00  0.00    +0.000 OA
ATOM     27  H   UNL     1      -0.184   4.148  20.213  0.00  0.00    +0.000 HD
ENDBRANCH  22  26
ENDBRANCH  17  18
ENDBRANCH  15  17
ENDBRANCH   1  15
TORSDOF 7
ENDMDL
MODEL 8
REMARK VINA RESULT:      -7.7      3.995      7.928
REMARK  Name = 
REMARK  7 active torsions:
REMARK  status: ('A' for Active; 'I' for Inactive)
REMARK    1  A    between atoms: C_2  and  C_3
REMARK    2  A    between atoms: C_2  and  C_17
REMARK    3  A    between atoms: C_3  and  S_4
REMARK    4  A    between atoms: S_4  and  C_5
REMARK    5  A    between atoms: C_9  and  N_10
REMARK    6  A    between atoms: C_20  and  O_21
REMARK    7  A    between atoms: C_22  and  O_23
REMARK                            x       y       z     vdW  Elec       q    Type
REMARK                         _______ _______ _______ _____ _____    ______ ____
ROOT
ATOM      1  S   UNL     1       3.992   4.070  18.786  0.00  0.00    +0.000 S 
ENDROOT
BRANCH   1   2
ATOM      2  C   UNL     1       3.183   5.578  18.924  0.00  0.00    +0.000 A 
ATOM      3  N   UNL     1       3.028   6.527  18.034  0.00  0.00    +0.000 NA
ATOM      4  C   UNL     1       2.326   7.515  18.695  0.00  0.00    +0.000 A 
ATOM      5  C   UNL     1       1.895   8.772  18.243  0.00  0.00    +0.000 A 
ATOM      6  C   UNL     1       1.218   9.604  19.155  0.00  0.00    +0.000 A 
ATOM      7  C   UNL     1       0.961   9.196  20.475  0.00  0.00    +0.000 A 
ATOM      8  C   UNL     1       1.375   7.941  20.928  0.00  0.00    +0.000 A 
ATOM      9  C   UNL     1       2.056   7.139  20.011  0.00  0.00    +0.000 A 
ATOM     10  N   UNL     1       2.607   5.889  20.120  0.00  0.00    +0.000 N 
ATOM     11  H   UNL     1       2.614   5.296  20.935  0.00  0.00    +0.000 HD
BRANCH   6  12
ATOM     12  N   UNL     1       0.781  10.938  18.722  0.00  0.00    +0.000 N 
ATOM     13  O   UNL     1       1.647  11.810  18.573  0.00  0.00    +0.000 OA
ATOM     14  O   UNL     1      -0.432  11.113  18.535  0.00  0.00    +0.000 OA
ENDBRANCH   6  12
ENDBRANCH   1   2
BRANCH   1  15
ATOM     15  C   UNL     1       4.074   3.820  16.988  0.00  0.00    +0.000 C 
BRANCH  15  17
ATOM     16  O   UNL     1       5.983   3.491  15.508  0.00  0.00    +0.000 OA
ATOM     17  C   UNL     1       5.493   4.068  16.481  0.00  0.00    +0.000 C 
BRANCH  17  18
ATOM     18  C   UNL     1       6.355   5.055  17.201  0.00  0.00    +0.000 A 
ATOM     19  C   UNL     1       6.437   6.365  16.685  0.00  0.00    +0.000 A 
ATOM     20  C   UNL     1       7.231   7.337  17.302  0.00  0.00    +0.000 A 
ATOM     21  C   UNL     1       7.947   6.993  18.438  0.00  0.00    +0.000 A 
ATOM     22  C   UNL     1       7.870   5.700  18.951  0.00  0.00    +0.000 A 
ATOM     23  C   UNL     1       7.083   4.725  18.348  0.00  0.00    +0.000 A 
BRANCH  21  24
ATOM     24  O   UNL     1       8.747   7.890  19.088  0.00  0.00    +0.000 OA
ATOM     25  H   UNL     1       8.390   8.784  18.937  0.00  0.00    +0.000 HD
ENDBRANCH  21  24
BRANCH  22  26
ATOM     26  O   UNL     1       8.584   5.373  20.070  0.00  0.00    +0.000 OA
ATOM     27  H   UNL     1       7.974   5.547  20.815  0.00  0.00    +0.000 HD
ENDBRANCH  22  26
ENDBRANCH  17  18
ENDBRANCH  15  17
ENDBRANCH   1  15
TORSDOF 7
ENDMDL
MODEL 9
REMARK VINA RESULT:      -7.6      1.533      2.038
REMARK  Name = 
REMARK  7 active torsions:
REMARK  status: ('A' for Active; 'I' for Inactive)
REMARK    1  A    between atoms: C_2  and  C_3
REMARK    2  A    between atoms: C_2  and  C_17
REMARK    3  A    between atoms: C_3  and  S_4
REMARK    4  A    between atoms: S_4  and  C_5
REMARK    5  A    between atoms: C_9  and  N_10
REMARK    6  A    between atoms: C_20  and  O_21
REMARK    7  A    between atoms: C_22  and  O_23
REMARK                            x       y       z     vdW  Elec       q    Type
REMARK                         _______ _______ _______ _____ _____    ______ ____
ROOT
ATOM      1  S   UNL     1       5.830   6.505  17.650  0.00  0.00    +0.000 S 
ENDROOT
BRANCH   1   2
ATOM      2  C   UNL     1       5.897   5.650  16.163  0.00  0.00    +0.000 A 
ATOM      3  N   UNL     1       5.033   4.817  15.639  0.00  0.00    +0.000 NA
ATOM      4  C   UNL     1       5.612   4.411  14.454  0.00  0.00    +0.000 A 
ATOM      5  C   UNL     1       5.146   3.508  13.485  0.00  0.00    +0.000 A 
ATOM      6  C   UNL     1       5.971   3.253  12.373  0.00  0.00    +0.000 A 
ATOM      7  C   UNL     1       7.216   3.886  12.215  0.00  0.00    +0.000 A 
ATOM      8  C   UNL     1       7.678   4.798  13.168  0.00  0.00    +0.000 A 
ATOM      9  C   UNL     1       6.851   5.025  14.269  0.00  0.00    +0.000 A 
ATOM     10  N   UNL     1       6.996   5.821  15.375  0.00  0.00    +0.000 N 
ATOM     11  H   UNL     1       7.777   6.418  15.596  0.00  0.00    +0.000 HD
BRANCH   6  12
ATOM     12  N   UNL     1       5.527   2.289  11.356  0.00  0.00    +0.000 N 
ATOM     13  O   UNL     1       4.376   2.404  10.915  0.00  0.00    +0.000 OA
ATOM     14  O   UNL     1       6.331   1.415  11.002  0.00  0.00    +0.000 OA
ENDBRANCH   6  12
ENDBRANCH   1   2
BRANCH   1  15
ATOM     15  C   UNL     1       4.112   7.094  17.700  0.00  0.00    +0.000 C 
BRANCH  15  17
ATOM     16  O   UNL     1       2.565   6.771  19.556  0.00  0.00    +0.000 OA
ATOM     17  C   UNL     1       3.297   6.274  18.698  0.00  0.00    +0.000 C 
BRANCH  17  18
ATOM     18  C   UNL     1       3.389   4.782  18.651  0.00  0.00    +0.000 A 
ATOM     19  C   UNL     1       2.558   4.094  17.741  0.00  0.00    +0.000 A 
ATOM     20  C   UNL     1       2.586   2.699  17.651  0.00  0.00    +0.000 A 
ATOM     21  C   UNL     1       3.445   1.991  18.477  0.00  0.00    +0.000 A 
ATOM     22  C   UNL     1       4.266   2.666  19.378  0.00  0.00    +0.000 A 
ATOM     23  C   UNL     1       4.250   4.053  19.476  0.00  0.00    +0.000 A 
BRANCH  21  24
ATOM     24  O   UNL     1       3.518   0.628  18.446  0.00  0.00    +0.000 OA
ATOM     25  H   UNL     1       2.611   0.272  18.430  0.00  0.00    +0.000 HD
ENDBRANCH  21  24
BRANCH  22  26
ATOM     26  O   UNL     1       5.106   1.957  20.190  0.00  0.00    +0.000 OA
ATOM     27  H   UNL     1       6.000   2.296  19.981  0.00  0.00    +0.000 HD
ENDBRANCH  22  26
ENDBRANCH  17  18
ENDBRANCH  15  17
ENDBRANCH   1  15
TORSDOF 7
ENDMDL
