MODEL 1
REMARK VINA RESULT:      -7.5      0.000      0.000
REMARK  Name = 
REMARK  4 active torsions:
REMARK  status: ('A' for Active; 'I' for Inactive)
REMARK    1  A    between atoms: C_1  and  O_2
REMARK    2  A    between atoms: O_2  and  C_3
REMARK    3  A    between atoms: C_8  and  O_9
REMARK    4  A    between atoms: O_9  and  C_10
REMARK                            x       y       z     vdW  Elec       q    Type
REMARK                         _______ _______ _______ _____ _____    ______ ____
ROOT
ATOM      1  C   UNL     1       6.582   6.689  16.962  0.00  0.00    +0.000 A 
ATOM      2  N   UNL     1       7.418   5.670  16.624  0.00  0.00    +0.000 NA
ATOM      3  C   UNL     1       6.895   4.433  16.610  0.00  0.00    +0.000 A 
ATOM      4  C   UNL     1       5.583   4.169  16.948  0.00  0.00    +0.000 A 
ATOM      5  C   UNL     1       4.741   5.250  17.288  0.00  0.00    +0.000 A 
ATOM      6  C   UNL     1       3.406   5.130  17.667  0.00  0.00    +0.000 A 
ATOM      7  N   UNL     1       2.588   6.174  17.899  0.00  0.00    +0.000 NA
ATOM      8  C   UNL     1       3.135   7.378  17.819  0.00  0.00    +0.000 A 
ATOM      9  N   UNL     1       2.325   8.461  18.078  0.00  0.00    +0.000 N 
ATOM     10  N   UNL     1       4.419   7.611  17.565  0.00  0.00    +0.000 NA
ATOM     11  C   UNL     1       5.221   6.558  17.278  0.00  0.00    +0.000 A 
ATOM     12  H   UNL     1       1.533   8.178  18.638  0.00  0.00    +0.000 HD
ATOM     13  H   UNL     1       2.877   9.242  18.404  0.00  0.00    +0.000 HD
ENDROOT
BRANCH   1  15
ATOM     14  C   UNL     1       8.109   8.133  18.020  0.00  0.00    +0.000 C 
ATOM     15  O   UNL     1       7.106   7.974  17.026  0.00  0.00    +0.000 OA
ENDBRANCH   1  15
BRANCH   6  16
ATOM     16  O   UNL     1       2.888   3.845  17.809  0.00  0.00    +0.000 OA
BRANCH  16  17
ATOM     17  C   UNL     1       2.523   3.437  19.075  0.00  0.00    +0.000 A 
ATOM     18  C   UNL     1       1.156   3.409  19.354  0.00  0.00    +0.000 A 
ATOM     19  C   UNL     1       0.708   3.017  20.617  0.00  0.00    +0.000 A 
ATOM     20  C   UNL     1       1.624   2.642  21.599  0.00  0.00    +0.000 A 
ATOM     21  C   UNL     1       2.988   2.629  21.310  0.00  0.00    +0.000 A 
ATOM     22  C   UNL     1       3.435   3.003  20.045  0.00  0.00    +0.000 A 
ENDBRANCH  16  17
ENDBRANCH   6  16
TORSDOF 3
ENDMDL
MODEL 2
REMARK VINA RESULT:      -7.4      0.225      1.100
REMARK  Name = 
REMARK  4 active torsions:
REMARK  status: ('A' for Active; 'I' for Inactive)
REMARK    1  A    between atoms: C_1  and  O_2
REMARK    2  A    between atoms: O_2  and  C_3
REMARK    3  A    between atoms: C_8  and  O_9
REMARK    4  A    between atoms: O_9  and  C_10
REMARK                            x       y       z     vdW  Elec       q    Type
REMARK                         _______ _______ _______ _____ _____    ______ ____
ROOT
ATOM      1  C   UNL     1       6.575   6.484  16.739  0.00  0.00    +0.000 A 
ATOM      2  N   UNL     1       7.338   5.435  16.328  0.00  0.00    +0.000 NA
ATOM      3  C   UNL     1       6.754   4.225  16.317  0.00  0.00    +0.000 A 
ATOM      4  C   UNL     1       5.453   4.016  16.725  0.00  0.00    +0.000 A 
ATOM      5  C   UNL     1       4.687   5.127  17.141  0.00  0.00    +0.000 A 
ATOM      6  C   UNL     1       3.372   5.062  17.596  0.00  0.00    +0.000 A 
ATOM      7  N   UNL     1       2.621   6.138  17.899  0.00  0.00    +0.000 NA
ATOM      8  C   UNL     1       3.222   7.315  17.816  0.00  0.00    +0.000 A 
ATOM      9  N   UNL     1       2.483   8.429  18.148  0.00  0.00    +0.000 N 
ATOM     10  N   UNL     1       4.499   7.493  17.492  0.00  0.00    +0.000 NA
ATOM     11  C   UNL     1       5.230   6.411  17.133  0.00  0.00    +0.000 A 
ATOM     12  H   UNL     1       1.712   8.170  18.747  0.00  0.00    +0.000 HD
ATOM     13  H   UNL     1       3.091   9.174  18.458  0.00  0.00    +0.000 HD
ENDROOT
BRANCH   1  15
ATOM     14  C   UNL     1       7.983   7.931  17.948  0.00  0.00    +0.000 C 
ATOM     15  O   UNL     1       7.164   7.740  16.802  0.00  0.00    +0.000 OA
ENDBRANCH   1  15
BRANCH   6  16
ATOM     16  O   UNL     1       2.800   3.799  17.738  0.00  0.00    +0.000 OA
BRANCH  16  17
ATOM     17  C   UNL     1       2.423   3.406  19.005  0.00  0.00    +0.000 A 
ATOM     18  C   UNL     1       3.448   3.015  19.869  0.00  0.00    +0.000 A 
ATOM     19  C   UNL     1       3.145   2.594  21.165  0.00  0.00    +0.000 A 
ATOM     20  C   UNL     1       1.821   2.574  21.604  0.00  0.00    +0.000 A 
ATOM     21  C   UNL     1       0.801   3.004  20.757  0.00  0.00    +0.000 A 
ATOM     22  C   UNL     1       1.103   3.441  19.469  0.00  0.00    +0.000 A 
ENDBRANCH  16  17
ENDBRANCH   6  16
TORSDOF 3
ENDMDL
MODEL 3
REMARK VINA RESULT:      -7.2      2.454      3.335
REMARK  Name = 
REMARK  4 active torsions:
REMARK  status: ('A' for Active; 'I' for Inactive)
REMARK    1  A    between atoms: C_1  and  O_2
REMARK    2  A    between atoms: O_2  and  C_3
REMARK    3  A    between atoms: C_8  and  O_9
REMARK    4  A    between atoms: O_9  and  C_10
REMARK                            x       y       z     vdW  Elec       q    Type
REMARK                         _______ _______ _______ _____ _____    ______ ____
ROOT
ATOM      1  C   UNL     1       6.835   4.951  15.173  0.00  0.00    +0.000 A 
ATOM      2  N   UNL     1       5.969   4.175  14.466  0.00  0.00    +0.000 NA
ATOM      3  C   UNL     1       5.048   3.495  15.170  0.00  0.00    +0.000 A 
ATOM      4  C   UNL     1       4.975   3.536  16.548  0.00  0.00    +0.000 A 
ATOM      5  C   UNL     1       5.886   4.356  17.250  0.00  0.00    +0.000 A 
ATOM      6  C   UNL     1       5.940   4.478  18.636  0.00  0.00    +0.000 A 
ATOM      7  N   UNL     1       6.749   5.334  19.290  0.00  0.00    +0.000 NA
ATOM      8  C   UNL     1       7.583   6.040  18.541  0.00  0.00    +0.000 A 
ATOM      9  N   UNL     1       8.440   6.903  19.189  0.00  0.00    +0.000 N 
ATOM     10  N   UNL     1       7.691   5.935  17.221  0.00  0.00    +0.000 NA
ATOM     11  C   UNL     1       6.835   5.114  16.567  0.00  0.00    +0.000 A 
ATOM     12  H   UNL     1       8.564   6.615  20.149  0.00  0.00    +0.000 HD
ATOM     13  H   UNL     1       9.269   7.057  18.633  0.00  0.00    +0.000 HD
ENDROOT
BRANCH   1  15
ATOM     14  C   UNL     1       7.899   5.281  13.101  0.00  0.00    +0.000 C 
ATOM     15  O   UNL     1       7.825   5.632  14.476  0.00  0.00    +0.000 OA
ENDBRANCH   1  15
BRANCH   6  16
ATOM     16  O   UNL     1       5.097   3.665  19.389  0.00  0.00    +0.000 OA
BRANCH  16  17
ATOM     17  C   UNL     1       3.868   4.177  19.750  0.00  0.00    +0.000 A 
ATOM     18  C   UNL     1       2.973   3.290  20.351  0.00  0.00    +0.000 A 
ATOM     19  C   UNL     1       1.705   3.731  20.735  0.00  0.00    +0.000 A 
ATOM     20  C   UNL     1       1.333   5.060  20.530  0.00  0.00    +0.000 A 
ATOM     21  C   UNL     1       2.240   5.957  19.968  0.00  0.00    +0.000 A 
ATOM     22  C   UNL     1       3.512   5.523  19.600  0.00  0.00    +0.000 A 
ENDBRANCH  16  17
ENDBRANCH   6  16
TORSDOF 3
ENDMDL
MODEL 4
REMARK VINA RESULT:      -7.0      2.379      6.004
REMARK  Name = 
REMARK  4 active torsions:
REMARK  status: ('A' for Active; 'I' for Inactive)
REMARK    1  A    between atoms: C_1  and  O_2
REMARK    2  A    between atoms: O_2  and  C_3
REMARK    3  A    between atoms: C_8  and  O_9
REMARK    4  A    between atoms: O_9  and  C_10
REMARK                            x       y       z     vdW  Elec       q    Type
REMARK                         _______ _______ _______ _____ _____    ______ ____
ROOT
ATOM      1  C   UNL     1       1.843   4.601  20.285  0.00  0.00    +0.000 A 
ATOM      2  N   UNL     1       1.597   5.928  20.468  0.00  0.00    +0.000 NA
ATOM      3  C   UNL     1       2.235   6.783  19.651  0.00  0.00    +0.000 A 
ATOM      4  C   UNL     1       3.125   6.371  18.681  0.00  0.00    +0.000 A 
ATOM      5  C   UNL     1       3.353   4.987  18.513  0.00  0.00    +0.000 A 
ATOM      6  C   UNL     1       4.236   4.432  17.591  0.00  0.00    +0.000 A 
ATOM      7  N   UNL     1       4.374   3.110  17.376  0.00  0.00    +0.000 NA
ATOM      8  C   UNL     1       3.661   2.311  18.155  0.00  0.00    +0.000 A 
ATOM      9  N   UNL     1       3.806   0.953  17.973  0.00  0.00    +0.000 N 
ATOM     10  N   UNL     1       2.863   2.723  19.135  0.00  0.00    +0.000 NA
ATOM     11  C   UNL     1       2.687   4.054  19.306  0.00  0.00    +0.000 A 
ATOM     12  H   UNL     1       4.690   0.754  17.528  0.00  0.00    +0.000 HD
ATOM     13  H   UNL     1       3.586   0.459  18.826  0.00  0.00    +0.000 HD
ENDROOT
BRANCH   1  15
ATOM     14  C   UNL     1       2.130   3.066  22.044  0.00  0.00    +0.000 C 
ATOM     15  O   UNL     1       1.231   3.696  21.142  0.00  0.00    +0.000 OA
ENDBRANCH   1  15
BRANCH   6  16
ATOM     16  O   UNL     1       5.020   5.306  16.841  0.00  0.00    +0.000 OA
BRANCH  16  17
ATOM     17  C   UNL     1       6.106   5.886  17.462  0.00  0.00    +0.000 A 
ATOM     18  C   UNL     1       6.466   7.163  17.029  0.00  0.00    +0.000 A 
ATOM     19  C   UNL     1       7.561   7.812  17.603  0.00  0.00    +0.000 A 
ATOM     20  C   UNL     1       8.290   7.192  18.618  0.00  0.00    +0.000 A 
ATOM     21  C   UNL     1       7.906   5.935  19.082  0.00  0.00    +0.000 A 
ATOM     22  C   UNL     1       6.803   5.293  18.522  0.00  0.00    +0.000 A 
ENDBRANCH  16  17
ENDBRANCH   6  16
TORSDOF 3
ENDMDL
MODEL 5
REMARK VINA RESULT:      -7.0      2.773      5.779
REMARK  Name = 
REMARK  4 active torsions:
REMARK  status: ('A' for Active; 'I' for Inactive)
REMARK    1  A    between atoms: C_1  and  O_2
REMARK    2  A    between atoms: O_2  and  C_3
REMARK    3  A    between atoms: C_8  and  O_9
REMARK    4  A    between atoms: O_9  and  C_10
REMARK                            x       y       z     vdW  Elec       q    Type
REMARK                         _______ _______ _______ _____ _____    ______ ____
ROOT
ATOM      1  C   UNL     1       1.264   8.158  20.150  0.00  0.00    +0.000 A 
ATOM      2  N   UNL     1       1.358   9.180  19.255  0.00  0.00    +0.000 NA
ATOM      3  C   UNL     1       2.130   8.973  18.175  0.00  0.00    +0.000 A 
ATOM      4  C   UNL     1       2.833   7.804  17.967  0.00  0.00    +0.000 A 
ATOM      5  C   UNL     1       2.710   6.763  18.913  0.00  0.00    +0.000 A 
ATOM      6  C   UNL     1       3.374   5.541  18.842  0.00  0.00    +0.000 A 
ATOM      7  N   UNL     1       3.176   4.520  19.697  0.00  0.00    +0.000 NA
ATOM      8  C   UNL     1       2.342   4.748  20.700  0.00  0.00    +0.000 A 
ATOM      9  N   UNL     1       2.144   3.729  21.604  0.00  0.00    +0.000 N 
ATOM     10  N   UNL     1       1.729   5.906  20.927  0.00  0.00    +0.000 NA
ATOM     11  C   UNL     1       1.889   6.907  20.030  0.00  0.00    +0.000 A 
ATOM     12  H   UNL     1       2.925   3.088  21.584  0.00  0.00    +0.000 HD
ATOM     13  H   UNL     1       1.865   4.103  22.501  0.00  0.00    +0.000 HD
ENDROOT
BRANCH   1  15
ATOM     14  C   UNL     1       1.080   9.289  22.205  0.00  0.00    +0.000 C 
ATOM     15  O   UNL     1       0.507   8.358  21.297  0.00  0.00    +0.000 OA
ENDBRANCH   1  15
BRANCH   6  16
ATOM     16  O   UNL     1       4.297   5.367  17.812  0.00  0.00    +0.000 OA
BRANCH  16  17
ATOM     17  C   UNL     1       5.561   5.888  17.992  0.00  0.00    +0.000 A 
ATOM     18  C   UNL     1       6.331   5.325  19.012  0.00  0.00    +0.000 A 
ATOM     19  C   UNL     1       7.618   5.806  19.261  0.00  0.00    +0.000 A 
ATOM     20  C   UNL     1       8.142   6.840  18.486  0.00  0.00    +0.000 A 
ATOM     21  C   UNL     1       7.392   7.374  17.440  0.00  0.00    +0.000 A 
ATOM     22  C   UNL     1       6.114   6.884  17.178  0.00  0.00    +0.000 A 
ENDBRANCH  16  17
ENDBRANCH   6  16
TORSDOF 3
ENDMDL
MODEL 6
REMARK VINA RESULT:      -7.0      2.071      5.730
REMARK  Name = 
REMARK  4 active torsions:
REMARK  status: ('A' for Active; 'I' for Inactive)
REMARK    1  A    between atoms: C_1  and  O_2
REMARK    2  A    between atoms: O_2  and  C_3
REMARK    3  A    between atoms: C_8  and  O_9
REMARK    4  A    between atoms: O_9  and  C_10
REMARK                            x       y       z     vdW  Elec       q    Type
REMARK                         _______ _______ _______ _____ _____    ______ ____
ROOT
ATOM      1  C   UNL     1       1.912   2.821  19.603  0.00  0.00    +0.000 A 
ATOM      2  N   UNL     1       2.430   1.729  18.977  0.00  0.00    +0.000 NA
ATOM      3  C   UNL     1       3.426   1.945  18.101  0.00  0.00    +0.000 A 
ATOM      4  C   UNL     1       3.905   3.205  17.805  0.00  0.00    +0.000 A 
ATOM      5  C   UNL     1       3.349   4.316  18.476  0.00  0.00    +0.000 A 
ATOM      6  C   UNL     1       3.720   5.641  18.263  0.00  0.00    +0.000 A 
ATOM      7  N   UNL     1       3.251   6.683  18.975  0.00  0.00    +0.000 NA
ATOM      8  C   UNL     1       2.328   6.404  19.884  0.00  0.00    +0.000 A 
ATOM      9  N   UNL     1       1.812   7.457  20.607  0.00  0.00    +0.000 N 
ATOM     10  N   UNL     1       1.824   5.194  20.105  0.00  0.00    +0.000 NA
ATOM     11  C   UNL     1       2.343   4.145  19.424  0.00  0.00    +0.000 A 
ATOM     12  H   UNL     1       1.941   8.322  20.102  0.00  0.00    +0.000 HD
ATOM     13  H   UNL     1       0.881   7.236  20.933  0.00  0.00    +0.000 HD
ENDROOT
BRANCH   1  15
ATOM     14  C   UNL     1       1.258   2.439  21.830  0.00  0.00    +0.000 C 
ATOM     15  O   UNL     1       0.854   2.633  20.481  0.00  0.00    +0.000 OA
ENDBRANCH   1  15
BRANCH   6  16
ATOM     16  O   UNL     1       4.641   5.899  17.250  0.00  0.00    +0.000 OA
BRANCH  16  17
ATOM     17  C   UNL     1       5.866   6.416  17.614  0.00  0.00    +0.000 A 
ATOM     18  C   UNL     1       6.616   5.667  18.523  0.00  0.00    +0.000 A 
ATOM     19  C   UNL     1       7.863   6.130  18.948  0.00  0.00    +0.000 A 
ATOM     20  C   UNL     1       8.367   7.335  18.458  0.00  0.00    +0.000 A 
ATOM     21  C   UNL     1       7.639   8.063  17.519  0.00  0.00    +0.000 A 
ATOM     22  C   UNL     1       6.402   7.594  17.080  0.00  0.00    +0.000 A 
ENDBRANCH  16  17
ENDBRANCH   6  16
TORSDOF 3
ENDMDL
MODEL 7
REMARK VINA RESULT:      -6.9      2.584      5.357
REMARK  Name = 
REMARK  4 active torsions:
REMARK  status: ('A' for Active; 'I' for Inactive)
REMARK    1  A    between atoms: C_1  and  O_2
REMARK    2  A    between atoms: O_2  and  C_3
REMARK    3  A    between atoms: C_8  and  O_9
REMARK    4  A    between atoms: O_9  and  C_10
REMARK                            x       y       z     vdW  Elec       q    Type
REMARK                         _______ _______ _______ _____ _____    ______ ____
ROOT
ATOM      1  C   UNL     1       1.868   7.481  20.186  0.00  0.00    +0.000 A 
ATOM      2  N   UNL     1       1.933   8.385  19.170  0.00  0.00    +0.000 NA
ATOM      3  C   UNL     1       2.318   7.923  17.969  0.00  0.00    +0.000 A 
ATOM      4  C   UNL     1       2.667   6.606  17.747  0.00  0.00    +0.000 A 
ATOM      5  C   UNL     1       2.582   5.693  18.822  0.00  0.00    +0.000 A 
ATOM      6  C   UNL     1       2.920   4.345  18.748  0.00  0.00    +0.000 A 
ATOM      7  N   UNL     1       2.746   3.464  19.752  0.00  0.00    +0.000 NA
ATOM      8  C   UNL     1       2.286   3.957  20.892  0.00  0.00    +0.000 A 
ATOM      9  N   UNL     1       2.125   3.081  21.942  0.00  0.00    +0.000 N 
ATOM     10  N   UNL     1       2.025   5.242  21.110  0.00  0.00    +0.000 NA
ATOM     11  C   UNL     1       2.149   6.110  20.079  0.00  0.00    +0.000 A 
ATOM     12  H   UNL     1       2.713   2.270  21.813  0.00  0.00    +0.000 HD
ATOM     13  H   UNL     1       2.189   3.573  22.823  0.00  0.00    +0.000 HD
ENDROOT
BRANCH   1  15
ATOM     14  C   UNL     1       0.820   9.178  21.434  0.00  0.00    +0.000 C 
ATOM     15  O   UNL     1       1.513   7.937  21.449  0.00  0.00    +0.000 OA
ENDBRANCH   1  15
BRANCH   6  16
ATOM     16  O   UNL     1       3.467   3.880  17.554  0.00  0.00    +0.000 OA
BRANCH  16  17
ATOM     17  C   UNL     1       4.799   4.148  17.313  0.00  0.00    +0.000 A 
ATOM     18  C   UNL     1       5.196   4.189  15.975  0.00  0.00    +0.000 A 
ATOM     19  C   UNL     1       6.530   4.445  15.651  0.00  0.00    +0.000 A 
ATOM     20  C   UNL     1       7.466   4.671  16.661  0.00  0.00    +0.000 A 
ATOM     21  C   UNL     1       7.063   4.672  17.995  0.00  0.00    +0.000 A 
ATOM     22  C   UNL     1       5.728   4.435  18.320  0.00  0.00    +0.000 A 
ENDBRANCH  16  17
ENDBRANCH   6  16
TORSDOF 3
ENDMDL
MODEL 8
REMARK VINA RESULT:      -6.9      2.445      3.363
REMARK  Name = 
REMARK  4 active torsions:
REMARK  status: ('A' for Active; 'I' for Inactive)
REMARK    1  A    between atoms: C_1  and  O_2
REMARK    2  A    between atoms: O_2  and  C_3
REMARK    3  A    between atoms: C_8  and  O_9
REMARK    4  A    between atoms: O_9  and  C_10
REMARK                            x       y       z     vdW  Elec       q    Type
REMARK                         _______ _______ _______ _____ _____    ______ ____
ROOT
ATOM      1  C   UNL     1       7.042   5.027  14.825  0.00  0.00    +0.000 A 
ATOM      2  N   UNL     1       6.205   4.391  13.958  0.00  0.00    +0.000 NA
ATOM      3  C   UNL     1       5.160   3.738  14.492  0.00  0.00    +0.000 A 
ATOM      4  C   UNL     1       4.931   3.670  15.851  0.00  0.00    +0.000 A 
ATOM      5  C   UNL     1       5.814   4.346  16.721  0.00  0.00    +0.000 A 
ATOM      6  C   UNL     1       5.717   4.347  18.110  0.00  0.00    +0.000 A 
ATOM      7  N   UNL     1       6.508   5.071  18.925  0.00  0.00    +0.000 NA
ATOM      8  C   UNL     1       7.475   5.763  18.340  0.00  0.00    +0.000 A 
ATOM      9  N   UNL     1       8.315   6.490  19.154  0.00  0.00    +0.000 N 
ATOM     10  N   UNL     1       7.727   5.758  17.035  0.00  0.00    +0.000 NA
ATOM     11  C   UNL     1       6.892   5.073  16.219  0.00  0.00    +0.000 A 
ATOM     12  H   UNL     1       8.304   6.113  20.091  0.00  0.00    +0.000 HD
ATOM     13  H   UNL     1       9.213   6.617  18.708  0.00  0.00    +0.000 HD
ENDROOT
BRANCH   1  15
ATOM     14  C   UNL     1       8.242   5.614  12.888  0.00  0.00    +0.000 C 
ATOM     15  O   UNL     1       8.155   5.675  14.305  0.00  0.00    +0.000 OA
ENDBRANCH   1  15
BRANCH   6  16
ATOM     16  O   UNL     1       4.732   3.550  18.689  0.00  0.00    +0.000 OA
BRANCH  16  17
ATOM     17  C   UNL     1       3.726   4.183  19.389  0.00  0.00    +0.000 A 
ATOM     18  C   UNL     1       3.309   5.423  18.902  0.00  0.00    +0.000 A 
ATOM     19  C   UNL     1       2.302   6.130  19.562  0.00  0.00    +0.000 A 
ATOM     20  C   UNL     1       1.702   5.595  20.702  0.00  0.00    +0.000 A 
ATOM     21  C   UNL     1       2.087   4.338  21.165  0.00  0.00    +0.000 A 
ATOM     22  C   UNL     1       3.079   3.623  20.498  0.00  0.00    +0.000 A 
ENDBRANCH  16  17
ENDBRANCH   6  16
TORSDOF 3
ENDMDL
MODEL 9
REMARK VINA RESULT:      -6.9      2.383      6.005
REMARK  Name = 
REMARK  4 active torsions:
REMARK  status: ('A' for Active; 'I' for Inactive)
REMARK    1  A    between atoms: C_1  and  O_2
REMARK    2  A    between atoms: O_2  and  C_3
REMARK    3  A    between atoms: C_8  and  O_9
REMARK    4  A    between atoms: O_9  and  C_10
REMARK                            x       y       z     vdW  Elec       q    Type
REMARK                         _______ _______ _______ _____ _____    ______ ____
ROOT
ATOM      1  C   UNL     1       1.891   4.652  20.315  0.00  0.00    +0.000 A 
ATOM      2  N   UNL     1       1.657   5.983  20.478  0.00  0.00    +0.000 NA
ATOM      3  C   UNL     1       2.280   6.819  19.631  0.00  0.00    +0.000 A 
ATOM      4  C   UNL     1       3.147   6.384  18.649  0.00  0.00    +0.000 A 
ATOM      5  C   UNL     1       3.364   4.996  18.503  0.00  0.00    +0.000 A 
ATOM      6  C   UNL     1       4.223   4.419  17.573  0.00  0.00    +0.000 A 
ATOM      7  N   UNL     1       4.351   3.093  17.379  0.00  0.00    +0.000 NA
ATOM      8  C   UNL     1       3.651   2.312  18.189  0.00  0.00    +0.000 A 
ATOM      9  N   UNL     1       3.785   0.951  18.029  0.00  0.00    +0.000 N 
ATOM     10  N   UNL     1       2.877   2.747  19.178  0.00  0.00    +0.000 NA
ATOM     11  C   UNL     1       2.711   4.082  19.328  0.00  0.00    +0.000 A 
ATOM     12  H   UNL     1       4.659   0.738  17.569  0.00  0.00    +0.000 HD
ATOM     13  H   UNL     1       3.583   0.474  18.897  0.00  0.00    +0.000 HD
ENDROOT
BRANCH   1  15
ATOM     14  C   UNL     1       2.221   3.073  22.028  0.00  0.00    +0.000 C 
ATOM     15  O   UNL     1       1.294   3.766  21.202  0.00  0.00    +0.000 OA
ENDBRANCH   1  15
BRANCH   6  16
ATOM     16  O   UNL     1       4.995   5.275  16.789  0.00  0.00    +0.000 OA
BRANCH  16  17
ATOM     17  C   UNL     1       6.067   5.901  17.389  0.00  0.00    +0.000 A 
ATOM     18  C   UNL     1       6.730   5.185  18.388  0.00  0.00    +0.000 A 
ATOM     19  C   UNL     1       7.820   5.756  19.050  0.00  0.00    +0.000 A 
ATOM     20  C   UNL     1       8.255   7.036  18.707  0.00  0.00    +0.000 A 
ATOM     21  C   UNL     1       7.621   7.736  17.681  0.00  0.00    +0.000 A 
ATOM     22  C   UNL     1       6.545   7.161  17.008  0.00  0.00    +0.000 A 
ENDBRANCH  16  17
ENDBRANCH   6  16
TORSDOF 3
ENDMDL
