MODEL 1
REMARK VINA RESULT:      -5.8      0.000      0.000
REMARK  Name = 
REMARK  23 active torsions:
REMARK  status: ('A' for Active; 'I' for Inactive)
REMARK    1  A    between atoms: N_1  and  C_2
REMARK    2  A    between atoms: N_10  and  C_11
REMARK    3  A    between atoms: C_11  and  C_12
REMARK    4  A    between atoms: C_12  and  O_13
REMARK    5  A    between atoms: O_13  and  C_14
REMARK    6  A    between atoms: C_14  and  P_15
REMARK    7  A    between atoms: P_15  and  O_17
REMARK    8  A    between atoms: P_15  and  O_18
REMARK    9  A    between atoms: O_18  and  C_19
REMARK   10  A    between atoms: C_19  and  C_20
REMARK   11  A    between atoms: C_20  and  O_21
REMARK   12  A    between atoms: O_21  and  C_22
REMARK   13  A    between atoms: C_22  and  C_23
REMARK   14  A    between atoms: C_23  and  C_24
REMARK   15  A    between atoms: C_24  and  C_25
REMARK   16  A    between atoms: C_25  and  C_26
REMARK   17  A    between atoms: C_26  and  C_27
REMARK   18  A    between atoms: C_27  and  C_28
REMARK   19  A    between atoms: C_28  and  C_29
REMARK   20  A    between atoms: C_29  and  C_30
REMARK   21  A    between atoms: C_30  and  O_31
REMARK   22  A    between atoms: C_30  and  C_32
REMARK   23  A    between atoms: C_32  and  O_33
REMARK                            x       y       z     vdW  Elec       q    Type
REMARK                         _______ _______ _______ _____ _____    ______ ____
ROOT
ATOM      1  P   UNL     1       1.124   8.199  20.809  0.00  0.00    +0.000 P 
ATOM      2  O   UNL     1       0.963   9.456  19.943  0.00  0.00    +0.000 OA
ENDROOT
BRANCH   1   3
ATOM      3  O   UNL     1       2.140   8.689  22.007  0.00  0.00    +0.000 OA
ATOM      4  H   UNL     1       2.236   9.657  21.892  0.00  0.00    +0.000 HD
ENDBRANCH   1   3
BRANCH   1   5
ATOM      5  C   UNL     1      -0.280   8.756  21.844  0.00  0.00    +0.000 C 
BRANCH   5   6
ATOM      6  O   UNL     1       0.152   9.761  22.768  0.00  0.00    +0.000 OA
BRANCH   6   7
ATOM      7  C   UNL     1      -0.951  10.604  23.108  0.00  0.00    +0.000 C 
BRANCH   7   8
ATOM      8  C   UNL     1      -1.322  11.484  21.925  0.00  0.00    +0.000 C 
BRANCH   8  17
ATOM      9  C   UNL     1       0.730  15.814  22.774  0.00  0.00    +0.000 A 
ATOM     10  N   UNL     1      -0.101  16.127  23.805  0.00  0.00    +0.000 NA
ATOM     11  C   UNL     1      -1.070  15.237  24.159  0.00  0.00    +0.000 A 
ATOM     12  N   UNL     1      -1.355  14.016  23.630  0.00  0.00    +0.000 NA
ATOM     13  C   UNL     1      -0.495  13.757  22.624  0.00  0.00    +0.000 A 
ATOM     14  C   UNL     1       0.545  14.557  22.156  0.00  0.00    +0.000 A 
ATOM     15  N   UNL     1       1.224  13.920  21.131  0.00  0.00    +0.000 NA
ATOM     16  C   UNL     1       0.601  12.772  20.973  0.00  0.00    +0.000 A 
ATOM     17  N   UNL     1      -0.450  12.636  21.837  0.00  0.00    +0.000 N 
BRANCH   9  18
ATOM     18  N   UNL     1       1.697  16.733  22.378  0.00  0.00    +0.000 N 
ATOM     19  H   UNL     1       2.627  16.594  22.748  0.00  0.00    +0.000 HD
ATOM     20  H   UNL     1       1.592  17.121  21.445  0.00  0.00    +0.000 HD
ENDBRANCH   9  18
ENDBRANCH   8  17
ENDBRANCH   7   8
ENDBRANCH   6   7
ENDBRANCH   5   6
ENDBRANCH   1   5
BRANCH   1  21
ATOM     21  O   UNL     1       2.451   7.672  19.833  0.00  0.00    +0.000 OA
BRANCH  21  22
ATOM     22  C   UNL     1       2.334   6.313  19.435  0.00  0.00    +0.000 C 
BRANCH  22  23
ATOM     23  C   UNL     1       1.798   5.516  20.610  0.00  0.00    +0.000 C 
BRANCH  23  24
ATOM     24  O   UNL     1       2.602   4.373  20.921  0.00  0.00    +0.000 OA
BRANCH  24  25
ATOM     25  C   UNL     1       1.928   3.116  20.892  0.00  0.00    +0.000 C 
BRANCH  25  26
ATOM     26  C   UNL     1       0.707   3.133  19.978  0.00  0.00    +0.000 C 
BRANCH  26  27
ATOM     27  C   UNL     1       1.065   2.474  18.646  0.00  0.00    +0.000 C 
BRANCH  27  28
ATOM     28  C   UNL     1       2.557   2.233  18.532  0.00  0.00    +0.000 C 
BRANCH  28  29
ATOM     29  C   UNL     1       3.108   3.090  17.396  0.00  0.00    +0.000 C 
BRANCH  29  30
ATOM     30  C   UNL     1       4.500   3.586  17.743  0.00  0.00    +0.000 C 
BRANCH  30  31
ATOM     31  C   UNL     1       5.025   4.464  16.617  0.00  0.00    +0.000 C 
BRANCH  31  32
ATOM     32  C   UNL     1       5.988   5.507  17.167  0.00  0.00    +0.000 C 
BRANCH  32  33
ATOM     33  C   UNL     1       7.034   4.875  18.091  0.00  0.00    +0.000 C 
BRANCH  33  34
ATOM     34  O   UNL     1       8.001   4.178  17.295  0.00  0.00    +0.000 OA
ATOM     35  H   UNL     1       8.676   3.852  17.918  0.00  0.00    +0.000 HD
ENDBRANCH  33  34
BRANCH  33  36
ATOM     36  C   UNL     1       7.716   5.943  18.964  0.00  0.00    +0.000 C 
BRANCH  36  37
ATOM     37  O   UNL     1       7.841   5.490  20.317  0.00  0.00    +0.000 OA
ATOM     38  H   UNL     1       7.564   6.208  20.917  0.00  0.00    +0.000 HD
ENDBRANCH  36  37
ENDBRANCH  33  36
ENDBRANCH  32  33
ENDBRANCH  31  32
ENDBRANCH  30  31
ENDBRANCH  29  30
ENDBRANCH  28  29
ENDBRANCH  27  28
ENDBRANCH  26  27
ENDBRANCH  25  26
ENDBRANCH  24  25
ENDBRANCH  23  24
ENDBRANCH  22  23
ENDBRANCH  21  22
ENDBRANCH   1  21
TORSDOF 23
ENDMDL
MODEL 2
REMARK VINA RESULT:      -5.8      2.852      3.952
REMARK  Name = 
REMARK  23 active torsions:
REMARK  status: ('A' for Active; 'I' for Inactive)
REMARK    1  A    between atoms: N_1  and  C_2
REMARK    2  A    between atoms: N_10  and  C_11
REMARK    3  A    between atoms: C_11  and  C_12
REMARK    4  A    between atoms: C_12  and  O_13
REMARK    5  A    between atoms: O_13  and  C_14
REMARK    6  A    between atoms: C_14  and  P_15
REMARK    7  A    between atoms: P_15  and  O_17
REMARK    8  A    between atoms: P_15  and  O_18
REMARK    9  A    between atoms: O_18  and  C_19
REMARK   10  A    between atoms: C_19  and  C_20
REMARK   11  A    between atoms: C_20  and  O_21
REMARK   12  A    between atoms: O_21  and  C_22
REMARK   13  A    between atoms: C_22  and  C_23
REMARK   14  A    between atoms: C_23  and  C_24
REMARK   15  A    between atoms: C_24  and  C_25
REMARK   16  A    between atoms: C_25  and  C_26
REMARK   17  A    between atoms: C_26  and  C_27
REMARK   18  A    between atoms: C_27  and  C_28
REMARK   19  A    between atoms: C_28  and  C_29
REMARK   20  A    between atoms: C_29  and  C_30
REMARK   21  A    between atoms: C_30  and  O_31
REMARK   22  A    between atoms: C_30  and  C_32
REMARK   23  A    between atoms: C_32  and  O_33
REMARK                            x       y       z     vdW  Elec       q    Type
REMARK                         _______ _______ _______ _____ _____    ______ ____
ROOT
ATOM      1  P   UNL     1       0.776  10.239  19.348  0.00  0.00    +0.000 P 
ATOM      2  O   UNL     1      -0.199   9.532  20.301  0.00  0.00    +0.000 OA
ENDROOT
BRANCH   1   3
ATOM      3  O   UNL     1       0.003  10.178  17.898  0.00  0.00    +0.000 OA
ATOM      4  H   UNL     1       0.656   9.815  17.265  0.00  0.00    +0.000 HD
ENDBRANCH   1   3
BRANCH   1   5
ATOM      5  C   UNL     1      -0.081  11.823  19.679  0.00  0.00    +0.000 C 
BRANCH   5   6
ATOM      6  O   UNL     1       0.166  12.250  21.024  0.00  0.00    +0.000 OA
BRANCH   6   7
ATOM      7  C   UNL     1      -0.937  13.031  21.487  0.00  0.00    +0.000 C 
BRANCH   7   8
ATOM      8  C   UNL     1      -2.248  12.336  21.153  0.00  0.00    +0.000 C 
BRANCH   8  17
ATOM      9  C   UNL     1      -6.497  13.244  23.345  0.00  0.00    +0.000 A 
ATOM     10  N   UNL     1      -7.215  13.255  22.190  0.00  0.00    +0.000 NA
ATOM     11  C   UNL     1      -6.563  13.045  21.012  0.00  0.00    +0.000 A 
ATOM     12  N   UNL     1      -5.242  12.805  20.786  0.00  0.00    +0.000 NA
ATOM     13  C   UNL     1      -4.586  12.795  21.965  0.00  0.00    +0.000 A 
ATOM     14  C   UNL     1      -5.112  12.983  23.241  0.00  0.00    +0.000 A 
ATOM     15  N   UNL     1      -4.118  12.862  24.197  0.00  0.00    +0.000 NA
ATOM     16  C   UNL     1      -3.018  12.623  23.516  0.00  0.00    +0.000 A 
ATOM     17  N   UNL     1      -3.247  12.591  22.168  0.00  0.00    +0.000 N 
BRANCH   9  18
ATOM     18  N   UNL     1      -7.146  13.498  24.550  0.00  0.00    +0.000 N 
ATOM     19  H   UNL     1      -6.745  14.221  25.131  0.00  0.00    +0.000 HD
ATOM     20  H   UNL     1      -8.152  13.365  24.554  0.00  0.00    +0.000 HD
ENDBRANCH   9  18
ENDBRANCH   8  17
ENDBRANCH   7   8
ENDBRANCH   6   7
ENDBRANCH   5   6
ENDBRANCH   1   5
BRANCH   1  21
ATOM     21  O   UNL     1       1.585   8.743  19.035  0.00  0.00    +0.000 OA
BRANCH  21  22
ATOM     22  C   UNL     1       1.766   7.961  20.209  0.00  0.00    +0.000 C 
BRANCH  22  23
ATOM     23  C   UNL     1       2.190   6.565  19.793  0.00  0.00    +0.000 C 
BRANCH  23  24
ATOM     24  O   UNL     1       1.939   5.582  20.803  0.00  0.00    +0.000 OA
BRANCH  24  25
ATOM     25  C   UNL     1       1.022   4.549  20.447  0.00  0.00    +0.000 C 
BRANCH  25  26
ATOM     26  C   UNL     1       1.690   3.180  20.377  0.00  0.00    +0.000 C 
BRANCH  26  27
ATOM     27  C   UNL     1       1.189   2.436  19.139  0.00  0.00    +0.000 C 
BRANCH  27  28
ATOM     28  C   UNL     1       2.304   2.224  18.133  0.00  0.00    +0.000 C 
BRANCH  28  29
ATOM     29  C   UNL     1       2.511   3.516  17.349  0.00  0.00    +0.000 C 
BRANCH  29  30
ATOM     30  C   UNL     1       3.986   3.716  17.050  0.00  0.00    +0.000 C 
BRANCH  30  31
ATOM     31  C   UNL     1       4.764   3.801  18.355  0.00  0.00    +0.000 C 
BRANCH  31  32
ATOM     32  C   UNL     1       5.209   5.234  18.611  0.00  0.00    +0.000 C 
BRANCH  32  33
ATOM     33  C   UNL     1       6.655   5.462  18.160  0.00  0.00    +0.000 C 
BRANCH  33  34
ATOM     34  O   UNL     1       7.360   4.215  18.203  0.00  0.00    +0.000 OA
ATOM     35  H   UNL     1       8.148   4.370  18.757  0.00  0.00    +0.000 HD
ENDBRANCH  33  34
BRANCH  33  36
ATOM     36  C   UNL     1       6.704   6.065  16.745  0.00  0.00    +0.000 C 
BRANCH  36  37
ATOM     37  O   UNL     1       7.776   7.007  16.630  0.00  0.00    +0.000 OA
ATOM     38  H   UNL     1       8.300   6.793  15.835  0.00  0.00    +0.000 HD
ENDBRANCH  36  37
ENDBRANCH  33  36
ENDBRANCH  32  33
ENDBRANCH  31  32
ENDBRANCH  30  31
ENDBRANCH  29  30
ENDBRANCH  28  29
ENDBRANCH  27  28
ENDBRANCH  26  27
ENDBRANCH  25  26
ENDBRANCH  24  25
ENDBRANCH  23  24
ENDBRANCH  22  23
ENDBRANCH  21  22
ENDBRANCH   1  21
TORSDOF 23
ENDMDL
MODEL 3
REMARK VINA RESULT:      -5.7      4.968     10.656
REMARK  Name = 
REMARK  23 active torsions:
REMARK  status: ('A' for Active; 'I' for Inactive)
REMARK    1  A    between atoms: N_1  and  C_2
REMARK    2  A    between atoms: N_10  and  C_11
REMARK    3  A    between atoms: C_11  and  C_12
REMARK    4  A    between atoms: C_12  and  O_13
REMARK    5  A    between atoms: O_13  and  C_14
REMARK    6  A    between atoms: C_14  and  P_15
REMARK    7  A    between atoms: P_15  and  O_17
REMARK    8  A    between atoms: P_15  and  O_18
REMARK    9  A    between atoms: O_18  and  C_19
REMARK   10  A    between atoms: C_19  and  C_20
REMARK   11  A    between atoms: C_20  and  O_21
REMARK   12  A    between atoms: O_21  and  C_22
REMARK   13  A    between atoms: C_22  and  C_23
REMARK   14  A    between atoms: C_23  and  C_24
REMARK   15  A    between atoms: C_24  and  C_25
REMARK   16  A    between atoms: C_25  and  C_26
REMARK   17  A    between atoms: C_26  and  C_27
REMARK   18  A    between atoms: C_27  and  C_28
REMARK   19  A    between atoms: C_28  and  C_29
REMARK   20  A    between atoms: C_29  and  C_30
REMARK   21  A    between atoms: C_30  and  O_31
REMARK   22  A    between atoms: C_30  and  C_32
REMARK   23  A    between atoms: C_32  and  O_33
REMARK                            x       y       z     vdW  Elec       q    Type
REMARK                         _______ _______ _______ _____ _____    ______ ____
ROOT
ATOM      1  P   UNL     1       2.309   3.463  19.974  0.00  0.00    +0.000 P 
ATOM      2  O   UNL     1       0.861   3.226  20.425  0.00  0.00    +0.000 OA
ENDROOT
BRANCH   1   3
ATOM      3  O   UNL     1       3.186   2.524  21.001  0.00  0.00    +0.000 OA
ATOM      4  H   UNL     1       4.095   2.888  20.980  0.00  0.00    +0.000 HD
ENDBRANCH   1   3
BRANCH   1   5
ATOM      5  C   UNL     1       2.174   2.022  18.854  0.00  0.00    +0.000 C 
BRANCH   5   6
ATOM      6  O   UNL     1       2.690   2.349  17.558  0.00  0.00    +0.000 OA
BRANCH   6   7
ATOM      7  C   UNL     1       3.411   3.581  17.628  0.00  0.00    +0.000 C 
BRANCH   7   8
ATOM      8  C   UNL     1       4.704   3.477  16.835  0.00  0.00    +0.000 C 
BRANCH   8  17
ATOM      9  C   UNL     1       7.559   7.318  17.721  0.00  0.00    +0.000 A 
ATOM     10  N   UNL     1       8.119   6.780  18.838  0.00  0.00    +0.000 NA
ATOM     11  C   UNL     1       7.720   5.541  19.241  0.00  0.00    +0.000 A 
ATOM     12  N   UNL     1       6.809   4.702  18.676  0.00  0.00    +0.000 NA
ATOM     13  C   UNL     1       6.298   5.282  17.570  0.00  0.00    +0.000 A 
ATOM     14  C   UNL     1       6.610   6.528  17.033  0.00  0.00    +0.000 A 
ATOM     15  N   UNL     1       5.895   6.746  15.867  0.00  0.00    +0.000 NA
ATOM     16  C   UNL     1       5.158   5.668  15.714  0.00  0.00    +0.000 A 
ATOM     17  N   UNL     1       5.353   4.766  16.723  0.00  0.00    +0.000 N 
BRANCH   9  18
ATOM     18  N   UNL     1       7.929   8.599  17.324  0.00  0.00    +0.000 N 
ATOM     19  H   UNL     1       8.850   8.907  17.606  0.00  0.00    +0.000 HD
ATOM     20  H   UNL     1       7.553   8.920  16.438  0.00  0.00    +0.000 HD
ENDBRANCH   9  18
ENDBRANCH   8  17
ENDBRANCH   7   8
ENDBRANCH   6   7
ENDBRANCH   5   6
ENDBRANCH   1   5
BRANCH   1  21
ATOM     21  O   UNL     1       2.436   4.825  21.033  0.00  0.00    +0.000 OA
BRANCH  21  22
ATOM     22  C   UNL     1       1.498   5.847  20.727  0.00  0.00    +0.000 C 
BRANCH  22  23
ATOM     23  C   UNL     1       2.141   6.807  19.743  0.00  0.00    +0.000 C 
BRANCH  23  24
ATOM     24  O   UNL     1       2.119   8.165  20.193  0.00  0.00    +0.000 OA
BRANCH  24  25
ATOM     25  C   UNL     1       0.988   8.539  20.977  0.00  0.00    +0.000 C 
BRANCH  25  26
ATOM     26  C   UNL     1       0.117   9.580  20.281  0.00  0.00    +0.000 C 
BRANCH  26  27
ATOM     27  C   UNL     1       0.899  10.887  20.150  0.00  0.00    +0.000 C 
BRANCH  27  28
ATOM     28  C   UNL     1       0.016  12.088  20.423  0.00  0.00    +0.000 C 
BRANCH  28  29
ATOM     29  C   UNL     1      -1.344  11.599  20.912  0.00  0.00    +0.000 C 
BRANCH  29  30
ATOM     30  C   UNL     1      -2.293  12.772  21.079  0.00  0.00    +0.000 C 
BRANCH  30  31
ATOM     31  C   UNL     1      -2.309  13.212  22.534  0.00  0.00    +0.000 C 
BRANCH  31  32
ATOM     32  C   UNL     1      -2.818  12.083  23.420  0.00  0.00    +0.000 C 
BRANCH  32  33
ATOM     33  C   UNL     1      -4.131  12.460  24.113  0.00  0.00    +0.000 C 
BRANCH  33  34
ATOM     34  O   UNL     1      -3.849  13.366  25.187  0.00  0.00    +0.000 OA
ATOM     35  H   UNL     1      -4.416  14.145  25.038  0.00  0.00    +0.000 HD
ENDBRANCH  33  34
BRANCH  33  36
ATOM     36  C   UNL     1      -5.120  13.090  23.116  0.00  0.00    +0.000 C 
BRANCH  36  37
ATOM     37  O   UNL     1      -6.360  12.374  23.109  0.00  0.00    +0.000 OA
ATOM     38  H   UNL     1      -6.861  12.618  22.307  0.00  0.00    +0.000 HD
ENDBRANCH  36  37
ENDBRANCH  33  36
ENDBRANCH  32  33
ENDBRANCH  31  32
ENDBRANCH  30  31
ENDBRANCH  29  30
ENDBRANCH  28  29
ENDBRANCH  27  28
ENDBRANCH  26  27
ENDBRANCH  25  26
ENDBRANCH  24  25
ENDBRANCH  23  24
ENDBRANCH  22  23
ENDBRANCH  21  22
ENDBRANCH   1  21
TORSDOF 23
ENDMDL
MODEL 4
REMARK VINA RESULT:      -5.7      3.985      5.801
REMARK  Name = 
REMARK  23 active torsions:
REMARK  status: ('A' for Active; 'I' for Inactive)
REMARK    1  A    between atoms: N_1  and  C_2
REMARK    2  A    between atoms: N_10  and  C_11
REMARK    3  A    between atoms: C_11  and  C_12
REMARK    4  A    between atoms: C_12  and  O_13
REMARK    5  A    between atoms: O_13  and  C_14
REMARK    6  A    between atoms: C_14  and  P_15
REMARK    7  A    between atoms: P_15  and  O_17
REMARK    8  A    between atoms: P_15  and  O_18
REMARK    9  A    between atoms: O_18  and  C_19
REMARK   10  A    between atoms: C_19  and  C_20
REMARK   11  A    between atoms: C_20  and  O_21
REMARK   12  A    between atoms: O_21  and  C_22
REMARK   13  A    between atoms: C_22  and  C_23
REMARK   14  A    between atoms: C_23  and  C_24
REMARK   15  A    between atoms: C_24  and  C_25
REMARK   16  A    between atoms: C_25  and  C_26
REMARK   17  A    between atoms: C_26  and  C_27
REMARK   18  A    between atoms: C_27  and  C_28
REMARK   19  A    between atoms: C_28  and  C_29
REMARK   20  A    between atoms: C_29  and  C_30
REMARK   21  A    between atoms: C_30  and  O_31
REMARK   22  A    between atoms: C_30  and  C_32
REMARK   23  A    between atoms: C_32  and  O_33
REMARK                            x       y       z     vdW  Elec       q    Type
REMARK                         _______ _______ _______ _____ _____    ______ ____
ROOT
ATOM      1  P   UNL     1      -2.417  10.740  17.536  0.00  0.00    +0.000 P 
ATOM      2  O   UNL     1      -2.114  11.106  18.996  0.00  0.00    +0.000 OA
ENDROOT
BRANCH   1   3
ATOM      3  O   UNL     1      -3.278   9.344  17.664  0.00  0.00    +0.000 OA
ATOM      4  H   UNL     1      -3.301   9.135  18.620  0.00  0.00    +0.000 HD
ENDBRANCH   1   3
BRANCH   1   5
ATOM      5  C   UNL     1      -3.994  11.662  17.653  0.00  0.00    +0.000 C 
BRANCH   5   6
ATOM      6  O   UNL     1      -5.004  10.846  18.257  0.00  0.00    +0.000 OA
BRANCH   6   7
ATOM      7  C   UNL     1      -6.295  11.354  17.917  0.00  0.00    +0.000 C 
BRANCH   7   8
ATOM      8  C   UNL     1      -6.555  12.659  18.655  0.00  0.00    +0.000 C 
BRANCH   8  17
ATOM      9  C   UNL     1      -5.092  12.929  23.289  0.00  0.00    +0.000 A 
ATOM     10  N   UNL     1      -4.040  13.750  23.022  0.00  0.00    +0.000 NA
ATOM     11  C   UNL     1      -3.816  14.129  21.733  0.00  0.00    +0.000 A 
ATOM     12  N   UNL     1      -4.511  13.815  20.606  0.00  0.00    +0.000 NA
ATOM     13  C   UNL     1      -5.544  13.011  20.934  0.00  0.00    +0.000 A 
ATOM     14  C   UNL     1      -5.904  12.548  22.197  0.00  0.00    +0.000 A 
ATOM     15  N   UNL     1      -7.050  11.774  22.121  0.00  0.00    +0.000 NA
ATOM     16  C   UNL     1      -7.365  11.757  20.844  0.00  0.00    +0.000 A 
ATOM     17  N   UNL     1      -6.478  12.472  20.088  0.00  0.00    +0.000 N 
BRANCH   9  18
ATOM     18  N   UNL     1      -5.306  12.501  24.595  0.00  0.00    +0.000 N 
ATOM     19  H   UNL     1      -5.533  13.219  25.270  0.00  0.00    +0.000 HD
ATOM     20  H   UNL     1      -5.712  11.578  24.704  0.00  0.00    +0.000 HD
ENDBRANCH   9  18
ENDBRANCH   8  17
ENDBRANCH   7   8
ENDBRANCH   6   7
ENDBRANCH   5   6
ENDBRANCH   1   5
BRANCH   1  21
ATOM     21  O   UNL     1      -0.927   9.868  17.426  0.00  0.00    +0.000 OA
BRANCH  21  22
ATOM     22  C   UNL     1      -0.050  10.141  18.510  0.00  0.00    +0.000 C 
BRANCH  22  23
ATOM     23  C   UNL     1       1.373   9.890  18.048  0.00  0.00    +0.000 C 
BRANCH  23  24
ATOM     24  O   UNL     1       1.758   8.515  18.152  0.00  0.00    +0.000 OA
BRANCH  24  25
ATOM     25  C   UNL     1       1.999   8.037  19.473  0.00  0.00    +0.000 C 
BRANCH  25  26
ATOM     26  C   UNL     1       2.412   6.569  19.493  0.00  0.00    +0.000 C 
BRANCH  26  27
ATOM     27  C   UNL     1       2.560   6.066  18.057  0.00  0.00    +0.000 C 
BRANCH  27  28
ATOM     28  C   UNL     1       4.017   5.994  17.645  0.00  0.00    +0.000 C 
BRANCH  28  29
ATOM     29  C   UNL     1       4.450   4.531  17.618  0.00  0.00    +0.000 C 
BRANCH  29  30
ATOM     30  C   UNL     1       3.268   3.643  17.273  0.00  0.00    +0.000 C 
BRANCH  30  31
ATOM     31  C   UNL     1       3.507   2.242  17.815  0.00  0.00    +0.000 C 
BRANCH  31  32
ATOM     32  C   UNL     1       2.620   1.987  19.026  0.00  0.00    +0.000 C 
BRANCH  32  33
ATOM     33  C   UNL     1       1.291   2.742  18.917  0.00  0.00    +0.000 C 
BRANCH  33  34
ATOM     34  O   UNL     1       0.288   1.852  18.409  0.00  0.00    +0.000 OA
ATOM     35  H   UNL     1       0.242   2.020  17.450  0.00  0.00    +0.000 HD
ENDBRANCH  33  34
BRANCH  33  36
ATOM     36  C   UNL     1       0.868   3.314  20.282  0.00  0.00    +0.000 C 
BRANCH  36  37
ATOM     37  O   UNL     1       1.836   2.997  21.288  0.00  0.00    +0.000 OA
ATOM     38  H   UNL     1       2.671   3.456  21.078  0.00  0.00    +0.000 HD
ENDBRANCH  36  37
ENDBRANCH  33  36
ENDBRANCH  32  33
ENDBRANCH  31  32
ENDBRANCH  30  31
ENDBRANCH  29  30
ENDBRANCH  28  29
ENDBRANCH  27  28
ENDBRANCH  26  27
ENDBRANCH  25  26
ENDBRANCH  24  25
ENDBRANCH  23  24
ENDBRANCH  22  23
ENDBRANCH  21  22
ENDBRANCH   1  21
TORSDOF 23
ENDMDL
MODEL 5
REMARK VINA RESULT:      -5.6      3.840      6.106
REMARK  Name = 
REMARK  23 active torsions:
REMARK  status: ('A' for Active; 'I' for Inactive)
REMARK    1  A    between atoms: N_1  and  C_2
REMARK    2  A    between atoms: N_10  and  C_11
REMARK    3  A    between atoms: C_11  and  C_12
REMARK    4  A    between atoms: C_12  and  O_13
REMARK    5  A    between atoms: O_13  and  C_14
REMARK    6  A    between atoms: C_14  and  P_15
REMARK    7  A    between atoms: P_15  and  O_17
REMARK    8  A    between atoms: P_15  and  O_18
REMARK    9  A    between atoms: O_18  and  C_19
REMARK   10  A    between atoms: C_19  and  C_20
REMARK   11  A    between atoms: C_20  and  O_21
REMARK   12  A    between atoms: O_21  and  C_22
REMARK   13  A    between atoms: C_22  and  C_23
REMARK   14  A    between atoms: C_23  and  C_24
REMARK   15  A    between atoms: C_24  and  C_25
REMARK   16  A    between atoms: C_25  and  C_26
REMARK   17  A    between atoms: C_26  and  C_27
REMARK   18  A    between atoms: C_27  and  C_28
REMARK   19  A    between atoms: C_28  and  C_29
REMARK   20  A    between atoms: C_29  and  C_30
REMARK   21  A    between atoms: C_30  and  O_31
REMARK   22  A    between atoms: C_30  and  C_32
REMARK   23  A    between atoms: C_32  and  O_33
REMARK                            x       y       z     vdW  Elec       q    Type
REMARK                         _______ _______ _______ _____ _____    ______ ____
ROOT
ATOM      1  P   UNL     1       3.318   5.401  18.837  0.00  0.00    +0.000 P 
ATOM      2  O   UNL     1       2.905   4.888  20.223  0.00  0.00    +0.000 OA
ENDROOT
BRANCH   1   3
ATOM      3  O   UNL     1       1.994   5.100  17.909  0.00  0.00    +0.000 OA
ATOM      4  H   UNL     1       1.504   5.947  17.865  0.00  0.00    +0.000 HD
ENDBRANCH   1   3
BRANCH   1   5
ATOM      5  C   UNL     1       2.595   7.032  19.247  0.00  0.00    +0.000 C 
BRANCH   5   6
ATOM      6  O   UNL     1       2.744   7.934  18.143  0.00  0.00    +0.000 OA
BRANCH   6   7
ATOM      7  C   UNL     1       1.825   9.018  18.286  0.00  0.00    +0.000 C 
BRANCH   7   8
ATOM      8  C   UNL     1       1.132   8.944  19.637  0.00  0.00    +0.000 C 
BRANCH   8  17
ATOM      9  C   UNL     1      -2.121  12.564  19.635  0.00  0.00    +0.000 A 
ATOM     10  N   UNL     1      -2.931  11.981  18.710  0.00  0.00    +0.000 NA
ATOM     11  C   UNL     1      -2.573  10.772  18.195  0.00  0.00    +0.000 A 
ATOM     12  N   UNL     1      -1.484  10.003  18.472  0.00  0.00    +0.000 NA
ATOM     13  C   UNL     1      -0.727  10.625  19.399  0.00  0.00    +0.000 A 
ATOM     14  C   UNL     1      -0.965  11.849  20.021  0.00  0.00    +0.000 A 
ATOM     15  N   UNL     1       0.030  12.125  20.944  0.00  0.00    +0.000 NA
ATOM     16  C   UNL     1       0.854  11.102  20.871  0.00  0.00    +0.000 A 
ATOM     17  N   UNL     1       0.450  10.183  19.943  0.00  0.00    +0.000 N 
BRANCH   9  18
ATOM     18  N   UNL     1      -2.456  13.818  20.137  0.00  0.00    +0.000 N 
ATOM     19  H   UNL     1      -3.410  13.935  20.452  0.00  0.00    +0.000 HD
ATOM     20  H   UNL     1      -1.716  14.322  20.615  0.00  0.00    +0.000 HD
ENDBRANCH   9  18
ENDBRANCH   8  17
ENDBRANCH   7   8
ENDBRANCH   6   7
ENDBRANCH   5   6
ENDBRANCH   1   5
BRANCH   1  21
ATOM     21  O   UNL     1       4.001   3.860  18.449  0.00  0.00    +0.000 OA
BRANCH  21  22
ATOM     22  C   UNL     1       4.010   3.600  17.052  0.00  0.00    +0.000 C 
BRANCH  22  23
ATOM     23  C   UNL     1       4.965   4.575  16.390  0.00  0.00    +0.000 C 
BRANCH  23  24
ATOM     24  O   UNL     1       6.254   4.007  16.135  0.00  0.00    +0.000 OA
BRANCH  24  25
ATOM     25  C   UNL     1       7.368   4.764  16.601  0.00  0.00    +0.000 C 
BRANCH  25  26
ATOM     26  C   UNL     1       7.418   4.847  18.123  0.00  0.00    +0.000 C 
BRANCH  26  27
ATOM     27  C   UNL     1       7.585   6.306  18.545  0.00  0.00    +0.000 C 
BRANCH  27  28
ATOM     28  C   UNL     1       7.819   7.204  17.346  0.00  0.00    +0.000 C 
BRANCH  28  29
ATOM     29  C   UNL     1       7.525   8.647  17.746  0.00  0.00    +0.000 C 
BRANCH  29  30
ATOM     30  C   UNL     1       8.660   9.197  18.591  0.00  0.00    +0.000 C 
BRANCH  30  31
ATOM     31  C   UNL     1       9.159  10.501  17.988  0.00  0.00    +0.000 C 
BRANCH  31  32
ATOM     32  C   UNL     1      10.173  11.156  18.914  0.00  0.00    +0.000 C 
BRANCH  32  33
ATOM     33  C   UNL     1      11.385  11.682  18.139  0.00  0.00    +0.000 C 
BRANCH  33  34
ATOM     34  O   UNL     1      10.929  12.339  16.949  0.00  0.00    +0.000 OA
ATOM     35  H   UNL     1      10.375  11.689  16.479  0.00  0.00    +0.000 HD
ENDBRANCH  33  34
BRANCH  33  36
ATOM     36  C   UNL     1      12.219  12.644  19.005  0.00  0.00    +0.000 C 
BRANCH  36  37
ATOM     37  O   UNL     1      11.575  12.887  20.260  0.00  0.00    +0.000 OA
ATOM     38  H   UNL     1      10.608  12.860  20.129  0.00  0.00    +0.000 HD
ENDBRANCH  36  37
ENDBRANCH  33  36
ENDBRANCH  32  33
ENDBRANCH  31  32
ENDBRANCH  30  31
ENDBRANCH  29  30
ENDBRANCH  28  29
ENDBRANCH  27  28
ENDBRANCH  26  27
ENDBRANCH  25  26
ENDBRANCH  24  25
ENDBRANCH  23  24
ENDBRANCH  22  23
ENDBRANCH  21  22
ENDBRANCH   1  21
TORSDOF 23
ENDMDL
MODEL 6
REMARK VINA RESULT:      -5.6      2.492      3.560
REMARK  Name = 
REMARK  23 active torsions:
REMARK  status: ('A' for Active; 'I' for Inactive)
REMARK    1  A    between atoms: N_1  and  C_2
REMARK    2  A    between atoms: N_10  and  C_11
REMARK    3  A    between atoms: C_11  and  C_12
REMARK    4  A    between atoms: C_12  and  O_13
REMARK    5  A    between atoms: O_13  and  C_14
REMARK    6  A    between atoms: C_14  and  P_15
REMARK    7  A    between atoms: P_15  and  O_17
REMARK    8  A    between atoms: P_15  and  O_18
REMARK    9  A    between atoms: O_18  and  C_19
REMARK   10  A    between atoms: C_19  and  C_20
REMARK   11  A    between atoms: C_20  and  O_21
REMARK   12  A    between atoms: O_21  and  C_22
REMARK   13  A    between atoms: C_22  and  C_23
REMARK   14  A    between atoms: C_23  and  C_24
REMARK   15  A    between atoms: C_24  and  C_25
REMARK   16  A    between atoms: C_25  and  C_26
REMARK   17  A    between atoms: C_26  and  C_27
REMARK   18  A    between atoms: C_27  and  C_28
REMARK   19  A    between atoms: C_28  and  C_29
REMARK   20  A    between atoms: C_29  and  C_30
REMARK   21  A    between atoms: C_30  and  O_31
REMARK   22  A    between atoms: C_30  and  C_32
REMARK   23  A    between atoms: C_32  and  O_33
REMARK                            x       y       z     vdW  Elec       q    Type
REMARK                         _______ _______ _______ _____ _____    ______ ____
ROOT
ATOM      1  P   UNL     1       1.130   9.500  18.501  0.00  0.00    +0.000 P 
ATOM      2  O   UNL     1       1.799  10.864  18.280  0.00  0.00    +0.000 OA
ENDROOT
BRANCH   1   3
ATOM      3  O   UNL     1       1.178   9.314  20.135  0.00  0.00    +0.000 OA
ATOM      4  H   UNL     1       2.079   8.987  20.337  0.00  0.00    +0.000 HD
ENDBRANCH   1   3
BRANCH   1   5
ATOM      5  C   UNL     1      -0.482  10.345  18.697  0.00  0.00    +0.000 C 
BRANCH   5   6
ATOM      6  O   UNL     1      -0.291  11.760  18.813  0.00  0.00    +0.000 OA
BRANCH   6   7
ATOM      7  C   UNL     1      -0.623  12.180  20.138  0.00  0.00    +0.000 C 
BRANCH   7   8
ATOM      8  C   UNL     1      -1.539  13.393  20.089  0.00  0.00    +0.000 C 
BRANCH   8  17
ATOM      9  C   UNL     1      -5.509  12.912  22.862  0.00  0.00    +0.000 A 
ATOM     10  N   UNL     1      -4.959  13.522  23.946  0.00  0.00    +0.000 NA
ATOM     11  C   UNL     1      -3.674  13.970  23.864  0.00  0.00    +0.000 A 
ATOM     12  N   UNL     1      -2.805  13.913  22.818  0.00  0.00    +0.000 NA
ATOM     13  C   UNL     1      -3.409  13.310  21.772  0.00  0.00    +0.000 A 
ATOM     14  C   UNL     1      -4.707  12.812  21.702  0.00  0.00    +0.000 A 
ATOM     15  N   UNL     1      -4.963  12.300  20.441  0.00  0.00    +0.000 NA
ATOM     16  C   UNL     1      -3.843  12.470  19.772  0.00  0.00    +0.000 A 
ATOM     17  N   UNL     1      -2.874  13.058  20.537  0.00  0.00    +0.000 N 
BRANCH   9  18
ATOM     18  N   UNL     1      -6.806  12.414  22.948  0.00  0.00    +0.000 N 
ATOM     19  H   UNL     1      -6.935  11.450  22.674  0.00  0.00    +0.000 HD
ATOM     20  H   UNL     1      -7.384  12.796  23.690  0.00  0.00    +0.000 HD
ENDBRANCH   9  18
ENDBRANCH   8  17
ENDBRANCH   7   8
ENDBRANCH   6   7
ENDBRANCH   5   6
ENDBRANCH   1   5
BRANCH   1  21
ATOM     21  O   UNL     1       2.654   8.702  18.317  0.00  0.00    +0.000 OA
BRANCH  21  22
ATOM     22  C   UNL     1       2.517   7.311  18.063  0.00  0.00    +0.000 C 
BRANCH  22  23
ATOM     23  C   UNL     1       2.894   6.555  19.323  0.00  0.00    +0.000 C 
BRANCH  23  24
ATOM     24  O   UNL     1       1.805   5.801  19.868  0.00  0.00    +0.000 OA
BRANCH  24  25
ATOM     25  C   UNL     1       2.148   4.869  20.891  0.00  0.00    +0.000 C 
BRANCH  25  26
ATOM     26  C   UNL     1       1.322   3.589  20.811  0.00  0.00    +0.000 C 
BRANCH  26  27
ATOM     27  C   UNL     1       1.110   3.215  19.344  0.00  0.00    +0.000 C 
BRANCH  27  28
ATOM     28  C   UNL     1       1.755   1.883  19.015  0.00  0.00    +0.000 C 
BRANCH  28  29
ATOM     29  C   UNL     1       2.763   2.089  17.888  0.00  0.00    +0.000 C 
BRANCH  29  30
ATOM     30  C   UNL     1       2.616   3.483  17.303  0.00  0.00    +0.000 C 
BRANCH  30  31
ATOM     31  C   UNL     1       3.983   4.011  16.896  0.00  0.00    +0.000 C 
BRANCH  31  32
ATOM     32  C   UNL     1       4.995   3.767  18.006  0.00  0.00    +0.000 C 
BRANCH  32  33
ATOM     33  C   UNL     1       6.059   4.868  18.050  0.00  0.00    +0.000 C 
BRANCH  33  34
ATOM     34  O   UNL     1       7.355   4.263  18.127  0.00  0.00    +0.000 OA
ATOM     35  H   UNL     1       7.958   4.959  18.448  0.00  0.00    +0.000 HD
ENDBRANCH  33  34
BRANCH  33  36
ATOM     36  C   UNL     1       5.959   5.782  16.816  0.00  0.00    +0.000 C 
BRANCH  36  37
ATOM     37  O   UNL     1       7.226   5.892  16.160  0.00  0.00    +0.000 OA
ATOM     38  H   UNL     1       7.486   6.832  16.129  0.00  0.00    +0.000 HD
ENDBRANCH  36  37
ENDBRANCH  33  36
ENDBRANCH  32  33
ENDBRANCH  31  32
ENDBRANCH  30  31
ENDBRANCH  29  30
ENDBRANCH  28  29
ENDBRANCH  27  28
ENDBRANCH  26  27
ENDBRANCH  25  26
ENDBRANCH  24  25
ENDBRANCH  23  24
ENDBRANCH  22  23
ENDBRANCH  21  22
ENDBRANCH   1  21
TORSDOF 23
ENDMDL
MODEL 7
REMARK VINA RESULT:      -5.6      2.884      4.115
REMARK  Name = 
REMARK  23 active torsions:
REMARK  status: ('A' for Active; 'I' for Inactive)
REMARK    1  A    between atoms: N_1  and  C_2
REMARK    2  A    between atoms: N_10  and  C_11
REMARK    3  A    between atoms: C_11  and  C_12
REMARK    4  A    between atoms: C_12  and  O_13
REMARK    5  A    between atoms: O_13  and  C_14
REMARK    6  A    between atoms: C_14  and  P_15
REMARK    7  A    between atoms: P_15  and  O_17
REMARK    8  A    between atoms: P_15  and  O_18
REMARK    9  A    between atoms: O_18  and  C_19
REMARK   10  A    between atoms: C_19  and  C_20
REMARK   11  A    between atoms: C_20  and  O_21
REMARK   12  A    between atoms: O_21  and  C_22
REMARK   13  A    between atoms: C_22  and  C_23
REMARK   14  A    between atoms: C_23  and  C_24
REMARK   15  A    between atoms: C_24  and  C_25
REMARK   16  A    between atoms: C_25  and  C_26
REMARK   17  A    between atoms: C_26  and  C_27
REMARK   18  A    between atoms: C_27  and  C_28
REMARK   19  A    between atoms: C_28  and  C_29
REMARK   20  A    between atoms: C_29  and  C_30
REMARK   21  A    between atoms: C_30  and  O_31
REMARK   22  A    between atoms: C_30  and  C_32
REMARK   23  A    between atoms: C_32  and  O_33
REMARK                            x       y       z     vdW  Elec       q    Type
REMARK                         _______ _______ _______ _____ _____    ______ ____
ROOT
ATOM      1  P   UNL     1       0.577  10.503  18.930  0.00  0.00    +0.000 P 
ATOM      2  O   UNL     1      -0.709  10.370  18.101  0.00  0.00    +0.000 OA
ENDROOT
BRANCH   1   3
ATOM      3  O   UNL     1       1.611  11.272  17.908  0.00  0.00    +0.000 OA
ATOM      4  H   UNL     1       1.043  11.768  17.282  0.00  0.00    +0.000 HD
ENDBRANCH   1   3
BRANCH   1   5
ATOM      5  C   UNL     1       0.010  12.145  19.509  0.00  0.00    +0.000 C 
BRANCH   5   6
ATOM      6  O   UNL     1       0.239  12.283  20.916  0.00  0.00    +0.000 OA
BRANCH   6   7
ATOM      7  C   UNL     1      -0.889  12.914  21.524  0.00  0.00    +0.000 C 
BRANCH   7   8
ATOM      8  C   UNL     1      -2.102  12.001  21.453  0.00  0.00    +0.000 C 
BRANCH   8  17
ATOM      9  C   UNL     1      -6.381  13.504  23.218  0.00  0.00    +0.000 A 
ATOM     10  N   UNL     1      -7.010  13.481  22.012  0.00  0.00    +0.000 NA
ATOM     11  C   UNL     1      -6.301  13.106  20.910  0.00  0.00    +0.000 A 
ATOM     12  N   UNL     1      -4.999  12.721  20.811  0.00  0.00    +0.000 NA
ATOM     13  C   UNL     1      -4.433  12.753  22.036  0.00  0.00    +0.000 A 
ATOM     14  C   UNL     1      -5.027  13.103  23.246  0.00  0.00    +0.000 A 
ATOM     15  N   UNL     1      -4.121  12.972  24.286  0.00  0.00    +0.000 NA
ATOM     16  C   UNL     1      -3.006  12.569  23.716  0.00  0.00    +0.000 A 
ATOM     17  N   UNL     1      -3.140  12.439  22.361  0.00  0.00    +0.000 N 
BRANCH   9  18
ATOM     18  N   UNL     1      -7.085  13.925  24.342  0.00  0.00    +0.000 N 
ATOM     19  H   UNL     1      -7.921  14.467  24.172  0.00  0.00    +0.000 HD
ATOM     20  H   UNL     1      -7.055  13.307  25.147  0.00  0.00    +0.000 HD
ENDBRANCH   9  18
ENDBRANCH   8  17
ENDBRANCH   7   8
ENDBRANCH   6   7
ENDBRANCH   5   6
ENDBRANCH   1   5
BRANCH   1  21
ATOM     21  O   UNL     1       1.112   8.952  18.383  0.00  0.00    +0.000 OA
BRANCH  21  22
ATOM     22  C   UNL     1       1.855   8.249  19.370  0.00  0.00    +0.000 C 
BRANCH  22  23
ATOM     23  C   UNL     1       2.703   7.200  18.674  0.00  0.00    +0.000 C 
BRANCH  23  24
ATOM     24  O   UNL     1       2.979   6.067  19.503  0.00  0.00    +0.000 OA
BRANCH  24  25
ATOM     25  C   UNL     1       1.994   5.766  20.489  0.00  0.00    +0.000 C 
BRANCH  25  26
ATOM     26  C   UNL     1       2.185   4.380  21.097  0.00  0.00    +0.000 C 
BRANCH  26  27
ATOM     27  C   UNL     1       1.047   3.467  20.641  0.00  0.00    +0.000 C 
BRANCH  27  28
ATOM     28  C   UNL     1       1.538   2.423  19.657  0.00  0.00    +0.000 C 
BRANCH  28  29
ATOM     29  C   UNL     1       1.543   3.031  18.257  0.00  0.00    +0.000 C 
BRANCH  29  30
ATOM     30  C   UNL     1       2.682   2.449  17.439  0.00  0.00    +0.000 C 
BRANCH  30  31
ATOM     31  C   UNL     1       3.990   3.112  17.843  0.00  0.00    +0.000 C 
BRANCH  31  32
ATOM     32  C   UNL     1       4.422   4.114  16.782  0.00  0.00    +0.000 C 
BRANCH  32  33
ATOM     33  C   UNL     1       5.532   5.036  17.298  0.00  0.00    +0.000 C 
BRANCH  33  34
ATOM     34  O   UNL     1       5.616   4.913  18.724  0.00  0.00    +0.000 OA
ATOM     35  H   UNL     1       4.742   4.596  19.018  0.00  0.00    +0.000 HD
ENDBRANCH  33  34
BRANCH  33  36
ATOM     36  C   UNL     1       6.882   4.695  16.643  0.00  0.00    +0.000 C 
BRANCH  36  37
ATOM     37  O   UNL     1       7.428   5.839  15.979  0.00  0.00    +0.000 OA
ATOM     38  H   UNL     1       6.732   6.250  15.432  0.00  0.00    +0.000 HD
ENDBRANCH  36  37
ENDBRANCH  33  36
ENDBRANCH  32  33
ENDBRANCH  31  32
ENDBRANCH  30  31
ENDBRANCH  29  30
ENDBRANCH  28  29
ENDBRANCH  27  28
ENDBRANCH  26  27
ENDBRANCH  25  26
ENDBRANCH  24  25
ENDBRANCH  23  24
ENDBRANCH  22  23
ENDBRANCH  21  22
ENDBRANCH   1  21
TORSDOF 23
ENDMDL
MODEL 8
REMARK VINA RESULT:      -5.6      3.748      5.406
REMARK  Name = 
REMARK  23 active torsions:
REMARK  status: ('A' for Active; 'I' for Inactive)
REMARK    1  A    between atoms: N_1  and  C_2
REMARK    2  A    between atoms: N_10  and  C_11
REMARK    3  A    between atoms: C_11  and  C_12
REMARK    4  A    between atoms: C_12  and  O_13
REMARK    5  A    between atoms: O_13  and  C_14
REMARK    6  A    between atoms: C_14  and  P_15
REMARK    7  A    between atoms: P_15  and  O_17
REMARK    8  A    between atoms: P_15  and  O_18
REMARK    9  A    between atoms: O_18  and  C_19
REMARK   10  A    between atoms: C_19  and  C_20
REMARK   11  A    between atoms: C_20  and  O_21
REMARK   12  A    between atoms: O_21  and  C_22
REMARK   13  A    between atoms: C_22  and  C_23
REMARK   14  A    between atoms: C_23  and  C_24
REMARK   15  A    between atoms: C_24  and  C_25
REMARK   16  A    between atoms: C_25  and  C_26
REMARK   17  A    between atoms: C_26  and  C_27
REMARK   18  A    between atoms: C_27  and  C_28
REMARK   19  A    between atoms: C_28  and  C_29
REMARK   20  A    between atoms: C_29  and  C_30
REMARK   21  A    between atoms: C_30  and  O_31
REMARK   22  A    between atoms: C_30  and  C_32
REMARK   23  A    between atoms: C_32  and  O_33
REMARK                            x       y       z     vdW  Elec       q    Type
REMARK                         _______ _______ _______ _____ _____    ______ ____
ROOT
ATOM      1  P   UNL     1      -2.710  10.761  17.498  0.00  0.00    +0.000 P 
ATOM      2  O   UNL     1      -2.357   9.562  16.606  0.00  0.00    +0.000 OA
ENDROOT
BRANCH   1   3
ATOM      3  O   UNL     1      -1.810  11.984  16.865  0.00  0.00    +0.000 OA
ATOM      4  H   UNL     1      -0.894  11.825  17.174  0.00  0.00    +0.000 HD
ENDBRANCH   1   3
BRANCH   1   5
ATOM      5  C   UNL     1      -4.046  11.211  16.330  0.00  0.00    +0.000 C 
BRANCH   5   6
ATOM      6  O   UNL     1      -5.046  11.992  16.995  0.00  0.00    +0.000 OA
BRANCH   6   7
ATOM      7  C   UNL     1      -4.885  11.868  18.409  0.00  0.00    +0.000 C 
BRANCH   7   8
ATOM      8  C   UNL     1      -5.645  12.976  19.122  0.00  0.00    +0.000 C 
BRANCH   8  17
ATOM      9  C   UNL     1      -4.191  12.872  23.765  0.00  0.00    +0.000 A 
ATOM     10  N   UNL     1      -2.958  13.386  23.504  0.00  0.00    +0.000 NA
ATOM     11  C   UNL     1      -2.634  13.687  22.215  0.00  0.00    +0.000 A 
ATOM     12  N   UNL     1      -3.381  13.562  21.084  0.00  0.00    +0.000 NA
ATOM     13  C   UNL     1      -4.591  13.060  21.407  0.00  0.00    +0.000 A 
ATOM     14  C   UNL     1      -5.068  12.714  22.668  0.00  0.00    +0.000 A 
ATOM     15  N   UNL     1      -6.377  12.269  22.586  0.00  0.00    +0.000 NA
ATOM     16  C   UNL     1      -6.677  12.329  21.307  0.00  0.00    +0.000 A 
ATOM     17  N   UNL     1      -5.628  12.783  20.556  0.00  0.00    +0.000 N 
BRANCH   9  18
ATOM     18  N   UNL     1      -4.518  12.522  25.071  0.00  0.00    +0.000 N 
ATOM     19  H   UNL     1      -5.500  12.548  25.310  0.00  0.00    +0.000 HD
ATOM     20  H   UNL     1      -3.923  11.828  25.512  0.00  0.00    +0.000 HD
ENDBRANCH   9  18
ENDBRANCH   8  17
ENDBRANCH   7   8
ENDBRANCH   6   7
ENDBRANCH   5   6
ENDBRANCH   1   5
BRANCH   1  21
ATOM     21  O   UNL     1      -1.447  10.336  18.601  0.00  0.00    +0.000 OA
BRANCH  21  22
ATOM     22  C   UNL     1      -0.785  11.473  19.139  0.00  0.00    +0.000 C 
BRANCH  22  23
ATOM     23  C   UNL     1       0.696  11.353  18.830  0.00  0.00    +0.000 C 
BRANCH  23  24
ATOM     24  O   UNL     1       1.037  10.110  18.207  0.00  0.00    +0.000 OA
BRANCH  24  25
ATOM     25  C   UNL     1       1.676   9.151  19.048  0.00  0.00    +0.000 C 
BRANCH  25  26
ATOM     26  C   UNL     1       2.273   7.992  18.256  0.00  0.00    +0.000 C 
BRANCH  26  27
ATOM     27  C   UNL     1       2.514   6.810  19.194  0.00  0.00    +0.000 C 
BRANCH  27  28
ATOM     28  C   UNL     1       3.643   5.930  18.695  0.00  0.00    +0.000 C 
BRANCH  28  29
ATOM     29  C   UNL     1       3.081   4.930  17.689  0.00  0.00    +0.000 C 
BRANCH  29  30
ATOM     30  C   UNL     1       4.140   3.907  17.321  0.00  0.00    +0.000 C 
BRANCH  30  31
ATOM     31  C   UNL     1       5.508   4.411  17.753  0.00  0.00    +0.000 C 
BRANCH  31  32
ATOM     32  C   UNL     1       6.524   4.196  16.640  0.00  0.00    +0.000 C 
BRANCH  32  33
ATOM     33  C   UNL     1       6.378   5.247  15.534  0.00  0.00    +0.000 C 
BRANCH  33  34
ATOM     34  O   UNL     1       7.662   5.824  15.266  0.00  0.00    +0.000 OA
ATOM     35  H   UNL     1       7.859   5.617  14.333  0.00  0.00    +0.000 HD
ENDBRANCH  33  34
BRANCH  33  36
ATOM     36  C   UNL     1       5.783   4.626  14.258  0.00  0.00    +0.000 C 
BRANCH  36  37
ATOM     37  O   UNL     1       6.338   3.329  14.017  0.00  0.00    +0.000 OA
ATOM     38  H   UNL     1       5.883   2.680  14.586  0.00  0.00    +0.000 HD
ENDBRANCH  36  37
ENDBRANCH  33  36
ENDBRANCH  32  33
ENDBRANCH  31  32
ENDBRANCH  30  31
ENDBRANCH  29  30
ENDBRANCH  28  29
ENDBRANCH  27  28
ENDBRANCH  26  27
ENDBRANCH  25  26
ENDBRANCH  24  25
ENDBRANCH  23  24
ENDBRANCH  22  23
ENDBRANCH  21  22
ENDBRANCH   1  21
TORSDOF 23
ENDMDL
MODEL 9
REMARK VINA RESULT:      -5.6      5.578      9.502
REMARK  Name = 
REMARK  23 active torsions:
REMARK  status: ('A' for Active; 'I' for Inactive)
REMARK    1  A    between atoms: N_1  and  C_2
REMARK    2  A    between atoms: N_10  and  C_11
REMARK    3  A    between atoms: C_11  and  C_12
REMARK    4  A    between atoms: C_12  and  O_13
REMARK    5  A    between atoms: O_13  and  C_14
REMARK    6  A    between atoms: C_14  and  P_15
REMARK    7  A    between atoms: P_15  and  O_17
REMARK    8  A    between atoms: P_15  and  O_18
REMARK    9  A    between atoms: O_18  and  C_19
REMARK   10  A    between atoms: C_19  and  C_20
REMARK   11  A    between atoms: C_20  and  O_21
REMARK   12  A    between atoms: O_21  and  C_22
REMARK   13  A    between atoms: C_22  and  C_23
REMARK   14  A    between atoms: C_23  and  C_24
REMARK   15  A    between atoms: C_24  and  C_25
REMARK   16  A    between atoms: C_25  and  C_26
REMARK   17  A    between atoms: C_26  and  C_27
REMARK   18  A    between atoms: C_27  and  C_28
REMARK   19  A    between atoms: C_28  and  C_29
REMARK   20  A    between atoms: C_29  and  C_30
REMARK   21  A    between atoms: C_30  and  O_31
REMARK   22  A    between atoms: C_30  and  C_32
REMARK   23  A    between atoms: C_32  and  O_33
REMARK                            x       y       z     vdW  Elec       q    Type
REMARK                         _______ _______ _______ _____ _____    ______ ____
ROOT
ATOM      1  P   UNL     1       6.836   5.611  17.974  0.00  0.00    +0.000 P 
ATOM      2  O   UNL     1       7.878   4.992  17.031  0.00  0.00    +0.000 OA
ENDROOT
BRANCH   1   3
ATOM      3  O   UNL     1       7.298   5.070  19.457  0.00  0.00    +0.000 OA
ATOM      4  H   UNL     1       6.616   4.419  19.725  0.00  0.00    +0.000 HD
ENDBRANCH   1   3
BRANCH   1   5
ATOM      5  C   UNL     1       7.940   7.052  18.214  0.00  0.00    +0.000 C 
BRANCH   5   6
ATOM      6  O   UNL     1       7.606   8.093  17.289  0.00  0.00    +0.000 OA
BRANCH   6   7
ATOM      7  C   UNL     1       7.961   9.360  17.847  0.00  0.00    +0.000 C 
BRANCH   7   8
ATOM      8  C   UNL     1       9.076   9.189  18.867  0.00  0.00    +0.000 C 
BRANCH   8  17
ATOM      9  C   UNL     1      10.885  13.663  19.496  0.00  0.00    +0.000 A 
ATOM     10  N   UNL     1      11.370  13.763  18.229  0.00  0.00    +0.000 NA
ATOM     11  C   UNL     1      11.199  12.713  17.378  0.00  0.00    +0.000 A 
ATOM     12  N   UNL     1      10.583  11.519  17.592  0.00  0.00    +0.000 NA
ATOM     13  C   UNL     1      10.115  11.483  18.857  0.00  0.00    +0.000 A 
ATOM     14  C   UNL     1      10.203  12.472  19.833  0.00  0.00    +0.000 A 
ATOM     15  N   UNL     1       9.565  12.066  20.993  0.00  0.00    +0.000 NA
ATOM     16  C   UNL     1       9.116  10.858  20.730  0.00  0.00    +0.000 A 
ATOM     17  N   UNL     1       9.438  10.457  19.463  0.00  0.00    +0.000 N 
BRANCH   9  18
ATOM     18  N   UNL     1      11.090  14.713  20.387  0.00  0.00    +0.000 N 
ATOM     19  H   UNL     1      12.049  14.993  20.537  0.00  0.00    +0.000 HD
ATOM     20  H   UNL     1      10.360  15.417  20.424  0.00  0.00    +0.000 HD
ENDBRANCH   9  18
ENDBRANCH   8  17
ENDBRANCH   7   8
ENDBRANCH   6   7
ENDBRANCH   5   6
ENDBRANCH   1   5
BRANCH   1  21
ATOM     21  O   UNL     1       5.795   4.249  17.747  0.00  0.00    +0.000 OA
BRANCH  21  22
ATOM     22  C   UNL     1       4.420   4.610  17.712  0.00  0.00    +0.000 C 
BRANCH  22  23
ATOM     23  C   UNL     1       3.883   4.583  19.131  0.00  0.00    +0.000 C 
BRANCH  23  24
ATOM     24  O   UNL     1       3.453   5.869  19.589  0.00  0.00    +0.000 OA
BRANCH  24  25
ATOM     25  C   UNL     1       2.344   6.435  18.894  0.00  0.00    +0.000 C 
BRANCH  25  26
ATOM     26  C   UNL     1       2.155   7.915  19.211  0.00  0.00    +0.000 C 
BRANCH  26  27
ATOM     27  C   UNL     1       2.366   8.735  17.939  0.00  0.00    +0.000 C 
BRANCH  27  28
ATOM     28  C   UNL     1       1.452   9.944  17.903  0.00  0.00    +0.000 C 
BRANCH  28  29
ATOM     29  C   UNL     1       0.883  10.172  19.300  0.00  0.00    +0.000 C 
BRANCH  29  30
ATOM     30  C   UNL     1      -0.571   9.738  19.350  0.00  0.00    +0.000 C 
BRANCH  30  31
ATOM     31  C   UNL     1      -1.472  10.948  19.157  0.00  0.00    +0.000 C 
BRANCH  31  32
ATOM     32  C   UNL     1      -2.602  10.615  18.194  0.00  0.00    +0.000 C 
BRANCH  32  33
ATOM     33  C   UNL     1      -2.626  11.576  17.001  0.00  0.00    +0.000 C 
BRANCH  33  34
ATOM     34  O   UNL     1      -1.391  12.302  16.961  0.00  0.00    +0.000 OA
ATOM     35  H   UNL     1      -1.536  13.045  16.346  0.00  0.00    +0.000 HD
ENDBRANCH  33  34
BRANCH  33  36
ATOM     36  C   UNL     1      -2.852  10.814  15.683  0.00  0.00    +0.000 C 
BRANCH  36  37
ATOM     37  O   UNL     1      -4.235  10.487  15.515  0.00  0.00    +0.000 OA
ATOM     38  H   UNL     1      -4.460   9.749  16.112  0.00  0.00    +0.000 HD
ENDBRANCH  36  37
ENDBRANCH  33  36
ENDBRANCH  32  33
ENDBRANCH  31  32
ENDBRANCH  30  31
ENDBRANCH  29  30
ENDBRANCH  28  29
ENDBRANCH  27  28
ENDBRANCH  26  27
ENDBRANCH  25  26
ENDBRANCH  24  25
ENDBRANCH  23  24
ENDBRANCH  22  23
ENDBRANCH  21  22
ENDBRANCH   1  21
TORSDOF 23
ENDMDL
