MODEL 1
REMARK VINA RESULT:      -8.2      0.000      0.000
REMARK  Name = 
REMARK  5 active torsions:
REMARK  status: ('A' for Active; 'I' for Inactive)
REMARK    1  A    between atoms: C_1  and  N_2
REMARK    2  A    between atoms: C_6  and  C_7
REMARK    3  A    between atoms: C_6  and  C_20
REMARK    4  A    between atoms: C_11  and  C_12
REMARK    5  A    between atoms: C_20  and  C_21
REMARK                            x       y       z     vdW  Elec       q    Type
REMARK                         _______ _______ _______ _____ _____    ______ ____
ROOT
ATOM      1  C   UNL     1       1.709   2.474  20.854  0.00  0.00    +0.000 C 
ATOM      2  N   UNL     1       2.070   3.382  19.791  0.00  0.00    +0.000 N 
ATOM      3  C   UNL     1       1.726   3.353  18.486  0.00  0.00    +0.000 C 
ATOM      4  N   UNL     1       1.028   2.452  17.905  0.00  0.00    +0.000 NA
ATOM      5  N   UNL     1       2.227   4.423  17.834  0.00  0.00    +0.000 N 
ATOM      6  C   UNL     1       3.127   5.215  18.665  0.00  0.00    +0.000 C 
ATOM      7  C   UNL     1       2.870   4.485  20.042  0.00  0.00    +0.000 C 
ATOM      8  O   UNL     1       3.292   4.815  21.146  0.00  0.00    +0.000 OA
ATOM      9  H   UNL     1       0.739   1.724  18.558  0.00  0.00    +0.000 HD
ATOM     10  H   UNL     1       2.229   4.440  16.831  0.00  0.00    +0.000 HD
ENDROOT
BRANCH   6  11
ATOM     11  C   UNL     1       4.572   5.037  18.163  0.00  0.00    +0.000 A 
ATOM     12  C   UNL     1       5.671   5.177  19.028  0.00  0.00    +0.000 A 
ATOM     13  C   UNL     1       6.977   5.161  18.537  0.00  0.00    +0.000 A 
ATOM     14  C   UNL     1       7.213   4.977  17.174  0.00  0.00    +0.000 A 
ATOM     15  C   UNL     1       6.157   4.778  16.273  0.00  0.00    +0.000 A 
ATOM     16  C   UNL     1       4.848   4.786  16.800  0.00  0.00    +0.000 A 
BRANCH  15  17
ATOM     17  C   UNL     1       6.399   4.623  14.819  0.00  0.00    +0.000 A 
ATOM     18  C   UNL     1       7.557   5.131  14.200  0.00  0.00    +0.000 A 
ATOM     19  C   UNL     1       7.791   4.957  12.831  0.00  0.00    +0.000 A 
ATOM     20  C   UNL     1       6.864   4.277  12.045  0.00  0.00    +0.000 A 
ATOM     21  C   UNL     1       5.712   3.768  12.635  0.00  0.00    +0.000 A 
ATOM     22 CL   UNL     1       4.560   2.926  11.673  0.00  0.00    +0.000 Cl
ATOM     23  C   UNL     1       5.484   3.930  14.004  0.00  0.00    +0.000 A 
ENDBRANCH  15  17
ENDBRANCH   6  11
BRANCH   6  24
ATOM     24  C   UNL     1       2.674   6.692  18.718  0.00  0.00    +0.000 C 
ATOM     25  C   UNL     1       2.117   7.155  20.049  0.00  0.00    +0.000 C 
ATOM     26  C   UNL     1       3.359   7.750  17.861  0.00  0.00    +0.000 C 
ATOM     27  C   UNL     1       1.985   7.275  17.486  0.00  0.00    +0.000 C 
ENDBRANCH   6  24
TORSDOF 3
ENDMDL
MODEL 2
REMARK VINA RESULT:      -8.2      3.952      7.652
REMARK  Name = 
REMARK  5 active torsions:
REMARK  status: ('A' for Active; 'I' for Inactive)
REMARK    1  A    between atoms: C_1  and  N_2
REMARK    2  A    between atoms: C_6  and  C_7
REMARK    3  A    between atoms: C_6  and  C_20
REMARK    4  A    between atoms: C_11  and  C_12
REMARK    5  A    between atoms: C_20  and  C_21
REMARK                            x       y       z     vdW  Elec       q    Type
REMARK                         _______ _______ _______ _____ _____    ______ ____
ROOT
ATOM      1  C   UNL     1       0.736   2.641  19.459  0.00  0.00    +0.000 C 
ATOM      2  N   UNL     1       1.715   3.700  19.524  0.00  0.00    +0.000 N 
ATOM      3  C   UNL     1       2.374   4.193  20.594  0.00  0.00    +0.000 C 
ATOM      4  N   UNL     1       2.215   3.837  21.813  0.00  0.00    +0.000 NA
ATOM      5  N   UNL     1       3.252   5.146  20.219  0.00  0.00    +0.000 N 
ATOM      6  C   UNL     1       3.131   5.495  18.808  0.00  0.00    +0.000 C 
ATOM      7  C   UNL     1       2.120   4.362  18.376  0.00  0.00    +0.000 C 
ATOM      8  O   UNL     1       1.744   4.098  17.238  0.00  0.00    +0.000 OA
ATOM      9  H   UNL     1       1.510   3.106  21.900  0.00  0.00    +0.000 HD
ATOM     10  H   UNL     1       3.667   5.743  20.911  0.00  0.00    +0.000 HD
ENDROOT
BRANCH   6  11
ATOM     11  C   UNL     1       2.526   6.906  18.683  0.00  0.00    +0.000 A 
ATOM     12  C   UNL     1       2.767   7.710  17.555  0.00  0.00    +0.000 A 
ATOM     13  C   UNL     1       2.340   9.037  17.516  0.00  0.00    +0.000 A 
ATOM     14  C   UNL     1       1.637   9.582  18.592  0.00  0.00    +0.000 A 
ATOM     15  C   UNL     1       1.322   8.810  19.720  0.00  0.00    +0.000 A 
ATOM     16  C   UNL     1       1.755   7.468  19.726  0.00  0.00    +0.000 A 
BRANCH  15  17
ATOM     17  C   UNL     1       0.612   9.394  20.883  0.00  0.00    +0.000 A 
ATOM     18  C   UNL     1       0.733   8.853  22.177  0.00  0.00    +0.000 A 
ATOM     19  C   UNL     1       0.081   9.426  23.274  0.00  0.00    +0.000 A 
ATOM     20  C   UNL     1      -0.720  10.552  23.100  0.00  0.00    +0.000 A 
ATOM     21  C   UNL     1      -0.856  11.103  21.830  0.00  0.00    +0.000 A 
ATOM     22 CL   UNL     1      -1.843  12.494  21.604  0.00  0.00    +0.000 Cl
ATOM     23  C   UNL     1      -0.195  10.539  20.737  0.00  0.00    +0.000 A 
ENDBRANCH  15  17
ENDBRANCH   6  11
BRANCH   6  24
ATOM     24  C   UNL     1       4.489   5.344  18.083  0.00  0.00    +0.000 C 
ATOM     25  C   UNL     1       4.465   4.497  16.828  0.00  0.00    +0.000 C 
ATOM     26  C   UNL     1       5.530   6.456  18.137  0.00  0.00    +0.000 C 
ATOM     27  C   UNL     1       5.746   5.205  18.939  0.00  0.00    +0.000 C 
ENDBRANCH   6  24
TORSDOF 3
ENDMDL
MODEL 3
REMARK VINA RESULT:      -8.2      1.728      2.543
REMARK  Name = 
REMARK  5 active torsions:
REMARK  status: ('A' for Active; 'I' for Inactive)
REMARK    1  A    between atoms: C_1  and  N_2
REMARK    2  A    between atoms: C_6  and  C_7
REMARK    3  A    between atoms: C_6  and  C_20
REMARK    4  A    between atoms: C_11  and  C_12
REMARK    5  A    between atoms: C_20  and  C_21
REMARK                            x       y       z     vdW  Elec       q    Type
REMARK                         _______ _______ _______ _____ _____    ______ ____
ROOT
ATOM      1  C   UNL     1       4.834   1.638  21.269  0.00  0.00    +0.000 C 
ATOM      2  N   UNL     1       4.212   2.070  20.039  0.00  0.00    +0.000 N 
ATOM      3  C   UNL     1       4.117   1.427  18.856  0.00  0.00    +0.000 C 
ATOM      4  N   UNL     1       4.622   0.288  18.569  0.00  0.00    +0.000 NA
ATOM      5  N   UNL     1       3.402   2.154  17.973  0.00  0.00    +0.000 N 
ATOM      6  C   UNL     1       3.078   3.486  18.474  0.00  0.00    +0.000 C 
ATOM      7  C   UNL     1       3.580   3.301  19.960  0.00  0.00    +0.000 C 
ATOM      8  O   UNL     1       3.447   4.089  20.891  0.00  0.00    +0.000 OA
ATOM      9  H   UNL     1       5.126  -0.109  19.361  0.00  0.00    +0.000 HD
ATOM     10  H   UNL     1       3.413   1.909  16.999  0.00  0.00    +0.000 HD
ENDROOT
BRANCH   6  11
ATOM     11  C   UNL     1       3.899   4.535  17.700  0.00  0.00    +0.000 A 
ATOM     12  C   UNL     1       3.905   5.888  18.080  0.00  0.00    +0.000 A 
ATOM     13  C   UNL     1       4.529   6.852  17.289  0.00  0.00    +0.000 A 
ATOM     14  C   UNL     1       5.186   6.482  16.115  0.00  0.00    +0.000 A 
ATOM     15  C   UNL     1       5.259   5.139  15.715  0.00  0.00    +0.000 A 
ATOM     16  C   UNL     1       4.630   4.184  16.541  0.00  0.00    +0.000 A 
BRANCH  15  17
ATOM     17  C   UNL     1       5.920   4.744  14.449  0.00  0.00    +0.000 A 
ATOM     18  C   UNL     1       7.153   5.295  14.051  0.00  0.00    +0.000 A 
ATOM     19  C   UNL     1       7.783   4.897  12.866  0.00  0.00    +0.000 A 
ATOM     20  C   UNL     1       7.188   3.943  12.045  0.00  0.00    +0.000 A 
ATOM     21  C   UNL     1       5.970   3.386  12.417  0.00  0.00    +0.000 A 
ATOM     22 CL   UNL     1       5.225   2.206  11.410  0.00  0.00    +0.000 Cl
ATOM     23  C   UNL     1       5.346   3.774  13.606  0.00  0.00    +0.000 A 
ENDBRANCH  15  17
ENDBRANCH   6  11
BRANCH   6  24
ATOM     24  C   UNL     1       1.554   3.740  18.422  0.00  0.00    +0.000 C 
ATOM     25  C   UNL     1       1.097   4.745  17.385  0.00  0.00    +0.000 C 
ATOM     26  C   UNL     1       0.567   2.637  18.784  0.00  0.00    +0.000 C 
ATOM     27  C   UNL     1       0.787   3.772  19.742  0.00  0.00    +0.000 C 
ENDBRANCH   6  24
TORSDOF 3
ENDMDL
MODEL 4
REMARK VINA RESULT:      -8.0      5.596      8.009
REMARK  Name = 
REMARK  5 active torsions:
REMARK  status: ('A' for Active; 'I' for Inactive)
REMARK    1  A    between atoms: C_1  and  N_2
REMARK    2  A    between atoms: C_6  and  C_7
REMARK    3  A    between atoms: C_6  and  C_20
REMARK    4  A    between atoms: C_11  and  C_12
REMARK    5  A    between atoms: C_20  and  C_21
REMARK                            x       y       z     vdW  Elec       q    Type
REMARK                         _______ _______ _______ _____ _____    ______ ____
ROOT
ATOM      1  C   UNL     1      -4.320  11.904  18.482  0.00  0.00    +0.000 C 
ATOM      2  N   UNL     1      -2.879  11.845  18.536  0.00  0.00    +0.000 N 
ATOM      3  C   UNL     1      -1.995  11.580  17.550  0.00  0.00    +0.000 C 
ATOM      4  N   UNL     1      -2.277  11.266  16.342  0.00  0.00    +0.000 NA
ATOM      5  N   UNL     1      -0.729  11.681  18.002  0.00  0.00    +0.000 N 
ATOM      6  C   UNL     1      -0.662  11.880  19.446  0.00  0.00    +0.000 C 
ATOM      7  C   UNL     1      -2.203  12.096  19.719  0.00  0.00    +0.000 C 
ATOM      8  O   UNL     1      -2.729  12.426  20.777  0.00  0.00    +0.000 OA
ATOM      9  H   UNL     1      -3.284  11.240  16.188  0.00  0.00    +0.000 HD
ATOM     10  H   UNL     1       0.029  11.321  17.451  0.00  0.00    +0.000 HD
ENDROOT
BRANCH   6  11
ATOM     11  C   UNL     1      -0.119  10.601  20.112  0.00  0.00    +0.000 A 
ATOM     12  C   UNL     1      -0.336  10.336  21.475  0.00  0.00    +0.000 A 
ATOM     13  C   UNL     1       0.283   9.254  22.102  0.00  0.00    +0.000 A 
ATOM     14  C   UNL     1       1.110   8.398  21.374  0.00  0.00    +0.000 A 
ATOM     15  C   UNL     1       1.319   8.583  19.999  0.00  0.00    +0.000 A 
ATOM     16  C   UNL     1       0.670   9.677  19.389  0.00  0.00    +0.000 A 
BRANCH  15  17
ATOM     17  C   UNL     1       2.227   7.702  19.229  0.00  0.00    +0.000 A 
ATOM     18  C   UNL     1       2.810   8.113  18.015  0.00  0.00    +0.000 A 
ATOM     19  C   UNL     1       3.689   7.284  17.308  0.00  0.00    +0.000 A 
ATOM     20  C   UNL     1       3.997   6.016  17.794  0.00  0.00    +0.000 A 
ATOM     21  C   UNL     1       3.431   5.588  18.990  0.00  0.00    +0.000 A 
ATOM     22 CL   UNL     1       3.805   4.023  19.601  0.00  0.00    +0.000 Cl
ATOM     23  C   UNL     1       2.564   6.420  19.704  0.00  0.00    +0.000 A 
ENDBRANCH  15  17
ENDBRANCH   6  11
BRANCH   6  24
ATOM     24  C   UNL     1       0.154  13.146  19.793  0.00  0.00    +0.000 C 
ATOM     25  C   UNL     1      -0.226  14.395  19.025  0.00  0.00    +0.000 C 
ATOM     26  C   UNL     1       0.718  13.352  21.194  0.00  0.00    +0.000 C 
ATOM     27  C   UNL     1       1.647  12.982  20.073  0.00  0.00    +0.000 C 
ENDBRANCH   6  24
TORSDOF 3
ENDMDL
MODEL 5
REMARK VINA RESULT:      -7.9      1.557      1.925
REMARK  Name = 
REMARK  5 active torsions:
REMARK  status: ('A' for Active; 'I' for Inactive)
REMARK    1  A    between atoms: C_1  and  N_2
REMARK    2  A    between atoms: C_6  and  C_7
REMARK    3  A    between atoms: C_6  and  C_20
REMARK    4  A    between atoms: C_11  and  C_12
REMARK    5  A    between atoms: C_20  and  C_21
REMARK                            x       y       z     vdW  Elec       q    Type
REMARK                         _______ _______ _______ _____ _____    ______ ____
ROOT
ATOM      1  C   UNL     1       4.438   1.681  21.241  0.00  0.00    +0.000 C 
ATOM      2  N   UNL     1       4.145   2.303  19.971  0.00  0.00    +0.000 N 
ATOM      3  C   UNL     1       3.934   1.732  18.766  0.00  0.00    +0.000 C 
ATOM      4  N   UNL     1       4.005   0.483  18.495  0.00  0.00    +0.000 NA
ATOM      5  N   UNL     1       3.631   2.665  17.840  0.00  0.00    +0.000 N 
ATOM      6  C   UNL     1       3.778   4.025  18.346  0.00  0.00    +0.000 C 
ATOM      7  C   UNL     1       4.026   3.680  19.867  0.00  0.00    +0.000 C 
ATOM      8  O   UNL     1       4.105   4.469  20.803  0.00  0.00    +0.000 OA
ATOM      9  H   UNL     1       4.245  -0.065  19.320  0.00  0.00    +0.000 HD
ATOM     10  H   UNL     1       3.646   2.424  16.866  0.00  0.00    +0.000 HD
ENDROOT
BRANCH   6  11
ATOM     11  C   UNL     1       5.001   4.686  17.683  0.00  0.00    +0.000 A 
ATOM     12  C   UNL     1       5.750   5.674  18.346  0.00  0.00    +0.000 A 
ATOM     13  C   UNL     1       6.762   6.370  17.685  0.00  0.00    +0.000 A 
ATOM     14  C   UNL     1       7.067   6.075  16.356  0.00  0.00    +0.000 A 
ATOM     15  C   UNL     1       6.389   5.062  15.662  0.00  0.00    +0.000 A 
ATOM     16  C   UNL     1       5.380   4.366  16.359  0.00  0.00    +0.000 A 
BRANCH  15  17
ATOM     17  C   UNL     1       6.680   4.771  14.238  0.00  0.00    +0.000 A 
ATOM     18  C   UNL     1       7.602   5.535  13.497  0.00  0.00    +0.000 A 
ATOM     19  C   UNL     1       7.891   5.238  12.161  0.00  0.00    +0.000 A 
ATOM     20  C   UNL     1       7.255   4.172  11.529  0.00  0.00    +0.000 A 
ATOM     21  C   UNL     1       6.340   3.405  12.241  0.00  0.00    +0.000 A 
ATOM     22 CL   UNL     1       5.548   2.086  11.470  0.00  0.00    +0.000 Cl
ATOM     23  C   UNL     1       6.060   3.693  13.579  0.00  0.00    +0.000 A 
ENDBRANCH  15  17
ENDBRANCH   6  11
BRANCH   6  24
ATOM     24  C   UNL     1       2.470   4.828  18.157  0.00  0.00    +0.000 C 
ATOM     25  C   UNL     1       2.637   6.331  18.068  0.00  0.00    +0.000 C 
ATOM     26  C   UNL     1       1.287   4.228  17.408  0.00  0.00    +0.000 C 
ATOM     27  C   UNL     1       1.224   4.354  18.903  0.00  0.00    +0.000 C 
ENDBRANCH   6  24
TORSDOF 3
ENDMDL
MODEL 6
REMARK VINA RESULT:      -7.8      5.317      7.999
REMARK  Name = 
REMARK  5 active torsions:
REMARK  status: ('A' for Active; 'I' for Inactive)
REMARK    1  A    between atoms: C_1  and  N_2
REMARK    2  A    between atoms: C_6  and  C_7
REMARK    3  A    between atoms: C_6  and  C_20
REMARK    4  A    between atoms: C_11  and  C_12
REMARK    5  A    between atoms: C_20  and  C_21
REMARK                            x       y       z     vdW  Elec       q    Type
REMARK                         _______ _______ _______ _____ _____    ______ ____
ROOT
ATOM      1  C   UNL     1      -4.186  11.709  18.120  0.00  0.00    +0.000 C 
ATOM      2  N   UNL     1      -2.752  11.560  18.206  0.00  0.00    +0.000 N 
ATOM      3  C   UNL     1      -1.896  10.997  17.327  0.00  0.00    +0.000 C 
ATOM      4  N   UNL     1      -2.207  10.418  16.229  0.00  0.00    +0.000 NA
ATOM      5  N   UNL     1      -0.623  11.112  17.758  0.00  0.00    +0.000 N 
ATOM      6  C   UNL     1      -0.535  11.655  19.110  0.00  0.00    +0.000 C 
ATOM      7  C   UNL     1      -2.054  12.044  19.300  0.00  0.00    +0.000 C 
ATOM      8  O   UNL     1      -2.549  12.661  20.238  0.00  0.00    +0.000 OA
ATOM      9  H   UNL     1      -3.214  10.429  16.073  0.00  0.00    +0.000 HD
ATOM     10  H   UNL     1       0.103  10.574  17.322  0.00  0.00    +0.000 HD
ENDROOT
BRANCH   6  11
ATOM     11  C   UNL     1      -0.085  10.543  20.076  0.00  0.00    +0.000 A 
ATOM     12  C   UNL     1      -0.280  10.654  21.463  0.00  0.00    +0.000 A 
ATOM     13  C   UNL     1       0.261   9.714  22.341  0.00  0.00    +0.000 A 
ATOM     14  C   UNL     1       0.986   8.628  21.849  0.00  0.00    +0.000 A 
ATOM     15  C   UNL     1       1.166   8.438  20.471  0.00  0.00    +0.000 A 
ATOM     16  C   UNL     1       0.596   9.396  19.607  0.00  0.00    +0.000 A 
BRANCH  15  17
ATOM     17  C   UNL     1       1.968   7.308  19.945  0.00  0.00    +0.000 A 
ATOM     18  C   UNL     1       1.982   6.049  20.574  0.00  0.00    +0.000 A 
ATOM     19  C   UNL     1       2.722   4.980  20.055  0.00  0.00    +0.000 A 
ATOM     20  C   UNL     1       3.477   5.150  18.897  0.00  0.00    +0.000 A 
ATOM     21  C   UNL     1       3.480   6.386  18.260  0.00  0.00    +0.000 A 
ATOM     22 CL   UNL     1       4.408   6.607  16.828  0.00  0.00    +0.000 Cl
ATOM     23  C   UNL     1       2.731   7.450  18.770  0.00  0.00    +0.000 A 
ENDBRANCH  15  17
ENDBRANCH   6  11
BRANCH   6  24
ATOM     24  C   UNL     1       0.375  12.904  19.145  0.00  0.00    +0.000 C 
ATOM     25  C   UNL     1      -0.240  14.173  18.594  0.00  0.00    +0.000 C 
ATOM     26  C   UNL     1       1.425  13.074  20.238  0.00  0.00    +0.000 C 
ATOM     27  C   UNL     1       1.861  12.717  18.846  0.00  0.00    +0.000 C 
ENDBRANCH   6  24
TORSDOF 3
ENDMDL
MODEL 7
REMARK VINA RESULT:      -7.8      5.136      7.341
REMARK  Name = 
REMARK  5 active torsions:
REMARK  status: ('A' for Active; 'I' for Inactive)
REMARK    1  A    between atoms: C_1  and  N_2
REMARK    2  A    between atoms: C_6  and  C_7
REMARK    3  A    between atoms: C_6  and  C_20
REMARK    4  A    between atoms: C_11  and  C_12
REMARK    5  A    between atoms: C_20  and  C_21
REMARK                            x       y       z     vdW  Elec       q    Type
REMARK                         _______ _______ _______ _____ _____    ______ ____
ROOT
ATOM      1  C   UNL     1      -3.531  12.425  19.352  0.00  0.00    +0.000 C 
ATOM      2  N   UNL     1      -2.180  12.036  19.022  0.00  0.00    +0.000 N 
ATOM      3  C   UNL     1      -1.675  11.615  17.843  0.00  0.00    +0.000 C 
ATOM      4  N   UNL     1      -2.331  11.422  16.761  0.00  0.00    +0.000 NA
ATOM      5  N   UNL     1      -0.346  11.405  17.939  0.00  0.00    +0.000 N 
ATOM      6  C   UNL     1       0.144  11.527  19.308  0.00  0.00    +0.000 C 
ATOM      7  C   UNL     1      -1.176  12.079  19.976  0.00  0.00    +0.000 C 
ATOM      8  O   UNL     1      -1.313  12.478  21.128  0.00  0.00    +0.000 OA
ATOM      9  H   UNL     1      -3.321  11.633  16.882  0.00  0.00    +0.000 HD
ATOM     10  H   UNL     1       0.134  10.904  17.214  0.00  0.00    +0.000 HD
ENDROOT
BRANCH   6  11
ATOM     11  C   UNL     1       0.533  10.133  19.834  0.00  0.00    +0.000 A 
ATOM     12  C   UNL     1       0.188   9.716  21.132  0.00  0.00    +0.000 A 
ATOM     13  C   UNL     1       0.671   8.515  21.652  0.00  0.00    +0.000 A 
ATOM     14  C   UNL     1       1.486   7.690  20.876  0.00  0.00    +0.000 A 
ATOM     15  C   UNL     1       1.818   8.029  19.556  0.00  0.00    +0.000 A 
ATOM     16  C   UNL     1       1.305   9.243  19.053  0.00  0.00    +0.000 A 
BRANCH  15  17
ATOM     17  C   UNL     1       2.716   7.177  18.741  0.00  0.00    +0.000 A 
ATOM     18  C   UNL     1       3.434   7.690  17.644  0.00  0.00    +0.000 A 
ATOM     19  C   UNL     1       4.301   6.885  16.896  0.00  0.00    +0.000 A 
ATOM     20  C   UNL     1       4.461   5.541  17.222  0.00  0.00    +0.000 A 
ATOM     21  C   UNL     1       3.761   5.012  18.301  0.00  0.00    +0.000 A 
ATOM     22 CL   UNL     1       3.951   3.352  18.713  0.00  0.00    +0.000 Cl
ATOM     23  C   UNL     1       2.905   5.818  19.056  0.00  0.00    +0.000 A 
ENDBRANCH  15  17
ENDBRANCH   6  11
BRANCH   6  24
ATOM     24  C   UNL     1       1.292  12.558  19.394  0.00  0.00    +0.000 C 
ATOM     25  C   UNL     1       1.875  12.768  20.776  0.00  0.00    +0.000 C 
ATOM     26  C   UNL     1       2.234  12.777  18.216  0.00  0.00    +0.000 C 
ATOM     27  C   UNL     1       1.195  13.814  18.531  0.00  0.00    +0.000 C 
ENDBRANCH   6  24
TORSDOF 3
ENDMDL
MODEL 8
REMARK VINA RESULT:      -7.6      3.916      7.304
REMARK  Name = 
REMARK  5 active torsions:
REMARK  status: ('A' for Active; 'I' for Inactive)
REMARK    1  A    between atoms: C_1  and  N_2
REMARK    2  A    between atoms: C_6  and  C_7
REMARK    3  A    between atoms: C_6  and  C_20
REMARK    4  A    between atoms: C_11  and  C_12
REMARK    5  A    between atoms: C_20  and  C_21
REMARK                            x       y       z     vdW  Elec       q    Type
REMARK                         _______ _______ _______ _____ _____    ______ ____
ROOT
ATOM      1  C   UNL     1       8.147   6.269  18.765  0.00  0.00    +0.000 C 
ATOM      2  N   UNL     1       6.789   6.147  18.289  0.00  0.00    +0.000 N 
ATOM      3  C   UNL     1       6.099   6.953  17.455  0.00  0.00    +0.000 C 
ATOM      4  N   UNL     1       6.513   8.050  16.944  0.00  0.00    +0.000 NA
ATOM      5  N   UNL     1       4.870   6.452  17.214  0.00  0.00    +0.000 N 
ATOM      6  C   UNL     1       4.566   5.287  18.039  0.00  0.00    +0.000 C 
ATOM      7  C   UNL     1       5.997   5.076  18.673  0.00  0.00    +0.000 C 
ATOM      8  O   UNL     1       6.365   4.143  19.379  0.00  0.00    +0.000 OA
ATOM      9  H   UNL     1       7.464   8.265  17.240  0.00  0.00    +0.000 HD
ATOM     10  H   UNL     1       4.172   7.029  16.780  0.00  0.00    +0.000 HD
ENDROOT
BRANCH   6  11
ATOM     11  C   UNL     1       3.506   5.669  19.088  0.00  0.00    +0.000 A 
ATOM     12  C   UNL     1       2.993   4.721  19.990  0.00  0.00    +0.000 A 
ATOM     13  C   UNL     1       1.930   5.037  20.836  0.00  0.00    +0.000 A 
ATOM     14  C   UNL     1       1.374   6.317  20.818  0.00  0.00    +0.000 A 
ATOM     15  C   UNL     1       1.881   7.319  19.977  0.00  0.00    +0.000 A 
ATOM     16  C   UNL     1       2.965   6.974  19.143  0.00  0.00    +0.000 A 
BRANCH  15  17
ATOM     17  C   UNL     1       1.270   8.668  19.925  0.00  0.00    +0.000 A 
ATOM     18  C   UNL     1       1.299   9.453  18.757  0.00  0.00    +0.000 A 
ATOM     19  C   UNL     1       0.696  10.714  18.708  0.00  0.00    +0.000 A 
ATOM     20  C   UNL     1       0.056  11.227  19.833  0.00  0.00    +0.000 A 
ATOM     21  C   UNL     1       0.015  10.470  20.999  0.00  0.00    +0.000 A 
ATOM     22 CL   UNL     1      -0.773  11.092  22.396  0.00  0.00    +0.000 Cl
ATOM     23  C   UNL     1       0.607   9.204  21.045  0.00  0.00    +0.000 A 
ENDBRANCH  15  17
ENDBRANCH   6  11
BRANCH   6  24
ATOM     24  C   UNL     1       4.156   4.082  17.162  0.00  0.00    +0.000 C 
ATOM     25  C   UNL     1       4.964   3.894  15.895  0.00  0.00    +0.000 C 
ATOM     26  C   UNL     1       3.572   2.822  17.791  0.00  0.00    +0.000 C 
ATOM     27  C   UNL     1       2.668   3.757  17.041  0.00  0.00    +0.000 C 
ENDBRANCH   6  24
TORSDOF 3
ENDMDL
MODEL 9
REMARK VINA RESULT:      -7.6      3.799      7.118
REMARK  Name = 
REMARK  5 active torsions:
REMARK  status: ('A' for Active; 'I' for Inactive)
REMARK    1  A    between atoms: C_1  and  N_2
REMARK    2  A    between atoms: C_6  and  C_7
REMARK    3  A    between atoms: C_6  and  C_20
REMARK    4  A    between atoms: C_11  and  C_12
REMARK    5  A    between atoms: C_20  and  C_21
REMARK                            x       y       z     vdW  Elec       q    Type
REMARK                         _______ _______ _______ _____ _____    ______ ____
ROOT
ATOM      1  C   UNL     1       8.511   6.513  19.229  0.00  0.00    +0.000 C 
ATOM      2  N   UNL     1       7.495   6.429  18.206  0.00  0.00    +0.000 N 
ATOM      3  C   UNL     1       7.058   7.380  17.354  0.00  0.00    +0.000 C 
ATOM      4  N   UNL     1       7.437   8.601  17.320  0.00  0.00    +0.000 NA
ATOM      5  N   UNL     1       6.133   6.878  16.510  0.00  0.00    +0.000 N 
ATOM      6  C   UNL     1       5.742   5.514  16.853  0.00  0.00    +0.000 C 
ATOM      7  C   UNL     1       6.821   5.241  17.973  0.00  0.00    +0.000 C 
ATOM      8  O   UNL     1       7.040   4.180  18.548  0.00  0.00    +0.000 OA
ATOM      9  H   UNL     1       8.141   8.794  18.031  0.00  0.00    +0.000 HD
ATOM     10  H   UNL     1       5.571   7.499  15.957  0.00  0.00    +0.000 HD
ENDROOT
BRANCH   6  11
ATOM     11  C   UNL     1       4.305   5.520  17.406  0.00  0.00    +0.000 A 
ATOM     12  C   UNL     1       3.468   4.398  17.285  0.00  0.00    +0.000 A 
ATOM     13  C   UNL     1       2.124   4.462  17.654  0.00  0.00    +0.000 A 
ATOM     14  C   UNL     1       1.595   5.641  18.179  0.00  0.00    +0.000 A 
ATOM     15  C   UNL     1       2.396   6.776  18.372  0.00  0.00    +0.000 A 
ATOM     16  C   UNL     1       3.754   6.678  18.002  0.00  0.00    +0.000 A 
BRANCH  15  17
ATOM     17  C   UNL     1       1.830   8.044  18.891  0.00  0.00    +0.000 A 
ATOM     18  C   UNL     1       1.581   9.145  18.051  0.00  0.00    +0.000 A 
ATOM     19  C   UNL     1       1.021  10.330  18.543  0.00  0.00    +0.000 A 
ATOM     20  C   UNL     1       0.707  10.444  19.895  0.00  0.00    +0.000 A 
ATOM     21  C   UNL     1       0.946   9.369  20.745  0.00  0.00    +0.000 A 
ATOM     22 CL   UNL     1       0.561   9.499  22.416  0.00  0.00    +0.000 Cl
ATOM     23  C   UNL     1       1.493   8.182  20.251  0.00  0.00    +0.000 A 
ENDBRANCH  15  17
ENDBRANCH   6  11
BRANCH   6  24
ATOM     24  C   UNL     1       5.931   4.566  15.647  0.00  0.00    +0.000 C 
ATOM     25  C   UNL     1       5.719   3.095  15.936  0.00  0.00    +0.000 C 
ATOM     26  C   UNL     1       5.619   5.034  14.230  0.00  0.00    +0.000 C 
ATOM     27  C   UNL     1       7.050   4.880  14.656  0.00  0.00    +0.000 C 
ENDBRANCH   6  24
TORSDOF 3
ENDMDL
