MODEL 1
REMARK VINA RESULT:      -7.8      0.000      0.000
REMARK  Name = 
REMARK  6 active torsions:
REMARK  status: ('A' for Active; 'I' for Inactive)
REMARK    1  A    between atoms: C_1  and  C_2
REMARK    2  A    between atoms: C_2  and  C_3
REMARK    3  A    between atoms: C_3  and  O_5
REMARK    4  A    between atoms: O_5  and  C_6
REMARK    5  A    between atoms: C_6  and  C_7
REMARK    6  A    between atoms: C_7  and  C_8
REMARK                            x       y       z     vdW  Elec       q    Type
REMARK                         _______ _______ _______ _____ _____    ______ ____
ROOT
ATOM      1  C   UNL     1      -1.342  12.526  19.807  0.00  0.00    +0.000 C 
ATOM      2  C   UNL     1      -0.442  13.805  19.682  0.00  0.00    +0.000 C 
ATOM      3  O   UNL     1      -0.164  14.558  20.573  0.00  0.00    +0.000 OA
ATOM      4  O   UNL     1       0.355  13.753  18.567  0.00  0.00    +0.000 OA
ATOM      5  C   UNL     1       1.492  13.039  19.046  0.00  0.00    +0.000 C 
ATOM      6  C   UNL     1       1.067  11.623  19.236  0.00  0.00    +0.000 A 
ATOM      7  C   UNL     1      -0.064  11.216  19.868  0.00  0.00    +0.000 A 
ATOM      8  C   UNL     1       0.135   9.637  20.271  0.00  0.00    +0.000 A 
ATOM      9  C   UNL     1       1.093   8.794  19.667  0.00  0.00    +0.000 A 
ATOM     10  N   UNL     1       1.786   9.394  18.622  0.00  0.00    +0.000 N 
ATOM     11  C   UNL     1       1.870  10.723  18.373  0.00  0.00    +0.000 A 
ATOM     12  O   UNL     1       2.553  11.165  17.472  0.00  0.00    +0.000 OA
ATOM     13  C   UNL     1       2.576   8.526  17.780  0.00  0.00    +0.000 C 
ATOM     14  C   UNL     1       2.533   7.233  18.474  0.00  0.00    +0.000 A 
ATOM     15  C   UNL     1       3.200   6.088  18.012  0.00  0.00    +0.000 A 
ATOM     16  C   UNL     1       3.193   4.953  18.788  0.00  0.00    +0.000 A 
ATOM     17  C   UNL     1       3.806   3.761  18.275  0.00  0.00    +0.000 A 
ATOM     18  C   UNL     1       3.884   2.613  19.045  0.00  0.00    +0.000 A 
ATOM     19  C   UNL     1       3.410   2.679  20.339  0.00  0.00    +0.000 A 
ATOM     20  C   UNL     1       2.790   3.872  20.825  0.00  0.00    +0.000 A 
ATOM     21  C   UNL     1       2.584   5.054  20.067  0.00  0.00    +0.000 A 
ATOM     22  N   UNL     1       1.854   6.232  20.489  0.00  0.00    +0.000 NA
ATOM     23  C   UNL     1       1.789   7.306  19.655  0.00  0.00    +0.000 A 
ENDROOT
BRANCH   1  24
ATOM     24  C   UNL     1      -2.489  13.219  20.837  0.00  0.00    +0.000 C 
ATOM     25  C   UNL     1      -3.071  12.652  22.167  0.00  0.00    +0.000 C 
ENDBRANCH   1  24
BRANCH   1  26
ATOM     26  O   UNL     1      -2.064  12.246  18.468  0.00  0.00    +0.000 OA
BRANCH  26  27
ATOM     27  C   UNL     1      -3.152  11.405  18.272  0.00  0.00    +0.000 C 
ATOM     28  O   UNL     1      -4.292  11.692  18.493  0.00  0.00    +0.000 OA
BRANCH  27  30
ATOM     29  C   UNL     1      -2.582   9.883  16.238  0.00  0.00    +0.000 C 
ATOM     30  C   UNL     1      -2.797   9.994  17.729  0.00  0.00    +0.000 C 
ENDBRANCH  27  30
ENDBRANCH  26  27
ENDBRANCH   1  26
TORSDOF 4
ENDMDL
MODEL 2
REMARK VINA RESULT:      -7.6      1.028      1.237
REMARK  Name = 
REMARK  6 active torsions:
REMARK  status: ('A' for Active; 'I' for Inactive)
REMARK    1  A    between atoms: C_1  and  C_2
REMARK    2  A    between atoms: C_2  and  C_3
REMARK    3  A    between atoms: C_3  and  O_5
REMARK    4  A    between atoms: O_5  and  C_6
REMARK    5  A    between atoms: C_6  and  C_7
REMARK    6  A    between atoms: C_7  and  C_8
REMARK                            x       y       z     vdW  Elec       q    Type
REMARK                         _______ _______ _______ _____ _____    ______ ____
ROOT
ATOM      1  C   UNL     1      -1.962  12.711  20.654  0.00  0.00    +0.000 C 
ATOM      2  C   UNL     1      -1.233  14.094  20.791  0.00  0.00    +0.000 C 
ATOM      3  O   UNL     1      -1.023  14.679  21.817  0.00  0.00    +0.000 OA
ATOM      4  O   UNL     1      -0.471  14.373  19.685  0.00  0.00    +0.000 OA
ATOM      5  C   UNL     1       0.760  13.729  20.000  0.00  0.00    +0.000 C 
ATOM      6  C   UNL     1       0.523  12.261  19.896  0.00  0.00    +0.000 A 
ATOM      7  C   UNL     1      -0.529  11.592  20.437  0.00  0.00    +0.000 A 
ATOM      8  C   UNL     1      -0.121  10.003  20.504  0.00  0.00    +0.000 A 
ATOM      9  C   UNL     1       0.916   9.432  19.734  0.00  0.00    +0.000 A 
ATOM     10  N   UNL     1       1.494  10.316  18.832  0.00  0.00    +0.000 N 
ATOM     11  C   UNL     1       1.404  11.668  18.862  0.00  0.00    +0.000 A 
ATOM     12  O   UNL     1       1.997  12.369  18.068  0.00  0.00    +0.000 OA
ATOM     13  C   UNL     1       2.359   9.748  17.824  0.00  0.00    +0.000 C 
ATOM     14  C   UNL     1       2.500   8.345  18.237  0.00  0.00    +0.000 A 
ATOM     15  C   UNL     1       3.290   7.415  17.544  0.00  0.00    +0.000 A 
ATOM     16  C   UNL     1       3.450   6.154  18.070  0.00  0.00    +0.000 A 
ATOM     17  C   UNL     1       4.191   5.182  17.318  0.00  0.00    +0.000 A 
ATOM     18  C   UNL     1       4.436   3.920  17.834  0.00  0.00    +0.000 A 
ATOM     19  C   UNL     1       3.999   3.659  19.117  0.00  0.00    +0.000 A 
ATOM     20  C   UNL     1       3.251   4.637  19.842  0.00  0.00    +0.000 A 
ATOM     21  C   UNL     1       2.874   5.913  19.345  0.00  0.00    +0.000 A 
ATOM     22  N   UNL     1       2.016   6.876  20.005  0.00  0.00    +0.000 NA
ATOM     23  C   UNL     1       1.792   8.080  19.411  0.00  0.00    +0.000 A 
ENDROOT
BRANCH   1  24
ATOM     24  C   UNL     1      -3.153  13.026  21.811  0.00  0.00    +0.000 C 
ATOM     25  C   UNL     1      -3.330  12.388  23.223  0.00  0.00    +0.000 C 
ENDBRANCH   1  24
BRANCH   1  26
ATOM     26  O   UNL     1      -2.685  12.619  19.290  0.00  0.00    +0.000 OA
BRANCH  26  27
ATOM     27  C   UNL     1      -3.737  11.772  18.964  0.00  0.00    +0.000 C 
ATOM     28  O   UNL     1      -4.873  11.926  19.302  0.00  0.00    +0.000 OA
BRANCH  27  30
ATOM     29  C   UNL     1      -2.055  10.663  17.315  0.00  0.00    +0.000 C 
ATOM     30  C   UNL     1      -3.342  10.546  18.098  0.00  0.00    +0.000 C 
ENDBRANCH  27  30
ENDBRANCH  26  27
ENDBRANCH   1  26
TORSDOF 4
ENDMDL
MODEL 3
REMARK VINA RESULT:      -7.5      1.305      1.549
REMARK  Name = 
REMARK  6 active torsions:
REMARK  status: ('A' for Active; 'I' for Inactive)
REMARK    1  A    between atoms: C_1  and  C_2
REMARK    2  A    between atoms: C_2  and  C_3
REMARK    3  A    between atoms: C_3  and  O_5
REMARK    4  A    between atoms: O_5  and  C_6
REMARK    5  A    between atoms: C_6  and  C_7
REMARK    6  A    between atoms: C_7  and  C_8
REMARK                            x       y       z     vdW  Elec       q    Type
REMARK                         _______ _______ _______ _____ _____    ______ ____
ROOT
ATOM      1  C   UNL     1      -0.530  11.504  21.435  0.00  0.00    +0.000 C 
ATOM      2  C   UNL     1       0.233  12.803  20.995  0.00  0.00    +0.000 C 
ATOM      3  O   UNL     1       0.860  13.527  21.717  0.00  0.00    +0.000 OA
ATOM      4  O   UNL     1       0.485  12.807  19.647  0.00  0.00    +0.000 OA
ATOM      5  C   UNL     1       1.718  12.096  19.572  0.00  0.00    +0.000 C 
ATOM      6  C   UNL     1       1.414  10.667  19.864  0.00  0.00    +0.000 A 
ATOM      7  C   UNL     1       0.655  10.216  20.897  0.00  0.00    +0.000 A 
ATOM      8  C   UNL     1       1.007   8.627  21.112  0.00  0.00    +0.000 A 
ATOM      9  C   UNL     1       1.622   7.825  20.126  0.00  0.00    +0.000 A 
ATOM     10  N   UNL     1       1.808   8.476  18.912  0.00  0.00    +0.000 N 
ATOM     11  C   UNL     1       1.779   9.815  18.706  0.00  0.00    +0.000 A 
ATOM     12  O   UNL     1       2.017  10.303  17.621  0.00  0.00    +0.000 OA
ATOM     13  C   UNL     1       2.170   7.655  17.780  0.00  0.00    +0.000 C 
ATOM     14  C   UNL     1       2.425   6.336  18.373  0.00  0.00    +0.000 A 
ATOM     15  C   UNL     1       2.836   5.222  17.626  0.00  0.00    +0.000 A 
ATOM     16  C   UNL     1       3.158   4.059  18.285  0.00  0.00    +0.000 A 
ATOM     17  C   UNL     1       3.499   2.898  17.512  0.00  0.00    +0.000 A 
ATOM     18  C   UNL     1       3.895   1.723  18.129  0.00  0.00    +0.000 A 
ATOM     19  C   UNL     1       4.012   1.733  19.504  0.00  0.00    +0.000 A 
ATOM     20  C   UNL     1       3.654   2.895  20.254  0.00  0.00    +0.000 A 
ATOM     21  C   UNL     1       3.146   4.101  19.704  0.00  0.00    +0.000 A 
ATOM     22  N   UNL     1       2.660   5.248  20.443  0.00  0.00    +0.000 NA
ATOM     23  C   UNL     1       2.249   6.351  19.759  0.00  0.00    +0.000 A 
ENDROOT
BRANCH   1  24
ATOM     24  C   UNL     1      -1.136  12.137  22.880  0.00  0.00    +0.000 C 
ATOM     25  C   UNL     1      -2.597  12.098  23.422  0.00  0.00    +0.000 C 
ENDBRANCH   1  24
BRANCH   1  26
ATOM     26  O   UNL     1      -1.749  11.261  20.514  0.00  0.00    +0.000 OA
BRANCH  26  27
ATOM     27  C   UNL     1      -2.369  12.195  19.694  0.00  0.00    +0.000 C 
ATOM     28  O   UNL     1      -2.910  13.192  20.074  0.00  0.00    +0.000 OA
BRANCH  27  30
ATOM     29  C   UNL     1      -1.748  10.518  17.803  0.00  0.00    +0.000 C 
ATOM     30  C   UNL     1      -2.332  11.859  18.179  0.00  0.00    +0.000 C 
ENDBRANCH  27  30
ENDBRANCH  26  27
ENDBRANCH   1  26
TORSDOF 4
ENDMDL
MODEL 4
REMARK VINA RESULT:      -7.4      3.781      8.795
REMARK  Name = 
REMARK  6 active torsions:
REMARK  status: ('A' for Active; 'I' for Inactive)
REMARK    1  A    between atoms: C_1  and  C_2
REMARK    2  A    between atoms: C_2  and  C_3
REMARK    3  A    between atoms: C_3  and  O_5
REMARK    4  A    between atoms: O_5  and  C_6
REMARK    5  A    between atoms: C_6  and  C_7
REMARK    6  A    between atoms: C_7  and  C_8
REMARK                            x       y       z     vdW  Elec       q    Type
REMARK                         _______ _______ _______ _____ _____    ______ ____
ROOT
ATOM      1  C   UNL     1       4.210   4.631  16.996  0.00  0.00    +0.000 C 
ATOM      2  C   UNL     1       5.048   3.915  18.113  0.00  0.00    +0.000 C 
ATOM      3  O   UNL     1       6.244   3.900  18.192  0.00  0.00    +0.000 OA
ATOM      4  O   UNL     1       4.292   3.672  19.231  0.00  0.00    +0.000 OA
ATOM      5  C   UNL     1       4.430   4.892  19.955  0.00  0.00    +0.000 C 
ATOM      6  C   UNL     1       3.643   5.924  19.222  0.00  0.00    +0.000 A 
ATOM      7  C   UNL     1       3.686   6.146  17.883  0.00  0.00    +0.000 A 
ATOM      8  C   UNL     1       3.076   7.645  17.610  0.00  0.00    +0.000 A 
ATOM      9  C   UNL     1       2.265   8.336  18.537  0.00  0.00    +0.000 A 
ATOM     10  N   UNL     1       1.941   7.588  19.662  0.00  0.00    +0.000 N 
ATOM     11  C   UNL     1       2.569   6.466  20.090  0.00  0.00    +0.000 A 
ATOM     12  O   UNL     1       2.260   5.911  21.124  0.00  0.00    +0.000 OA
ATOM     13  C   UNL     1       0.901   8.112  20.517  0.00  0.00    +0.000 C 
ATOM     14  C   UNL     1       0.646   9.453  19.974  0.00  0.00    +0.000 A 
ATOM     15  C   UNL     1      -0.290  10.341  20.525  0.00  0.00    +0.000 A 
ATOM     16  C   UNL     1      -0.378  11.616  20.017  0.00  0.00    +0.000 A 
ATOM     17  C   UNL     1      -1.391  12.495  20.528  0.00  0.00    +0.000 A 
ATOM     18  C   UNL     1      -1.478  13.808  20.096  0.00  0.00    +0.000 A 
ATOM     19  C   UNL     1      -0.517  14.253  19.210  0.00  0.00    +0.000 A 
ATOM     20  C   UNL     1       0.473  13.357  18.704  0.00  0.00    +0.000 A 
ATOM     21  C   UNL     1       0.567  11.976  19.020  0.00  0.00    +0.000 A 
ATOM     22  N   UNL     1       1.481  11.017  18.432  0.00  0.00    +0.000 NA
ATOM     23  C   UNL     1       1.474   9.734  18.885  0.00  0.00    +0.000 A 
ENDROOT
BRANCH   1  24
ATOM     24  C   UNL     1       5.227   4.207  15.715  0.00  0.00    +0.000 C 
ATOM     25  C   UNL     1       6.190   5.118  14.894  0.00  0.00    +0.000 C 
ENDBRANCH   1  24
BRANCH   1  26
ATOM     26  O   UNL     1       2.875   3.885  16.765  0.00  0.00    +0.000 OA
BRANCH  26  27
ATOM     27  C   UNL     1       2.321   2.904  17.579  0.00  0.00    +0.000 C 
ATOM     28  O   UNL     1       2.709   1.775  17.654  0.00  0.00    +0.000 OA
BRANCH  27  30
ATOM     29  C   UNL     1       1.034   2.845  19.840  0.00  0.00    +0.000 C 
ATOM     30  C   UNL     1       1.105   3.367  18.424  0.00  0.00    +0.000 C 
ENDBRANCH  27  30
ENDBRANCH  26  27
ENDBRANCH   1  26
TORSDOF 4
ENDMDL
MODEL 5
REMARK VINA RESULT:      -7.2      1.847      2.218
REMARK  Name = 
REMARK  6 active torsions:
REMARK  status: ('A' for Active; 'I' for Inactive)
REMARK    1  A    between atoms: C_1  and  C_2
REMARK    2  A    between atoms: C_2  and  C_3
REMARK    3  A    between atoms: C_3  and  O_5
REMARK    4  A    between atoms: O_5  and  C_6
REMARK    5  A    between atoms: C_6  and  C_7
REMARK    6  A    between atoms: C_7  and  C_8
REMARK                            x       y       z     vdW  Elec       q    Type
REMARK                         _______ _______ _______ _____ _____    ______ ____
ROOT
ATOM      1  C   UNL     1      -1.399  12.668  21.936  0.00  0.00    +0.000 C 
ATOM      2  C   UNL     1      -0.553  13.989  21.906  0.00  0.00    +0.000 C 
ATOM      3  O   UNL     1      -0.089  14.548  22.861  0.00  0.00    +0.000 OA
ATOM      4  O   UNL     1      -0.019  14.218  20.663  0.00  0.00    +0.000 OA
ATOM      5  C   UNL     1       1.197  13.478  20.720  0.00  0.00    +0.000 C 
ATOM      6  C   UNL     1       0.831  12.034  20.680  0.00  0.00    +0.000 A 
ATOM      7  C   UNL     1      -0.133  11.443  21.433  0.00  0.00    +0.000 A 
ATOM      8  C   UNL     1       0.155   9.827  21.428  0.00  0.00    +0.000 A 
ATOM      9  C   UNL     1       0.962   9.184  20.463  0.00  0.00    +0.000 A 
ATOM     10  N   UNL     1       1.405  10.028  19.453  0.00  0.00    +0.000 N 
ATOM     11  C   UNL     1       1.428  11.382  19.490  0.00  0.00    +0.000 A 
ATOM     12  O   UNL     1       1.895  12.041  18.584  0.00  0.00    +0.000 OA
ATOM     13  C   UNL     1       1.995   9.403  18.292  0.00  0.00    +0.000 C 
ATOM     14  C   UNL     1       2.111   7.990  18.678  0.00  0.00    +0.000 A 
ATOM     15  C   UNL     1       2.665   7.007  17.844  0.00  0.00    +0.000 A 
ATOM     16  C   UNL     1       2.833   5.734  18.335  0.00  0.00    +0.000 A 
ATOM     17  C   UNL     1       3.323   4.713  17.454  0.00  0.00    +0.000 A 
ATOM     18  C   UNL     1       3.572   3.432  17.918  0.00  0.00    +0.000 A 
ATOM     19  C   UNL     1       3.394   3.195  19.266  0.00  0.00    +0.000 A 
ATOM     20  C   UNL     1       2.891   4.223  20.122  0.00  0.00    +0.000 A 
ATOM     21  C   UNL     1       2.519   5.527  19.705  0.00  0.00    +0.000 A 
ATOM     22  N   UNL     1       1.894   6.548  20.521  0.00  0.00    +0.000 NA
ATOM     23  C   UNL     1       1.644   7.771  19.976  0.00  0.00    +0.000 A 
ENDROOT
BRANCH   1  24
ATOM     24  C   UNL     1      -2.295  13.065  23.313  0.00  0.00    +0.000 C 
ATOM     25  C   UNL     1      -3.461  12.271  23.976  0.00  0.00    +0.000 C 
ENDBRANCH   1  24
BRANCH   1  26
ATOM     26  O   UNL     1      -2.396  12.643  20.753  0.00  0.00    +0.000 OA
BRANCH  26  27
ATOM     27  C   UNL     1      -3.563  13.387  20.635  0.00  0.00    +0.000 C 
ATOM     28  O   UNL     1      -3.636  14.575  20.758  0.00  0.00    +0.000 OA
BRANCH  27  30
ATOM     29  C   UNL     1      -5.965  12.665  21.329  0.00  0.00    +0.000 C 
ATOM     30  C   UNL     1      -4.838  12.557  20.328  0.00  0.00    +0.000 C 
ENDBRANCH  27  30
ENDBRANCH  26  27
ENDBRANCH   1  26
TORSDOF 4
ENDMDL
MODEL 6
REMARK VINA RESULT:      -7.2      1.665      2.288
REMARK  Name = 
REMARK  6 active torsions:
REMARK  status: ('A' for Active; 'I' for Inactive)
REMARK    1  A    between atoms: C_1  and  C_2
REMARK    2  A    between atoms: C_2  and  C_3
REMARK    3  A    between atoms: C_3  and  O_5
REMARK    4  A    between atoms: O_5  and  C_6
REMARK    5  A    between atoms: C_6  and  C_7
REMARK    6  A    between atoms: C_7  and  C_8
REMARK                            x       y       z     vdW  Elec       q    Type
REMARK                         _______ _______ _______ _____ _____    ______ ____
ROOT
ATOM      1  C   UNL     1      -2.578  12.857  21.512  0.00  0.00    +0.000 C 
ATOM      2  C   UNL     1      -1.944  14.291  21.572  0.00  0.00    +0.000 C 
ATOM      3  O   UNL     1      -1.665  14.894  22.571  0.00  0.00    +0.000 OA
ATOM      4  O   UNL     1      -1.335  14.623  20.389  0.00  0.00    +0.000 OA
ATOM      5  C   UNL     1      -0.031  14.075  20.560  0.00  0.00    +0.000 C 
ATOM      6  C   UNL     1      -0.168  12.593  20.476  0.00  0.00    +0.000 A 
ATOM      7  C   UNL     1      -1.098  11.848  21.128  0.00  0.00    +0.000 A 
ATOM      8  C   UNL     1      -0.567  10.295  21.142  0.00  0.00    +0.000 A 
ATOM      9  C   UNL     1       0.416   9.801  20.257  0.00  0.00    +0.000 A 
ATOM     10  N   UNL     1       0.821  10.723  19.300  0.00  0.00    +0.000 N 
ATOM     11  C   UNL     1       0.633  12.064  19.346  0.00  0.00    +0.000 A 
ATOM     12  O   UNL     1       1.078  12.804  18.494  0.00  0.00    +0.000 OA
ATOM     13  C   UNL     1       1.607  10.218  18.198  0.00  0.00    +0.000 C 
ATOM     14  C   UNL     1       1.899   8.831  18.585  0.00  0.00    +0.000 A 
ATOM     15  C   UNL     1       2.674   7.961  17.804  0.00  0.00    +0.000 A 
ATOM     16  C   UNL     1       2.986   6.717  18.302  0.00  0.00    +0.000 A 
ATOM     17  C   UNL     1       3.709   5.800  17.467  0.00  0.00    +0.000 A 
ATOM     18  C   UNL     1       4.104   4.563  17.946  0.00  0.00    +0.000 A 
ATOM     19  C   UNL     1       3.836   4.275  19.269  0.00  0.00    +0.000 A 
ATOM     20  C   UNL     1       3.103   5.196  20.078  0.00  0.00    +0.000 A 
ATOM     21  C   UNL     1       2.578   6.438  19.633  0.00  0.00    +0.000 A 
ATOM     22  N   UNL     1       1.729   7.336  20.390  0.00  0.00    +0.000 NA
ATOM     23  C   UNL     1       1.349   8.517  19.831  0.00  0.00    +0.000 A 
ENDROOT
BRANCH   1  24
ATOM     24  C   UNL     1      -3.651  13.086  22.797  0.00  0.00    +0.000 C 
ATOM     25  C   UNL     1      -3.787  12.256  24.110  0.00  0.00    +0.000 C 
ENDBRANCH   1  24
BRANCH   1  26
ATOM     26  O   UNL     1      -3.441  12.706  20.237  0.00  0.00    +0.000 OA
BRANCH  26  27
ATOM     27  C   UNL     1      -4.785  13.032  20.101  0.00  0.00    +0.000 C 
ATOM     28  O   UNL     1      -5.222  14.145  20.075  0.00  0.00    +0.000 OA
BRANCH  27  30
ATOM     29  C   UNL     1      -5.872  11.189  18.620  0.00  0.00    +0.000 C 
ATOM     30  C   UNL     1      -5.744  11.817  19.988  0.00  0.00    +0.000 C 
ENDBRANCH  27  30
ENDBRANCH  26  27
ENDBRANCH   1  26
TORSDOF 4
ENDMDL
MODEL 7
REMARK VINA RESULT:      -7.2      1.274      1.597
REMARK  Name = 
REMARK  6 active torsions:
REMARK  status: ('A' for Active; 'I' for Inactive)
REMARK    1  A    between atoms: C_1  and  C_2
REMARK    2  A    between atoms: C_2  and  C_3
REMARK    3  A    between atoms: C_3  and  O_5
REMARK    4  A    between atoms: O_5  and  C_6
REMARK    5  A    between atoms: C_6  and  C_7
REMARK    6  A    between atoms: C_7  and  C_8
REMARK                            x       y       z     vdW  Elec       q    Type
REMARK                         _______ _______ _______ _____ _____    ______ ____
ROOT
ATOM      1  C   UNL     1      -2.291  12.387  20.264  0.00  0.00    +0.000 C 
ATOM      2  C   UNL     1      -1.642  13.796  20.506  0.00  0.00    +0.000 C 
ATOM      3  O   UNL     1      -1.564  14.361  21.561  0.00  0.00    +0.000 OA
ATOM      4  O   UNL     1      -0.786  14.137  19.490  0.00  0.00    +0.000 OA
ATOM      5  C   UNL     1       0.435  13.538  19.914  0.00  0.00    +0.000 C 
ATOM      6  C   UNL     1       0.275  12.064  19.754  0.00  0.00    +0.000 A 
ATOM      7  C   UNL     1      -0.794  11.336  20.168  0.00  0.00    +0.000 A 
ATOM      8  C   UNL     1      -0.324   9.765  20.241  0.00  0.00    +0.000 A 
ATOM      9  C   UNL     1       0.810   9.260  19.568  0.00  0.00    +0.000 A 
ATOM     10  N   UNL     1       1.436  10.192  18.750  0.00  0.00    +0.000 N 
ATOM     11  C   UNL     1       1.282  11.537  18.801  0.00  0.00    +0.000 A 
ATOM     12  O   UNL     1       1.921  12.284  18.088  0.00  0.00    +0.000 OA
ATOM     13  C   UNL     1       2.423   9.689  17.824  0.00  0.00    +0.000 C 
ATOM     14  C   UNL     1       2.585   8.282  18.217  0.00  0.00    +0.000 A 
ATOM     15  C   UNL     1       3.482   7.406  17.588  0.00  0.00    +0.000 A 
ATOM     16  C   UNL     1       3.644   6.139  18.098  0.00  0.00    +0.000 A 
ATOM     17  C   UNL     1       4.501   5.219  17.405  0.00  0.00    +0.000 A 
ATOM     18  C   UNL     1       4.749   3.956  17.914  0.00  0.00    +0.000 A 
ATOM     19  C   UNL     1       4.197   3.642  19.139  0.00  0.00    +0.000 A 
ATOM     20  C   UNL     1       3.336   4.568  19.806  0.00  0.00    +0.000 A 
ATOM     21  C   UNL     1       2.954   5.839  19.302  0.00  0.00    +0.000 A 
ATOM     22  N   UNL     1       1.991   6.746  19.893  0.00  0.00    +0.000 NA
ATOM     23  C   UNL     1       1.774   7.955  19.306  0.00  0.00    +0.000 A 
ENDROOT
BRANCH   1  24
ATOM     24  C   UNL     1      -3.606  12.620  21.299  0.00  0.00    +0.000 C 
ATOM     25  C   UNL     1      -4.881  13.489  21.073  0.00  0.00    +0.000 C 
ENDBRANCH   1  24
BRANCH   1  26
ATOM     26  O   UNL     1      -2.868  12.302  18.831  0.00  0.00    +0.000 OA
BRANCH  26  27
ATOM     27  C   UNL     1      -3.605  11.254  18.294  0.00  0.00    +0.000 C 
ATOM     28  O   UNL     1      -3.188  10.150  18.098  0.00  0.00    +0.000 OA
BRANCH  27  30
ATOM     29  C   UNL     1      -6.144  10.755  18.574  0.00  0.00    +0.000 C 
ATOM     30  C   UNL     1      -5.072  11.606  17.933  0.00  0.00    +0.000 C 
ENDBRANCH  27  30
ENDBRANCH  26  27
ENDBRANCH   1  26
TORSDOF 4
ENDMDL
MODEL 8
REMARK VINA RESULT:      -7.1      2.109      4.386
REMARK  Name = 
REMARK  6 active torsions:
REMARK  status: ('A' for Active; 'I' for Inactive)
REMARK    1  A    between atoms: C_1  and  C_2
REMARK    2  A    between atoms: C_2  and  C_3
REMARK    3  A    between atoms: C_3  and  O_5
REMARK    4  A    between atoms: O_5  and  C_6
REMARK    5  A    between atoms: C_6  and  C_7
REMARK    6  A    between atoms: C_7  and  C_8
REMARK                            x       y       z     vdW  Elec       q    Type
REMARK                         _______ _______ _______ _____ _____    ______ ____
ROOT
ATOM      1  C   UNL     1       1.417  12.951  19.695  0.00  0.00    +0.000 C 
ATOM      2  C   UNL     1      -0.030  13.357  20.145  0.00  0.00    +0.000 C 
ATOM      3  O   UNL     1      -0.870  13.853  19.446  0.00  0.00    +0.000 OA
ATOM      4  O   UNL     1      -0.404  12.701  21.290  0.00  0.00    +0.000 OA
ATOM      5  C   UNL     1      -0.940  11.485  20.775  0.00  0.00    +0.000 C 
ATOM      6  C   UNL     1       0.211  10.680  20.275  0.00  0.00    +0.000 A 
ATOM      7  C   UNL     1       1.213  11.143  19.483  0.00  0.00    +0.000 A 
ATOM      8  C   UNL     1       1.940   9.843  18.794  0.00  0.00    +0.000 A 
ATOM      9  C   UNL     1       1.824   8.529  19.297  0.00  0.00    +0.000 A 
ATOM     10  N   UNL     1       1.123   8.448  20.494  0.00  0.00    +0.000 N 
ATOM     11  C   UNL     1       0.299   9.393  21.007  0.00  0.00    +0.000 A 
ATOM     12  O   UNL     1      -0.327   9.212  22.031  0.00  0.00    +0.000 OA
ATOM     13  C   UNL     1       1.197   7.197  21.211  0.00  0.00    +0.000 C 
ATOM     14  C   UNL     1       1.883   6.298  20.273  0.00  0.00    +0.000 A 
ATOM     15  C   UNL     1       2.149   4.949  20.555  0.00  0.00    +0.000 A 
ATOM     16  C   UNL     1       2.696   4.159  19.571  0.00  0.00    +0.000 A 
ATOM     17  C   UNL     1       3.041   2.802  19.888  0.00  0.00    +0.000 A 
ATOM     18  C   UNL     1       3.533   1.947  18.916  0.00  0.00    +0.000 A 
ATOM     19  C   UNL     1       3.614   2.429  17.625  0.00  0.00    +0.000 A 
ATOM     20  C   UNL     1       3.279   3.787  17.334  0.00  0.00    +0.000 A 
ATOM     21  C   UNL     1       2.864   4.751  18.291  0.00  0.00    +0.000 A 
ATOM     22  N   UNL     1       2.635   6.161  18.051  0.00  0.00    +0.000 NA
ATOM     23  C   UNL     1       2.191   6.943  19.073  0.00  0.00    +0.000 A 
ENDROOT
BRANCH   1  24
ATOM     24  C   UNL     1       1.689  14.312  18.731  0.00  0.00    +0.000 C 
ATOM     25  C   UNL     1       2.922  14.638  17.833  0.00  0.00    +0.000 C 
ENDBRANCH   1  24
BRANCH   1  26
ATOM     26  O   UNL     1       2.397  13.052  20.888  0.00  0.00    +0.000 OA
BRANCH  26  27
ATOM     27  C   UNL     1       2.782  14.212  21.550  0.00  0.00    +0.000 C 
ATOM     28  O   UNL     1       2.083  14.850  22.280  0.00  0.00    +0.000 OA
BRANCH  27  30
ATOM     29  C   UNL     1       4.433  16.126  20.929  0.00  0.00    +0.000 C 
ATOM     30  C   UNL     1       4.240  14.668  21.274  0.00  0.00    +0.000 C 
ENDBRANCH  27  30
ENDBRANCH  26  27
ENDBRANCH   1  26
TORSDOF 4
ENDMDL
MODEL 9
REMARK VINA RESULT:      -7.0      1.448      1.864
REMARK  Name = 
REMARK  6 active torsions:
REMARK  status: ('A' for Active; 'I' for Inactive)
REMARK    1  A    between atoms: C_1  and  C_2
REMARK    2  A    between atoms: C_2  and  C_3
REMARK    3  A    between atoms: C_3  and  O_5
REMARK    4  A    between atoms: O_5  and  C_6
REMARK    5  A    between atoms: C_6  and  C_7
REMARK    6  A    between atoms: C_7  and  C_8
REMARK                            x       y       z     vdW  Elec       q    Type
REMARK                         _______ _______ _______ _____ _____    ______ ____
ROOT
ATOM      1  C   UNL     1      -1.318  13.813  21.522  0.00  0.00    +0.000 C 
ATOM      2  C   UNL     1      -0.396  15.073  21.364  0.00  0.00    +0.000 C 
ATOM      3  O   UNL     1       0.110  15.690  22.259  0.00  0.00    +0.000 OA
ATOM      4  O   UNL     1       0.136  15.151  20.102  0.00  0.00    +0.000 OA
ATOM      5  C   UNL     1       1.308  14.349  20.222  0.00  0.00    +0.000 C 
ATOM      6  C   UNL     1       0.856  12.932  20.321  0.00  0.00    +0.000 A 
ATOM      7  C   UNL     1      -0.133  12.473  21.131  0.00  0.00    +0.000 A 
ATOM      8  C   UNL     1       0.059  10.849  21.277  0.00  0.00    +0.000 A 
ATOM      9  C   UNL     1       0.816  10.071  20.373  0.00  0.00    +0.000 A 
ATOM     10  N   UNL     1       1.298  10.789  19.285  0.00  0.00    +0.000 N 
ATOM     11  C   UNL     1       1.401  12.136  19.194  0.00  0.00    +0.000 A 
ATOM     12  O   UNL     1       1.896  12.678  18.227  0.00  0.00    +0.000 OA
ATOM     13  C   UNL     1       1.836  10.023  18.185  0.00  0.00    +0.000 C 
ATOM     14  C   UNL     1       1.872   8.648  18.702  0.00  0.00    +0.000 A 
ATOM     15  C   UNL     1       2.358   7.560  17.962  0.00  0.00    +0.000 A 
ATOM     16  C   UNL     1       2.456   6.330  18.570  0.00  0.00    +0.000 A 
ATOM     17  C   UNL     1       2.876   5.203  17.787  0.00  0.00    +0.000 A 
ATOM     18  C   UNL     1       3.053   3.959  18.368  0.00  0.00    +0.000 A 
ATOM     19  C   UNL     1       2.876   3.862  19.734  0.00  0.00    +0.000 A 
ATOM     20  C   UNL     1       2.444   4.993  20.492  0.00  0.00    +0.000 A 
ATOM     21  C   UNL     1       2.145   6.273  19.955  0.00  0.00    +0.000 A 
ATOM     22  N   UNL     1       1.591   7.402  20.674  0.00  0.00    +0.000 NA
ATOM     23  C   UNL     1       1.408   8.580  20.018  0.00  0.00    +0.000 A 
ENDROOT
BRANCH   1  24
ATOM     24  C   UNL     1      -2.174  14.391  22.860  0.00  0.00    +0.000 C 
ATOM     25  C   UNL     1      -3.043  13.591  23.878  0.00  0.00    +0.000 C 
ENDBRANCH   1  24
BRANCH   1  26
ATOM     26  O   UNL     1      -2.328  13.737  20.353  0.00  0.00    +0.000 OA
BRANCH  26  27
ATOM     27  C   UNL     1      -3.239  12.718  20.107  0.00  0.00    +0.000 C 
ATOM     28  O   UNL     1      -4.228  12.511  20.747  0.00  0.00    +0.000 OA
BRANCH  27  30
ATOM     29  C   UNL     1      -4.041  11.378  18.025  0.00  0.00    +0.000 C 
ATOM     30  C   UNL     1      -2.887  11.804  18.902  0.00  0.00    +0.000 C 
ENDBRANCH  27  30
ENDBRANCH  26  27
ENDBRANCH   1  26
TORSDOF 4
ENDMDL
