MODEL 1
REMARK VINA RESULT:      -6.3      0.000      0.000
REMARK  Name = 
REMARK  8 active torsions:
REMARK  status: ('A' for Active; 'I' for Inactive)
REMARK    1  A    between atoms: C_1  and  C_2
REMARK    2  A    between atoms: C_2  and  O_4
REMARK    3  A    between atoms: O_4  and  C_5
REMARK    4  A    between atoms: C_5  and  C_6
REMARK    5  A    between atoms: C_6  and  C_8
REMARK    6  A    between atoms: C_8  and  O_9
REMARK    7  A    between atoms: C_22  and  C_23
REMARK    8  A    between atoms: C_29  and  C_30
REMARK                            x       y       z     vdW  Elec       q    Type
REMARK                         _______ _______ _______ _____ _____    ______ ____
ROOT
ATOM      1  C   UNL     1       6.852  13.544  24.682  0.00  0.00    +0.000 C 
ATOM      2  C   UNL     1       8.321  13.714  25.122  0.00  0.00    +0.000 C 
ATOM      3  C   UNL     1       9.040  14.334  23.986  0.00  0.00    +0.000 C 
ATOM      4  C   UNL     1       8.019  14.467  22.875  0.00  0.00    +0.000 C 
ATOM      5  C   UNL     1       8.261  14.039  21.469  0.00  0.00    +0.000 C 
ATOM      6  C   UNL     1       9.527  13.254  21.281  0.00  0.00    +0.000 C 
ATOM      7  C   UNL     1       9.275  12.358  20.099  0.00  0.00    +0.000 C 
ATOM      8  C   UNL     1       8.925  13.155  18.842  0.00  0.00    +0.000 C 
ATOM      9  C   UNL     1       9.607  12.720  17.749  0.00  0.00    +0.000 C 
ATOM     10  C   UNL     1      11.050  13.124  17.960  0.00  0.00    +0.000 C 
ATOM     11  O   UNL     1      11.991  12.363  17.796  0.00  0.00    +0.000 OA
ATOM     12  C   UNL     1      11.217  14.562  18.311  0.00  0.00    +0.000 C 
ATOM     13  C   UNL     1      10.149  15.299  18.688  0.00  0.00    +0.000 C 
ATOM     14  C   UNL     1       8.698  14.733  18.994  0.00  0.00    +0.000 C 
ATOM     15  C   UNL     1       7.839  15.225  17.823  0.00  0.00    +0.000 C 
ATOM     16  C   UNL     1       8.095  15.240  20.508  0.00  0.00    +0.000 C 
ATOM     17 CL   UNL     1       9.161  16.689  21.040  0.00  0.00    +0.000 Cl
ATOM     18  C   UNL     1       6.589  15.790  20.886  0.00  0.00    +0.000 C 
ATOM     19 CL   UNL     1       5.333  14.968  19.904  0.00  0.00    +0.000 Cl
ATOM     20  C   UNL     1       6.135  15.745  22.585  0.00  0.00    +0.000 C 
ATOM     21  C   UNL     1       6.540  14.311  23.285  0.00  0.00    +0.000 C 
ATOM     22  C   UNL     1       5.319  13.502  22.760  0.00  0.00    +0.000 C 
ENDROOT
BRANCH   1  23
ATOM     23  C   UNL     1       6.773  11.911  24.758  0.00  0.00    +0.000 C 
ATOM     24  O   UNL     1       7.546  11.243  24.049  0.00  0.00    +0.000 OA
BRANCH  23  25
ATOM     25  C   UNL     1       5.661  11.183  25.566  0.00  0.00    +0.000 C 
BRANCH  25  26
ATOM     26  O   UNL     1       5.574  11.399  26.998  0.00  0.00    +0.000 OA
BRANCH  26  28
ATOM     27  C   UNL     1       4.018  12.820  28.137  0.00  0.00    +0.000 C 
ATOM     28  C   UNL     1       4.318  11.469  27.535  0.00  0.00    +0.000 C 
ATOM     29  O   UNL     1       3.515  10.563  27.471  0.00  0.00    +0.000 OA
ENDBRANCH  26  28
ENDBRANCH  25  26
ENDBRANCH  23  25
ENDBRANCH   1  23
BRANCH   1  30
ATOM     30  O   UNL     1       6.036  14.080  25.721  0.00  0.00    +0.000 OA
ATOM     31  H   UNL     1       5.973  15.042  25.542  0.00  0.00    +0.000 HD
ENDBRANCH   1  30
TORSDOF 5
ENDMDL
MODEL 2
REMARK VINA RESULT:      -6.1      9.406     12.246
REMARK  Name = 
REMARK  8 active torsions:
REMARK  status: ('A' for Active; 'I' for Inactive)
REMARK    1  A    between atoms: C_1  and  C_2
REMARK    2  A    between atoms: C_2  and  O_4
REMARK    3  A    between atoms: O_4  and  C_5
REMARK    4  A    between atoms: C_5  and  C_6
REMARK    5  A    between atoms: C_6  and  C_8
REMARK    6  A    between atoms: C_8  and  O_9
REMARK    7  A    between atoms: C_22  and  C_23
REMARK    8  A    between atoms: C_29  and  C_30
REMARK                            x       y       z     vdW  Elec       q    Type
REMARK                         _______ _______ _______ _____ _____    ______ ____
ROOT
ATOM      1  C   UNL     1       0.192  11.678  20.849  0.00  0.00    +0.000 C 
ATOM      2  C   UNL     1       0.245  12.506  19.548  0.00  0.00    +0.000 C 
ATOM      3  C   UNL     1      -0.930  13.408  19.566  0.00  0.00    +0.000 C 
ATOM      4  C   UNL     1      -1.693  13.065  20.829  0.00  0.00    +0.000 C 
ATOM      5  C   UNL     1      -3.161  12.820  20.872  0.00  0.00    +0.000 C 
ATOM      6  C   UNL     1      -3.801  12.719  19.517  0.00  0.00    +0.000 C 
ATOM      7  C   UNL     1      -4.998  11.827  19.702  0.00  0.00    +0.000 C 
ATOM      8  C   UNL     1      -5.975  12.387  20.737  0.00  0.00    +0.000 C 
ATOM      9  C   UNL     1      -7.265  12.336  20.308  0.00  0.00    +0.000 C 
ATOM     10  C   UNL     1      -7.386  13.364  19.204  0.00  0.00    +0.000 C 
ATOM     11  O   UNL     1      -7.913  13.133  18.126  0.00  0.00    +0.000 OA
ATOM     12  C   UNL     1      -6.871  14.709  19.586  0.00  0.00    +0.000 C 
ATOM     13  C   UNL     1      -6.112  14.857  20.695  0.00  0.00    +0.000 C 
ATOM     14  C   UNL     1      -5.522  13.675  21.574  0.00  0.00    +0.000 C 
ATOM     15  C   UNL     1      -6.329  13.726  22.877  0.00  0.00    +0.000 C 
ATOM     16  C   UNL     1      -3.842  13.819  21.837  0.00  0.00    +0.000 C 
ATOM     17 CL   UNL     1      -3.394  15.591  21.410  0.00  0.00    +0.000 Cl
ATOM     18  C   UNL     1      -2.994  13.598  23.232  0.00  0.00    +0.000 C 
ATOM     19 CL   UNL     1      -3.721  12.299  24.234  0.00  0.00    +0.000 Cl
ATOM     20  C   UNL     1      -1.265  13.321  23.069  0.00  0.00    +0.000 C 
ATOM     21  C   UNL     1      -0.932  12.232  21.881  0.00  0.00    +0.000 C 
ATOM     22  C   UNL     1      -1.232  10.954  22.718  0.00  0.00    +0.000 C 
ENDROOT
BRANCH   1  23
ATOM     23  C   UNL     1       0.030  10.196  20.174  0.00  0.00    +0.000 C 
ATOM     24  O   UNL     1      -0.977   9.962  19.482  0.00  0.00    +0.000 OA
BRANCH  23  25
ATOM     25  C   UNL     1       1.012   9.035  20.503  0.00  0.00    +0.000 C 
BRANCH  25  26
ATOM     26  O   UNL     1       1.923   8.569  19.476  0.00  0.00    +0.000 OA
BRANCH  26  28
ATOM     27  C   UNL     1       1.689   6.521  20.695  0.00  0.00    +0.000 C 
ATOM     28  C   UNL     1       2.228   7.236  19.480  0.00  0.00    +0.000 C 
ATOM     29  O   UNL     1       2.809   6.683  18.571  0.00  0.00    +0.000 OA
ENDBRANCH  26  28
ENDBRANCH  25  26
ENDBRANCH  23  25
ENDBRANCH   1  23
BRANCH   1  30
ATOM     30  O   UNL     1       1.482  11.755  21.451  0.00  0.00    +0.000 OA
ATOM     31  H   UNL     1       1.745  10.829  21.639  0.00  0.00    +0.000 HD
ENDBRANCH   1  30
TORSDOF 5
ENDMDL
MODEL 3
REMARK VINA RESULT:      -6.0      9.692     12.522
REMARK  Name = 
REMARK  8 active torsions:
REMARK  status: ('A' for Active; 'I' for Inactive)
REMARK    1  A    between atoms: C_1  and  C_2
REMARK    2  A    between atoms: C_2  and  O_4
REMARK    3  A    between atoms: O_4  and  C_5
REMARK    4  A    between atoms: C_5  and  C_6
REMARK    5  A    between atoms: C_6  and  C_8
REMARK    6  A    between atoms: C_8  and  O_9
REMARK    7  A    between atoms: C_22  and  C_23
REMARK    8  A    between atoms: C_29  and  C_30
REMARK                            x       y       z     vdW  Elec       q    Type
REMARK                         _______ _______ _______ _____ _____    ______ ____
ROOT
ATOM      1  C   UNL     1       0.518  12.207  20.171  0.00  0.00    +0.000 C 
ATOM      2  C   UNL     1       0.376  13.185  18.986  0.00  0.00    +0.000 C 
ATOM      3  C   UNL     1      -0.877  13.944  19.206  0.00  0.00    +0.000 C 
ATOM      4  C   UNL     1      -1.489  13.373  20.468  0.00  0.00    +0.000 C 
ATOM      5  C   UNL     1      -2.916  12.966  20.588  0.00  0.00    +0.000 C 
ATOM      6  C   UNL     1      -3.659  12.957  19.283  0.00  0.00    +0.000 C 
ATOM      7  C   UNL     1      -4.741  11.924  19.441  0.00  0.00    +0.000 C 
ATOM      8  C   UNL     1      -5.675  12.248  20.607  0.00  0.00    +0.000 C 
ATOM      9  C   UNL     1      -6.986  12.108  20.273  0.00  0.00    +0.000 C 
ATOM     10  C   UNL     1      -7.304  13.239  19.320  0.00  0.00    +0.000 C 
ATOM     11  O   UNL     1      -7.897  13.082  18.264  0.00  0.00    +0.000 OA
ATOM     12  C   UNL     1      -6.894  14.577  19.830  0.00  0.00    +0.000 C 
ATOM     13  C   UNL     1      -6.060  14.675  20.890  0.00  0.00    +0.000 C 
ATOM     14  C   UNL     1      -5.281  13.469  21.566  0.00  0.00    +0.000 C 
ATOM     15  C   UNL     1      -5.972  13.277  22.921  0.00  0.00    +0.000 C 
ATOM     16  C   UNL     1      -3.607  13.764  21.720  0.00  0.00    +0.000 C 
ATOM     17 CL   UNL     1      -3.375  15.611  21.489  0.00  0.00    +0.000 Cl
ATOM     18  C   UNL     1      -2.623  13.472  23.009  0.00  0.00    +0.000 C 
ATOM     19 CL   UNL     1      -3.128  11.992  23.888  0.00  0.00    +0.000 Cl
ATOM     20  C   UNL     1      -0.896  13.407  22.684  0.00  0.00    +0.000 C 
ATOM     21  C   UNL     1      -0.561  12.509  21.346  0.00  0.00    +0.000 C 
ATOM     22  C   UNL     1      -0.659  11.116  22.034  0.00  0.00    +0.000 C 
ENDROOT
BRANCH   1  23
ATOM     23  C   UNL     1       0.446  10.806  19.328  0.00  0.00    +0.000 C 
ATOM     24  O   UNL     1       1.510  10.258  18.990  0.00  0.00    +0.000 OA
BRANCH  23  25
ATOM     25  C   UNL     1      -0.904  10.233  18.808  0.00  0.00    +0.000 C 
BRANCH  25  26
ATOM     26  O   UNL     1      -1.423  10.697  17.536  0.00  0.00    +0.000 OA
BRANCH  26  28
ATOM     27  C   UNL     1      -2.710  10.223  15.572  0.00  0.00    +0.000 C 
ATOM     28  C   UNL     1      -2.545  10.073  17.064  0.00  0.00    +0.000 C 
ATOM     29  O   UNL     1      -3.285   9.416  17.764  0.00  0.00    +0.000 OA
ENDBRANCH  26  28
ENDBRANCH  25  26
ENDBRANCH  23  25
ENDBRANCH   1  23
BRANCH   1  30
ATOM     30  O   UNL     1       1.842  12.353  20.681  0.00  0.00    +0.000 OA
ATOM     31  H   UNL     1       2.410  12.527  19.900  0.00  0.00    +0.000 HD
ENDBRANCH   1  30
TORSDOF 5
ENDMDL
MODEL 4
REMARK VINA RESULT:      -6.0      7.720     11.131
REMARK  Name = 
REMARK  8 active torsions:
REMARK  status: ('A' for Active; 'I' for Inactive)
REMARK    1  A    between atoms: C_1  and  C_2
REMARK    2  A    between atoms: C_2  and  O_4
REMARK    3  A    between atoms: O_4  and  C_5
REMARK    4  A    between atoms: C_5  and  C_6
REMARK    5  A    between atoms: C_6  and  C_8
REMARK    6  A    between atoms: C_8  and  O_9
REMARK    7  A    between atoms: C_22  and  C_23
REMARK    8  A    between atoms: C_29  and  C_30
REMARK                            x       y       z     vdW  Elec       q    Type
REMARK                         _______ _______ _______ _____ _____    ______ ____
ROOT
ATOM      1  C   UNL     1       0.575  12.743  18.850  0.00  0.00    +0.000 C 
ATOM      2  C   UNL     1      -0.689  12.287  18.091  0.00  0.00    +0.000 C 
ATOM      3  C   UNL     1      -1.846  12.915  18.769  0.00  0.00    +0.000 C 
ATOM      4  C   UNL     1      -1.271  13.676  19.946  0.00  0.00    +0.000 C 
ATOM      5  C   UNL     1      -1.806  13.589  21.332  0.00  0.00    +0.000 C 
ATOM      6  C   UNL     1      -2.831  12.509  21.523  0.00  0.00    +0.000 C 
ATOM      7  C   UNL     1      -2.727  12.104  22.968  0.00  0.00    +0.000 C 
ATOM      8  C   UNL     1      -2.981  13.281  23.912  0.00  0.00    +0.000 C 
ATOM      9  C   UNL     1      -3.826  12.956  24.926  0.00  0.00    +0.000 C 
ATOM     10  C   UNL     1      -5.192  12.782  24.301  0.00  0.00    +0.000 C 
ATOM     11  O   UNL     1      -5.918  11.825  24.526  0.00  0.00    +0.000 OA
ATOM     12  C   UNL     1      -5.603  13.930  23.444  0.00  0.00    +0.000 C 
ATOM     13  C   UNL     1      -4.691  14.850  23.058  0.00  0.00    +0.000 C 
ATOM     14  C   UNL     1      -3.122  14.740  23.267  0.00  0.00    +0.000 C 
ATOM     15  C   UNL     1      -2.804  15.788  24.341  0.00  0.00    +0.000 C 
ATOM     16  C   UNL     1      -2.242  14.989  21.827  0.00  0.00    +0.000 C 
ATOM     17 CL   UNL     1      -3.428  15.798  20.619  0.00  0.00    +0.000 Cl
ATOM     18  C   UNL     1      -0.880  15.887  21.593  0.00  0.00    +0.000 C 
ATOM     19 CL   UNL     1       0.190  15.829  23.032  0.00  0.00    +0.000 Cl
ATOM     20  C   UNL     1       0.056  15.537  20.145  0.00  0.00    +0.000 C 
ATOM     21  C   UNL     1       0.252  13.918  19.923  0.00  0.00    +0.000 C 
ATOM     22  C   UNL     1       1.423  13.737  20.932  0.00  0.00    +0.000 C 
ENDROOT
BRANCH   1  23
ATOM     23  C   UNL     1       1.080  11.275  19.366  0.00  0.00    +0.000 C 
ATOM     24  O   UNL     1       2.027  10.728  18.773  0.00  0.00    +0.000 OA
BRANCH  23  25
ATOM     25  C   UNL     1       0.313  10.485  20.464  0.00  0.00    +0.000 C 
BRANCH  25  26
ATOM     26  O   UNL     1       0.875  10.408  21.799  0.00  0.00    +0.000 OA
BRANCH  26  28
ATOM     27  C   UNL     1      -0.549   8.494  22.022  0.00  0.00    +0.000 C 
ATOM     28  C   UNL     1       0.229   9.599  22.693  0.00  0.00    +0.000 C 
ATOM     29  O   UNL     1       0.331   9.721  23.895  0.00  0.00    +0.000 OA
ENDBRANCH  26  28
ENDBRANCH  25  26
ENDBRANCH  23  25
ENDBRANCH   1  23
BRANCH   1  30
ATOM     30  O   UNL     1       1.502  13.218  17.876  0.00  0.00    +0.000 OA
ATOM     31  H   UNL     1       2.387  12.933  18.190  0.00  0.00    +0.000 HD
ENDBRANCH   1  30
TORSDOF 5
ENDMDL
MODEL 5
REMARK VINA RESULT:      -5.9      2.140      7.131
REMARK  Name = 
REMARK  8 active torsions:
REMARK  status: ('A' for Active; 'I' for Inactive)
REMARK    1  A    between atoms: C_1  and  C_2
REMARK    2  A    between atoms: C_2  and  O_4
REMARK    3  A    between atoms: O_4  and  C_5
REMARK    4  A    between atoms: C_5  and  C_6
REMARK    5  A    between atoms: C_6  and  C_8
REMARK    6  A    between atoms: C_8  and  O_9
REMARK    7  A    between atoms: C_22  and  C_23
REMARK    8  A    between atoms: C_29  and  C_30
REMARK                            x       y       z     vdW  Elec       q    Type
REMARK                         _______ _______ _______ _____ _____    ______ ____
ROOT
ATOM      1  C   UNL     1      10.413  15.844  18.058  0.00  0.00    +0.000 C 
ATOM      2  C   UNL     1       8.971  15.702  17.529  0.00  0.00    +0.000 C 
ATOM      3  C   UNL     1       8.073  15.785  18.704  0.00  0.00    +0.000 C 
ATOM      4  C   UNL     1       8.982  15.909  19.909  0.00  0.00    +0.000 C 
ATOM      5  C   UNL     1       8.844  15.087  21.142  0.00  0.00    +0.000 C 
ATOM      6  C   UNL     1       7.862  13.958  21.013  0.00  0.00    +0.000 C 
ATOM      7  C   UNL     1       8.339  12.898  21.968  0.00  0.00    +0.000 C 
ATOM      8  C   UNL     1       8.408  13.411  23.407  0.00  0.00    +0.000 C 
ATOM      9  C   UNL     1       7.859  12.538  24.293  0.00  0.00    +0.000 C 
ATOM     10  C   UNL     1       6.367  12.562  24.044  0.00  0.00    +0.000 C 
ATOM     11  O   UNL     1       5.688  11.553  23.930  0.00  0.00    +0.000 OA
ATOM     12  C   UNL     1       5.790  13.936  24.029  0.00  0.00    +0.000 C 
ATOM     13  C   UNL     1       6.601  15.014  23.945  0.00  0.00    +0.000 C 
ATOM     14  C   UNL     1       8.162  14.974  23.656  0.00  0.00    +0.000 C 
ATOM     15  C   UNL     1       8.809  15.370  24.988  0.00  0.00    +0.000 C 
ATOM     16  C   UNL     1       8.624  15.999  22.372  0.00  0.00    +0.000 C 
ATOM     17 CL   UNL     1       7.190  17.177  22.098  0.00  0.00    +0.000 Cl
ATOM     18  C   UNL     1       9.909  17.026  22.285  0.00  0.00    +0.000 C 
ATOM     19 CL   UNL     1      11.328  16.365  23.161  0.00  0.00    +0.000 Cl
ATOM     20  C   UNL     1      10.397  17.546  20.677  0.00  0.00    +0.000 C 
ATOM     21  C   UNL     1      10.450  16.284  19.620  0.00  0.00    +0.000 C 
ATOM     22  C   UNL     1      11.844  15.743  20.055  0.00  0.00    +0.000 C 
ENDROOT
BRANCH   1  23
ATOM     23  C   UNL     1      10.973  14.375  17.604  0.00  0.00    +0.000 C 
ATOM     24  O   UNL     1      12.104  14.299  17.092  0.00  0.00    +0.000 OA
BRANCH  23  25
ATOM     25  C   UNL     1      10.074  13.106  17.652  0.00  0.00    +0.000 C 
BRANCH  25  26
ATOM     26  O   UNL     1      10.674  11.830  17.990  0.00  0.00    +0.000 OA
BRANCH  26  28
ATOM     27  C   UNL     1       9.396  10.390  19.415  0.00  0.00    +0.000 C 
ATOM     28  C   UNL     1      10.513  11.395  19.277  0.00  0.00    +0.000 C 
ATOM     29  O   UNL     1      11.237  11.733  20.189  0.00  0.00    +0.000 OA
ENDBRANCH  26  28
ENDBRANCH  25  26
ENDBRANCH  23  25
ENDBRANCH   1  23
BRANCH   1  30
ATOM     30  O   UNL     1      11.059  16.834  17.260  0.00  0.00    +0.000 OA
ATOM     31  H   UNL     1      12.008  16.797  17.506  0.00  0.00    +0.000 HD
ENDBRANCH   1  30
TORSDOF 5
ENDMDL
MODEL 6
REMARK VINA RESULT:      -5.9      9.616     12.715
REMARK  Name = 
REMARK  8 active torsions:
REMARK  status: ('A' for Active; 'I' for Inactive)
REMARK    1  A    between atoms: C_1  and  C_2
REMARK    2  A    between atoms: C_2  and  O_4
REMARK    3  A    between atoms: O_4  and  C_5
REMARK    4  A    between atoms: C_5  and  C_6
REMARK    5  A    between atoms: C_6  and  C_8
REMARK    6  A    between atoms: C_8  and  O_9
REMARK    7  A    between atoms: C_22  and  C_23
REMARK    8  A    between atoms: C_29  and  C_30
REMARK                            x       y       z     vdW  Elec       q    Type
REMARK                         _______ _______ _______ _____ _____    ______ ____
ROOT
ATOM      1  C   UNL     1      -0.403  11.537  18.552  0.00  0.00    +0.000 C 
ATOM      2  C   UNL     1      -0.630  12.934  17.938  0.00  0.00    +0.000 C 
ATOM      3  C   UNL     1      -1.166  13.795  19.018  0.00  0.00    +0.000 C 
ATOM      4  C   UNL     1      -1.310  12.896  20.229  0.00  0.00    +0.000 C 
ATOM      5  C   UNL     1      -2.536  12.826  21.070  0.00  0.00    +0.000 C 
ATOM      6  C   UNL     1      -3.713  13.559  20.492  0.00  0.00    +0.000 C 
ATOM      7  C   UNL     1      -4.929  12.846  21.017  0.00  0.00    +0.000 C 
ATOM      8  C   UNL     1      -4.975  12.843  22.546  0.00  0.00    +0.000 C 
ATOM      9  C   UNL     1      -6.203  13.175  23.026  0.00  0.00    +0.000 C 
ATOM     10  C   UNL     1      -6.391  14.646  22.730  0.00  0.00    +0.000 C 
ATOM     11  O   UNL     1      -7.403  15.106  22.224  0.00  0.00    +0.000 OA
ATOM     12  C   UNL     1      -5.254  15.493  23.188  0.00  0.00    +0.000 C 
ATOM     13  C   UNL     1      -4.080  14.924  23.541  0.00  0.00    +0.000 C 
ATOM     14  C   UNL     1      -3.696  13.398  23.334  0.00  0.00    +0.000 C 
ATOM     15  C   UNL     1      -3.692  12.808  24.749  0.00  0.00    +0.000 C 
ATOM     16  C   UNL     1      -2.202  13.193  22.535  0.00  0.00    +0.000 C 
ATOM     17 CL   UNL     1      -1.320  14.846  22.638  0.00  0.00    +0.000 Cl
ATOM     18  C   UNL     1      -0.977  12.150  22.890  0.00  0.00    +0.000 C 
ATOM     19 CL   UNL     1      -1.611  10.601  23.535  0.00  0.00    +0.000 Cl
ATOM     20  C   UNL     1       0.182  11.827  21.607  0.00  0.00    +0.000 C 
ATOM     21  C   UNL     1      -0.567  11.546  20.168  0.00  0.00    +0.000 C 
ATOM     22  C   UNL     1      -0.937  10.059  20.443  0.00  0.00    +0.000 C 
ENDROOT
BRANCH   1  23
ATOM     23  C   UNL     1      -1.459  10.700  17.624  0.00  0.00    +0.000 C 
ATOM     24  O   UNL     1      -1.084   9.632  17.108  0.00  0.00    +0.000 OA
BRANCH  23  25
ATOM     25  C   UNL     1      -2.853  11.279  17.245  0.00  0.00    +0.000 C 
BRANCH  25  26
ATOM     26  O   UNL     1      -3.988  11.001  18.103  0.00  0.00    +0.000 OA
BRANCH  26  28
ATOM     27  C   UNL     1      -6.354  10.746  18.377  0.00  0.00    +0.000 C 
ATOM     28  C   UNL     1      -5.212  11.426  17.663  0.00  0.00    +0.000 C 
ATOM     29  O   UNL     1      -5.354  12.302  16.837  0.00  0.00    +0.000 OA
ENDBRANCH  26  28
ENDBRANCH  25  26
ENDBRANCH  23  25
ENDBRANCH   1  23
BRANCH   1  30
ATOM     30  O   UNL     1       0.918  11.132  18.201  0.00  0.00    +0.000 OA
ATOM     31  H   UNL     1       1.515  11.612  18.814  0.00  0.00    +0.000 HD
ENDBRANCH   1  30
TORSDOF 5
ENDMDL
MODEL 7
REMARK VINA RESULT:      -5.8      4.192      6.898
REMARK  Name = 
REMARK  8 active torsions:
REMARK  status: ('A' for Active; 'I' for Inactive)
REMARK    1  A    between atoms: C_1  and  C_2
REMARK    2  A    between atoms: C_2  and  O_4
REMARK    3  A    between atoms: O_4  and  C_5
REMARK    4  A    between atoms: C_5  and  C_6
REMARK    5  A    between atoms: C_6  and  C_8
REMARK    6  A    between atoms: C_8  and  O_9
REMARK    7  A    between atoms: C_22  and  C_23
REMARK    8  A    between atoms: C_29  and  C_30
REMARK                            x       y       z     vdW  Elec       q    Type
REMARK                         _______ _______ _______ _____ _____    ______ ____
ROOT
ATOM      1  C   UNL     1       9.892  12.088  18.633  0.00  0.00    +0.000 C 
ATOM      2  C   UNL     1       9.973  13.119  17.488  0.00  0.00    +0.000 C 
ATOM      3  C   UNL     1       9.581  14.428  18.060  0.00  0.00    +0.000 C 
ATOM      4  C   UNL     1       9.215  14.153  19.504  0.00  0.00    +0.000 C 
ATOM      5  C   UNL     1       7.969  14.646  20.152  0.00  0.00    +0.000 C 
ATOM      6  C   UNL     1       6.985  15.257  19.195  0.00  0.00    +0.000 C 
ATOM      7  C   UNL     1       5.632  15.043  19.817  0.00  0.00    +0.000 C 
ATOM      8  C   UNL     1       5.530  15.685  21.201  0.00  0.00    +0.000 C 
ATOM      9  C   UNL     1       4.376  16.387  21.361  0.00  0.00    +0.000 C 
ATOM     10  C   UNL     1       4.499  17.610  20.479  0.00  0.00    +0.000 C 
ATOM     11  O   UNL     1       3.619  17.979  19.716  0.00  0.00    +0.000 OA
ATOM     12  C   UNL     1       5.764  18.367  20.687  0.00  0.00    +0.000 C 
ATOM     13  C   UNL     1       6.786  17.809  21.374  0.00  0.00    +0.000 C 
ATOM     14  C   UNL     1       6.864  16.295  21.844  0.00  0.00    +0.000 C 
ATOM     15  C   UNL     1       6.696  16.356  23.367  0.00  0.00    +0.000 C 
ATOM     16  C   UNL     1       8.315  15.529  21.375  0.00  0.00    +0.000 C 
ATOM     17 CL   UNL     1       9.506  16.901  20.908  0.00  0.00    +0.000 Cl
ATOM     18  C   UNL     1       9.292  14.540  22.260  0.00  0.00    +0.000 C 
ATOM     19 CL   UNL     1       8.335  13.530  23.393  0.00  0.00    +0.000 Cl
ATOM     20  C   UNL     1      10.409  13.522  21.359  0.00  0.00    +0.000 C 
ATOM     21  C   UNL     1       9.673  12.797  20.077  0.00  0.00    +0.000 C 
ATOM     22  C   UNL     1       9.002  11.645  20.882  0.00  0.00    +0.000 C 
ENDROOT
BRANCH   1  23
ATOM     23  C   UNL     1       8.725  11.131  18.002  0.00  0.00    +0.000 C 
ATOM     24  O   UNL     1       7.765  11.665  17.417  0.00  0.00    +0.000 OA
BRANCH  23  25
ATOM     25  C   UNL     1       8.704   9.595  18.250  0.00  0.00    +0.000 C 
BRANCH  25  26
ATOM     26  O   UNL     1       7.566   8.822  17.790  0.00  0.00    +0.000 OA
BRANCH  26  28
ATOM     27  C   UNL     1       8.022   6.727  18.857  0.00  0.00    +0.000 C 
ATOM     28  C   UNL     1       7.772   7.487  17.578  0.00  0.00    +0.000 C 
ATOM     29  O   UNL     1       7.695   6.967  16.486  0.00  0.00    +0.000 OA
ENDBRANCH  26  28
ENDBRANCH  25  26
ENDBRANCH  23  25
ENDBRANCH   1  23
BRANCH   1  30
ATOM     30  O   UNL     1      11.117  11.359  18.632  0.00  0.00    +0.000 OA
ATOM     31  H   UNL     1      11.287  11.126  17.694  0.00  0.00    +0.000 HD
ENDBRANCH   1  30
TORSDOF 5
ENDMDL
MODEL 8
REMARK VINA RESULT:      -5.8      9.798     12.643
REMARK  Name = 
REMARK  8 active torsions:
REMARK  status: ('A' for Active; 'I' for Inactive)
REMARK    1  A    between atoms: C_1  and  C_2
REMARK    2  A    between atoms: C_2  and  O_4
REMARK    3  A    between atoms: O_4  and  C_5
REMARK    4  A    between atoms: C_5  and  C_6
REMARK    5  A    between atoms: C_6  and  C_8
REMARK    6  A    between atoms: C_8  and  O_9
REMARK    7  A    between atoms: C_22  and  C_23
REMARK    8  A    between atoms: C_29  and  C_30
REMARK                            x       y       z     vdW  Elec       q    Type
REMARK                         _______ _______ _______ _____ _____    ______ ____
ROOT
ATOM      1  C   UNL     1      -0.934  15.151  22.706  0.00  0.00    +0.000 C 
ATOM      2  C   UNL     1      -1.157  16.148  21.549  0.00  0.00    +0.000 C 
ATOM      3  C   UNL     1      -2.607  16.136  21.247  0.00  0.00    +0.000 C 
ATOM      4  C   UNL     1      -3.212  15.100  22.171  0.00  0.00    +0.000 C 
ATOM      5  C   UNL     1      -4.148  14.032  21.722  0.00  0.00    +0.000 C 
ATOM      6  C   UNL     1      -4.275  13.922  20.230  0.00  0.00    +0.000 C 
ATOM      7  C   UNL     1      -4.624  12.484  19.960  0.00  0.00    +0.000 C 
ATOM      8  C   UNL     1      -5.920  12.069  20.658  0.00  0.00    +0.000 C 
ATOM      9  C   UNL     1      -6.751  11.375  19.834  0.00  0.00    +0.000 C 
ATOM     10  C   UNL     1      -7.270  12.371  18.820  0.00  0.00    +0.000 C 
ATOM     11  O   UNL     1      -7.288  12.158  17.618  0.00  0.00    +0.000 OA
ATOM     12  C   UNL     1      -7.833  13.606  19.436  0.00  0.00    +0.000 C 
ATOM     13  C   UNL     1      -7.597  13.885  20.737  0.00  0.00    +0.000 C 
ATOM     14  C   UNL     1      -6.586  13.107  21.680  0.00  0.00    +0.000 C 
ATOM     15  C   UNL     1      -7.484  12.336  22.654  0.00  0.00    +0.000 C 
ATOM     16  C   UNL     1      -5.492  14.145  22.479  0.00  0.00    +0.000 C 
ATOM     17 CL   UNL     1      -6.209  15.873  22.337  0.00  0.00    +0.000 Cl
ATOM     18  C   UNL     1      -5.013  14.122  24.056  0.00  0.00    +0.000 C 
ATOM     19 CL   UNL     1      -4.924  12.443  24.681  0.00  0.00    +0.000 Cl
ATOM     20  C   UNL     1      -3.525  14.977  24.441  0.00  0.00    +0.000 C 
ATOM     21  C   UNL     1      -2.334  14.645  23.354  0.00  0.00    +0.000 C 
ATOM     22  C   UNL     1      -1.909  13.277  23.964  0.00  0.00    +0.000 C 
ENDROOT
BRANCH   1  23
ATOM     23  C   UNL     1       0.037  14.095  21.919  0.00  0.00    +0.000 C 
ATOM     24  O   UNL     1       1.259  14.125  22.147  0.00  0.00    +0.000 OA
BRANCH  23  25
ATOM     25  C   UNL     1      -0.503  13.172  20.790  0.00  0.00    +0.000 C 
BRANCH  25  26
ATOM     26  O   UNL     1      -1.024  11.864  21.137  0.00  0.00    +0.000 OA
BRANCH  26  28
ATOM     27  C   UNL     1       0.665  10.294  20.488  0.00  0.00    +0.000 C 
ATOM     28  C   UNL     1      -0.122  10.945  21.599  0.00  0.00    +0.000 C 
ATOM     29  O   UNL     1       0.065  10.730  22.777  0.00  0.00    +0.000 OA
ENDBRANCH  26  28
ENDBRANCH  25  26
ENDBRANCH  23  25
ENDBRANCH   1  23
BRANCH   1  30
ATOM     30  O   UNL     1      -0.156  15.821  23.695  0.00  0.00    +0.000 OA
ATOM     31  H   UNL     1      -0.802  16.213  24.321  0.00  0.00    +0.000 HD
ENDBRANCH   1  30
TORSDOF 5
ENDMDL
MODEL 9
REMARK VINA RESULT:      -5.7      9.782     12.019
REMARK  Name = 
REMARK  8 active torsions:
REMARK  status: ('A' for Active; 'I' for Inactive)
REMARK    1  A    between atoms: C_1  and  C_2
REMARK    2  A    between atoms: C_2  and  O_4
REMARK    3  A    between atoms: O_4  and  C_5
REMARK    4  A    between atoms: C_5  and  C_6
REMARK    5  A    between atoms: C_6  and  C_8
REMARK    6  A    between atoms: C_8  and  O_9
REMARK    7  A    between atoms: C_22  and  C_23
REMARK    8  A    between atoms: C_29  and  C_30
REMARK                            x       y       z     vdW  Elec       q    Type
REMARK                         _______ _______ _______ _____ _____    ______ ____
ROOT
ATOM      1  C   UNL     1      -6.152  13.395  23.748  0.00  0.00    +0.000 C 
ATOM      2  C   UNL     1      -5.342  12.392  24.596  0.00  0.00    +0.000 C 
ATOM      3  C   UNL     1      -3.911  12.642  24.305  0.00  0.00    +0.000 C 
ATOM      4  C   UNL     1      -3.889  13.733  23.254  0.00  0.00    +0.000 C 
ATOM      5  C   UNL     1      -3.079  13.667  22.007  0.00  0.00    +0.000 C 
ATOM      6  C   UNL     1      -2.450  12.326  21.759  0.00  0.00    +0.000 C 
ATOM      7  C   UNL     1      -2.311  12.215  20.265  0.00  0.00    +0.000 C 
ATOM      8  C   UNL     1      -1.457  13.343  19.684  0.00  0.00    +0.000 C 
ATOM      9  C   UNL     1      -0.536  12.887  18.793  0.00  0.00    +0.000 C 
ATOM     10  C   UNL     1       0.493  12.125  19.599  0.00  0.00    +0.000 C 
ATOM     11  O   UNL     1       0.898  11.014  19.292  0.00  0.00    +0.000 OA
ATOM     12  C   UNL     1       1.024  12.893  20.760  0.00  0.00    +0.000 C 
ATOM     13  C   UNL     1       0.397  14.015  21.178  0.00  0.00    +0.000 C 
ATOM     14  C   UNL     1      -1.015  14.528  20.666  0.00  0.00    +0.000 C 
ATOM     15  C   UNL     1      -0.691  15.770  19.827  0.00  0.00    +0.000 C 
ATOM     16  C   UNL     1      -2.100  14.863  21.940  0.00  0.00    +0.000 C 
ATOM     17 CL   UNL     1      -1.061  14.979  23.498  0.00  0.00    +0.000 Cl
ATOM     18  C   UNL     1      -3.106  16.154  22.125  0.00  0.00    +0.000 C 
ATOM     19 CL   UNL     1      -3.735  16.718  20.542  0.00  0.00    +0.000 Cl
ATOM     20  C   UNL     1      -4.439  15.960  23.256  0.00  0.00    +0.000 C 
ATOM     21  C   UNL     1      -5.203  14.515  23.055  0.00  0.00    +0.000 C 
ATOM     22  C   UNL     1      -6.073  14.939  21.836  0.00  0.00    +0.000 C 
ENDROOT
BRANCH   1  23
ATOM     23  C   UNL     1      -6.961  12.316  22.820  0.00  0.00    +0.000 C 
ATOM     24  O   UNL     1      -7.801  11.576  23.362  0.00  0.00    +0.000 OA
BRANCH  23  25
ATOM     25  C   UNL     1      -6.597  12.087  21.325  0.00  0.00    +0.000 C 
BRANCH  25  26
ATOM     26  O   UNL     1      -7.656  11.790  20.380  0.00  0.00    +0.000 OA
BRANCH  26  28
ATOM     27  C   UNL     1      -6.578  10.951  18.413  0.00  0.00    +0.000 C 
ATOM     28  C   UNL     1      -7.394  12.042  19.062  0.00  0.00    +0.000 C 
ATOM     29  O   UNL     1      -7.830  13.005  18.468  0.00  0.00    +0.000 OA
ENDBRANCH  26  28
ENDBRANCH  25  26
ENDBRANCH  23  25
ENDBRANCH   1  23
BRANCH   1  30
ATOM     30  O   UNL     1      -7.088  14.025  24.620  0.00  0.00    +0.000 OA
ATOM     31  H   UNL     1      -7.194  13.415  25.381  0.00  0.00    +0.000 HD
ENDBRANCH   1  30
TORSDOF 5
ENDMDL
