MODEL 1
REMARK VINA RESULT:      -7.9      0.000      0.000
REMARK  Name = 
REMARK  7 active torsions:
REMARK  status: ('A' for Active; 'I' for Inactive)
REMARK    1  A    between atoms: C_2  and  C_5
REMARK    2  A    between atoms: N_3  and  O_4
REMARK    3  A    between atoms: C_8  and  C_9
REMARK    4  A    between atoms: C_12  and  C_13
REMARK    5  A    between atoms: C_13  and  N_14
REMARK    6  A    between atoms: N_14  and  C_15
REMARK    7  A    between atoms: C_15  and  C_16
REMARK                            x       y       z     vdW  Elec       q    Type
REMARK                         _______ _______ _______ _____ _____    ______ ____
ROOT
ATOM      1  C   UNL     1       2.225   7.861  18.833  0.00  0.00    +0.000 A 
ATOM      2  C   UNL     1       2.126   8.848  17.871  0.00  0.00    +0.000 A 
ATOM      3  C   UNL     1       1.559  10.069  18.213  0.00  0.00    +0.000 A 
ATOM      4  C   UNL     1       1.060  10.281  19.499  0.00  0.00    +0.000 A 
ATOM      5  C   UNL     1       1.175   9.215  20.387  0.00  0.00    +0.000 A 
ATOM      6  N   UNL     1       1.727   8.006  20.087  0.00  0.00    +0.000 NA
ENDROOT
BRANCH   1  10
ATOM      7  C   UNL     1       3.876   4.306  18.640  0.00  0.00    +0.000 A 
ATOM      8  C   UNL     1       4.390   5.051  17.602  0.00  0.00    +0.000 A 
ATOM      9  C   UNL     1       3.883   6.378  17.575  0.00  0.00    +0.000 A 
ATOM     10  C   UNL     1       2.986   6.628  18.579  0.00  0.00    +0.000 A 
ATOM     11  S   UNL     1       2.756   5.220  19.552  0.00  0.00    +0.000 S 
BRANCH   7  13
ATOM     12  O   UNL     1       4.991   2.641  19.891  0.00  0.00    +0.000 OA
ATOM     13  C   UNL     1       4.244   2.938  18.951  0.00  0.00    +0.000 C 
ATOM     14  N   UNL     1       3.739   1.938  18.150  0.00  0.00    +0.000 N 
ATOM     15  H   UNL     1       3.442   2.119  17.197  0.00  0.00    +0.000 HD
BRANCH  14  16
ATOM     16  O   UNL     1       4.196   0.629  18.441  0.00  0.00    +0.000 OA
ATOM     17  H   UNL     1       5.101   0.798  18.790  0.00  0.00    +0.000 HD
ENDBRANCH  14  16
ENDBRANCH   7  13
ENDBRANCH   1  10
BRANCH   4  18
ATOM     18  C   UNL     1       0.455  11.602  19.929  0.00  0.00    +0.000 C 
BRANCH  18  19
ATOM     19  N   UNL     1      -0.642  12.009  19.050  0.00  0.00    +0.000 NA
ATOM     20  H   UNL     1      -0.355  11.876  18.081  0.00  0.00    +0.000 HD
BRANCH  19  21
ATOM     21  C   UNL     1      -1.865  11.234  19.270  0.00  0.00    +0.000 C 
BRANCH  21  22
ATOM     22  C   UNL     1      -2.477  10.859  17.934  0.00  0.00    +0.000 A 
ATOM     23  C   UNL     1      -1.848   9.926  17.092  0.00  0.00    +0.000 A 
ATOM     24  C   UNL     1      -2.369   9.647  15.825  0.00  0.00    +0.000 A 
ATOM     25  C   UNL     1      -3.524  10.295  15.394  0.00  0.00    +0.000 A 
ATOM     26 CL   UNL     1      -4.151   9.975  13.824  0.00  0.00    +0.000 Cl
ATOM     27  C   UNL     1      -4.169  11.211  16.222  0.00  0.00    +0.000 A 
ATOM     28  C   UNL     1      -3.644  11.495  17.486  0.00  0.00    +0.000 A 
ENDBRANCH  21  22
ENDBRANCH  19  21
ENDBRANCH  18  19
ENDBRANCH   4  18
TORSDOF 7
ENDMDL
MODEL 2
REMARK VINA RESULT:      -7.4      2.015      2.158
REMARK  Name = 
REMARK  7 active torsions:
REMARK  status: ('A' for Active; 'I' for Inactive)
REMARK    1  A    between atoms: C_2  and  C_5
REMARK    2  A    between atoms: N_3  and  O_4
REMARK    3  A    between atoms: C_8  and  C_9
REMARK    4  A    between atoms: C_12  and  C_13
REMARK    5  A    between atoms: C_13  and  N_14
REMARK    6  A    between atoms: N_14  and  C_15
REMARK    7  A    between atoms: C_15  and  C_16
REMARK                            x       y       z     vdW  Elec       q    Type
REMARK                         _______ _______ _______ _____ _____    ______ ____
ROOT
ATOM      1  C   UNL     1       2.553   7.544  18.597  0.00  0.00    +0.000 A 
ATOM      2  C   UNL     1       2.248   8.605  17.767  0.00  0.00    +0.000 A 
ATOM      3  C   UNL     1       1.528   9.677  18.279  0.00  0.00    +0.000 A 
ATOM      4  C   UNL     1       1.083   9.662  19.602  0.00  0.00    +0.000 A 
ATOM      5  C   UNL     1       1.411   8.533  20.348  0.00  0.00    +0.000 A 
ATOM      6  N   UNL     1       2.118   7.467  19.879  0.00  0.00    +0.000 NA
ENDROOT
BRANCH   1  10
ATOM      7  C   UNL     1       5.202   5.150  16.971  0.00  0.00    +0.000 A 
ATOM      8  C   UNL     1       4.727   4.522  18.101  0.00  0.00    +0.000 A 
ATOM      9  C   UNL     1       3.735   5.284  18.775  0.00  0.00    +0.000 A 
ATOM     10  C   UNL     1       3.472   6.481  18.162  0.00  0.00    +0.000 A 
ATOM     11  S   UNL     1       4.461   6.674  16.759  0.00  0.00    +0.000 S 
BRANCH   7  13
ATOM     12  O   UNL     1       7.395   4.603  16.282  0.00  0.00    +0.000 OA
ATOM     13  C   UNL     1       6.180   4.594  16.054  0.00  0.00    +0.000 C 
ATOM     14  N   UNL     1       5.719   4.044  14.878  0.00  0.00    +0.000 N 
ATOM     15  H   UNL     1       4.829   4.318  14.476  0.00  0.00    +0.000 HD
BRANCH  14  16
ATOM     16  O   UNL     1       6.717   3.594  13.979  0.00  0.00    +0.000 OA
ATOM     17  H   UNL     1       7.036   2.772  14.417  0.00  0.00    +0.000 HD
ENDBRANCH  14  16
ENDBRANCH   7  13
ENDBRANCH   1  10
BRANCH   4  18
ATOM     18  C   UNL     1       0.316  10.815  20.215  0.00  0.00    +0.000 C 
BRANCH  18  19
ATOM     19  N   UNL     1      -0.459  11.547  19.212  0.00  0.00    +0.000 NA
ATOM     20  H   UNL     1      -0.181  11.229  18.285  0.00  0.00    +0.000 HD
BRANCH  19  21
ATOM     21  C   UNL     1      -1.902  11.344  19.347  0.00  0.00    +0.000 C 
BRANCH  21  22
ATOM     22  C   UNL     1      -2.487  10.943  18.006  0.00  0.00    +0.000 A 
ATOM     23  C   UNL     1      -1.832  10.010  17.185  0.00  0.00    +0.000 A 
ATOM     24  C   UNL     1      -2.329   9.708  15.914  0.00  0.00    +0.000 A 
ATOM     25  C   UNL     1      -3.486  10.335  15.457  0.00  0.00    +0.000 A 
ATOM     26 CL   UNL     1      -4.084   9.987  13.882  0.00  0.00    +0.000 Cl
ATOM     27  C   UNL     1      -4.157  11.250  16.264  0.00  0.00    +0.000 A 
ATOM     28  C   UNL     1      -3.656  11.558  17.532  0.00  0.00    +0.000 A 
ENDBRANCH  21  22
ENDBRANCH  19  21
ENDBRANCH  18  19
ENDBRANCH   4  18
TORSDOF 7
ENDMDL
MODEL 3
REMARK VINA RESULT:      -7.3      2.745      3.360
REMARK  Name = 
REMARK  7 active torsions:
REMARK  status: ('A' for Active; 'I' for Inactive)
REMARK    1  A    between atoms: C_2  and  C_5
REMARK    2  A    between atoms: N_3  and  O_4
REMARK    3  A    between atoms: C_8  and  C_9
REMARK    4  A    between atoms: C_12  and  C_13
REMARK    5  A    between atoms: C_13  and  N_14
REMARK    6  A    between atoms: N_14  and  C_15
REMARK    7  A    between atoms: C_15  and  C_16
REMARK                            x       y       z     vdW  Elec       q    Type
REMARK                         _______ _______ _______ _____ _____    ______ ____
ROOT
ATOM      1  C   UNL     1       3.013   6.368  18.352  0.00  0.00    +0.000 A 
ATOM      2  C   UNL     1       2.697   7.670  18.013  0.00  0.00    +0.000 A 
ATOM      3  C   UNL     1       2.076   8.480  18.954  0.00  0.00    +0.000 A 
ATOM      4  C   UNL     1       1.740   7.974  20.212  0.00  0.00    +0.000 A 
ATOM      5  C   UNL     1       2.070   6.642  20.445  0.00  0.00    +0.000 A 
ATOM      6  N   UNL     1       2.681   5.820  19.547  0.00  0.00    +0.000 NA
ENDROOT
BRANCH   1  10
ATOM      7  C   UNL     1       5.480   4.723  15.783  0.00  0.00    +0.000 A 
ATOM      8  C   UNL     1       4.884   3.700  16.487  0.00  0.00    +0.000 A 
ATOM      9  C   UNL     1       3.944   4.168  17.443  0.00  0.00    +0.000 A 
ATOM     10  C   UNL     1       3.839   5.534  17.466  0.00  0.00    +0.000 A 
ATOM     11  S   UNL     1       4.913   6.244  16.315  0.00  0.00    +0.000 S 
BRANCH   7  13
ATOM     12  O   UNL     1       7.463   5.240  14.606  0.00  0.00    +0.000 OA
ATOM     13  C   UNL     1       6.442   4.550  14.709  0.00  0.00    +0.000 C 
ATOM     14  N   UNL     1       6.186   3.578  13.768  0.00  0.00    +0.000 N 
ATOM     15  H   UNL     1       5.244   3.248  13.586  0.00  0.00    +0.000 HD
BRANCH  14  16
ATOM     16  O   UNL     1       7.108   3.508  12.693  0.00  0.00    +0.000 OA
ATOM     17  H   UNL     1       6.598   3.913  11.955  0.00  0.00    +0.000 HD
ENDBRANCH  14  16
ENDBRANCH   7  13
ENDBRANCH   1  10
BRANCH   4  18
ATOM     18  C   UNL     1       1.085   8.823  21.281  0.00  0.00    +0.000 C 
BRANCH  18  19
ATOM     19  N   UNL     1      -0.234   9.302  20.865  0.00  0.00    +0.000 NA
ATOM     20  H   UNL     1      -0.863   9.271  21.666  0.00  0.00    +0.000 HD
BRANCH  19  21
ATOM     21  C   UNL     1      -0.208  10.676  20.361  0.00  0.00    +0.000 C 
BRANCH  21  22
ATOM     22  C   UNL     1      -1.172  10.810  19.197  0.00  0.00    +0.000 A 
ATOM     23  C   UNL     1      -2.299  11.645  19.289  0.00  0.00    +0.000 A 
ATOM     24  C   UNL     1      -3.230  11.699  18.248  0.00  0.00    +0.000 A 
ATOM     25  C   UNL     1      -3.040  10.922  17.108  0.00  0.00    +0.000 A 
ATOM     26 CL   UNL     1      -4.200  10.965  15.838  0.00  0.00    +0.000 Cl
ATOM     27  C   UNL     1      -1.921  10.101  16.994  0.00  0.00    +0.000 A 
ATOM     28  C   UNL     1      -0.992  10.041  18.038  0.00  0.00    +0.000 A 
ENDBRANCH  21  22
ENDBRANCH  19  21
ENDBRANCH  18  19
ENDBRANCH   4  18
TORSDOF 7
ENDMDL
MODEL 4
REMARK VINA RESULT:      -7.3      0.979      1.378
REMARK  Name = 
REMARK  7 active torsions:
REMARK  status: ('A' for Active; 'I' for Inactive)
REMARK    1  A    between atoms: C_2  and  C_5
REMARK    2  A    between atoms: N_3  and  O_4
REMARK    3  A    between atoms: C_8  and  C_9
REMARK    4  A    between atoms: C_12  and  C_13
REMARK    5  A    between atoms: C_13  and  N_14
REMARK    6  A    between atoms: N_14  and  C_15
REMARK    7  A    between atoms: C_15  and  C_16
REMARK                            x       y       z     vdW  Elec       q    Type
REMARK                         _______ _______ _______ _____ _____    ______ ____
ROOT
ATOM      1  C   UNL     1       2.211   7.681  19.177  0.00  0.00    +0.000 A 
ATOM      2  C   UNL     1       1.704   7.755  20.461  0.00  0.00    +0.000 A 
ATOM      3  C   UNL     1       1.001   8.891  20.844  0.00  0.00    +0.000 A 
ATOM      4  C   UNL     1       0.844   9.958  19.957  0.00  0.00    +0.000 A 
ATOM      5  C   UNL     1       1.420   9.801  18.699  0.00  0.00    +0.000 A 
ATOM      6  N   UNL     1       2.113   8.702  18.290  0.00  0.00    +0.000 NA
ENDROOT
BRANCH   1  10
ATOM      7  C   UNL     1       3.255   4.047  18.131  0.00  0.00    +0.000 A 
ATOM      8  C   UNL     1       4.075   4.918  17.448  0.00  0.00    +0.000 A 
ATOM      9  C   UNL     1       3.810   6.278  17.760  0.00  0.00    +0.000 A 
ATOM     10  C   UNL     1       2.791   6.431  18.664  0.00  0.00    +0.000 A 
ATOM     11  S   UNL     1       2.149   4.894  19.119  0.00  0.00    +0.000 S 
BRANCH   7  13
ATOM     12  O   UNL     1       2.466   1.914  17.489  0.00  0.00    +0.000 OA
ATOM     13  C   UNL     1       3.326   2.599  18.056  0.00  0.00    +0.000 C 
ATOM     14  N   UNL     1       4.398   1.976  18.655  0.00  0.00    +0.000 N 
ATOM     15  H   UNL     1       4.912   2.413  19.412  0.00  0.00    +0.000 HD
BRANCH  14  16
ATOM     16  O   UNL     1       4.376   0.559  18.630  0.00  0.00    +0.000 OA
ATOM     17  H   UNL     1       3.540   0.356  19.109  0.00  0.00    +0.000 HD
ENDBRANCH  14  16
ENDBRANCH   7  13
ENDBRANCH   1  10
BRANCH   4  18
ATOM     18  C   UNL     1       0.066  11.206  20.317  0.00  0.00    +0.000 C 
BRANCH  18  19
ATOM     19  N   UNL     1      -1.379  10.973  20.287  0.00  0.00    +0.000 NA
ATOM     20  H   UNL     1      -1.732  10.970  21.243  0.00  0.00    +0.000 HD
BRANCH  19  21
ATOM     21  C   UNL     1      -2.106  12.002  19.540  0.00  0.00    +0.000 C 
BRANCH  21  22
ATOM     22  C   UNL     1      -2.629  11.414  18.243  0.00  0.00    +0.000 A 
ATOM     23  C   UNL     1      -1.836  10.544  17.475  0.00  0.00    +0.000 A 
ATOM     24  C   UNL     1      -2.289  10.074  16.239  0.00  0.00    +0.000 A 
ATOM     25  C   UNL     1      -3.538  10.466  15.765  0.00  0.00    +0.000 A 
ATOM     26 CL   UNL     1      -4.085   9.911  14.231  0.00  0.00    +0.000 Cl
ATOM     27  C   UNL     1      -4.343  11.315  16.520  0.00  0.00    +0.000 A 
ATOM     28  C   UNL     1      -3.888  11.791  17.753  0.00  0.00    +0.000 A 
ENDBRANCH  21  22
ENDBRANCH  19  21
ENDBRANCH  18  19
ENDBRANCH   4  18
TORSDOF 7
ENDMDL
MODEL 5
REMARK VINA RESULT:      -7.2      2.418      2.865
REMARK  Name = 
REMARK  7 active torsions:
REMARK  status: ('A' for Active; 'I' for Inactive)
REMARK    1  A    between atoms: C_2  and  C_5
REMARK    2  A    between atoms: N_3  and  O_4
REMARK    3  A    between atoms: C_8  and  C_9
REMARK    4  A    between atoms: C_12  and  C_13
REMARK    5  A    between atoms: C_13  and  N_14
REMARK    6  A    between atoms: N_14  and  C_15
REMARK    7  A    between atoms: C_15  and  C_16
REMARK                            x       y       z     vdW  Elec       q    Type
REMARK                         _______ _______ _______ _____ _____    ______ ____
ROOT
ATOM      1  C   UNL     1       2.930   7.449  18.162  0.00  0.00    +0.000 A 
ATOM      2  C   UNL     1       2.356   7.276  19.407  0.00  0.00    +0.000 A 
ATOM      3  C   UNL     1       1.532   8.272  19.915  0.00  0.00    +0.000 A 
ATOM      4  C   UNL     1       1.319   9.449  19.194  0.00  0.00    +0.000 A 
ATOM      5  C   UNL     1       1.968   9.543  17.966  0.00  0.00    +0.000 A 
ATOM      6  N   UNL     1       2.780   8.586  17.437  0.00  0.00    +0.000 NA
ENDROOT
BRANCH   1  10
ATOM      7  C   UNL     1       5.234   5.003  16.137  0.00  0.00    +0.000 A 
ATOM      8  C   UNL     1       4.404   4.228  16.916  0.00  0.00    +0.000 A 
ATOM      9  C   UNL     1       3.497   5.002  17.689  0.00  0.00    +0.000 A 
ATOM     10  C   UNL     1       3.649   6.351  17.500  0.00  0.00    +0.000 A 
ATOM     11  S   UNL     1       4.924   6.666  16.378  0.00  0.00    +0.000 S 
BRANCH   7  13
ATOM     12  O   UNL     1       7.442   4.569  15.416  0.00  0.00    +0.000 OA
ATOM     13  C   UNL     1       6.226   4.494  15.207  0.00  0.00    +0.000 C 
ATOM     14  N   UNL     1       5.776   3.912  14.043  0.00  0.00    +0.000 N 
ATOM     15  H   UNL     1       4.867   4.135  13.653  0.00  0.00    +0.000 HD
BRANCH  14  16
ATOM     16  O   UNL     1       6.783   3.509  13.130  0.00  0.00    +0.000 OA
ATOM     17  H   UNL     1       7.598   3.868  13.549  0.00  0.00    +0.000 HD
ENDBRANCH  14  16
ENDBRANCH   7  13
ENDBRANCH   1  10
BRANCH   4  18
ATOM     18  C   UNL     1       0.410  10.553  19.692  0.00  0.00    +0.000 C 
BRANCH  18  19
ATOM     19  N   UNL     1      -0.995  10.143  19.692  0.00  0.00    +0.000 NA
ATOM     20  H   UNL     1      -1.249   9.841  20.632  0.00  0.00    +0.000 HD
BRANCH  19  21
ATOM     21  C   UNL     1      -1.904  11.222  19.302  0.00  0.00    +0.000 C 
BRANCH  21  22
ATOM     22  C   UNL     1      -2.448  10.951  17.912  0.00  0.00    +0.000 A 
ATOM     23  C   UNL     1      -3.607  11.601  17.454  0.00  0.00    +0.000 A 
ATOM     24  C   UNL     1      -4.154  11.284  16.207  0.00  0.00    +0.000 A 
ATOM     25  C   UNL     1      -3.543  10.320  15.408  0.00  0.00    +0.000 A 
ATOM     26 CL   UNL     1      -4.231   9.909  13.886  0.00  0.00    +0.000 Cl
ATOM     27  C   UNL     1      -2.385   9.679  15.840  0.00  0.00    +0.000 A 
ATOM     28  C   UNL     1      -1.842   9.989  17.090  0.00  0.00    +0.000 A 
ENDBRANCH  21  22
ENDBRANCH  19  21
ENDBRANCH  18  19
ENDBRANCH   4  18
TORSDOF 7
ENDMDL
MODEL 6
REMARK VINA RESULT:      -7.1      2.530      2.810
REMARK  Name = 
REMARK  7 active torsions:
REMARK  status: ('A' for Active; 'I' for Inactive)
REMARK    1  A    between atoms: C_2  and  C_5
REMARK    2  A    between atoms: N_3  and  O_4
REMARK    3  A    between atoms: C_8  and  C_9
REMARK    4  A    between atoms: C_12  and  C_13
REMARK    5  A    between atoms: C_13  and  N_14
REMARK    6  A    between atoms: N_14  and  C_15
REMARK    7  A    between atoms: C_15  and  C_16
REMARK                            x       y       z     vdW  Elec       q    Type
REMARK                         _______ _______ _______ _____ _____    ______ ____
ROOT
ATOM      1  C   UNL     1       2.656   7.330  18.488  0.00  0.00    +0.000 A 
ATOM      2  C   UNL     1       2.179   8.467  17.864  0.00  0.00    +0.000 A 
ATOM      3  C   UNL     1       1.480   9.406  18.613  0.00  0.00    +0.000 A 
ATOM      4  C   UNL     1       1.230   9.184  19.968  0.00  0.00    +0.000 A 
ATOM      5  C   UNL     1       1.722   7.994  20.497  0.00  0.00    +0.000 A 
ATOM      6  N   UNL     1       2.412   7.053  19.793  0.00  0.00    +0.000 NA
ENDROOT
BRANCH   1  10
ATOM      7  C   UNL     1       5.489   5.384  16.596  0.00  0.00    +0.000 A 
ATOM      8  C   UNL     1       4.517   4.466  16.928  0.00  0.00    +0.000 A 
ATOM      9  C   UNL     1       3.415   5.055  17.605  0.00  0.00    +0.000 A 
ATOM     10  C   UNL     1       3.560   6.405  17.790  0.00  0.00    +0.000 A 
ATOM     11  S   UNL     1       5.066   6.947  17.140  0.00  0.00    +0.000 S 
BRANCH   7  13
ATOM     12  O   UNL     1       7.631   4.422  16.333  0.00  0.00    +0.000 OA
ATOM     13  C   UNL     1       6.703   5.087  15.858  0.00  0.00    +0.000 C 
ATOM     14  N   UNL     1       6.814   5.583  14.578  0.00  0.00    +0.000 N 
ATOM     15  H   UNL     1       6.290   6.397  14.276  0.00  0.00    +0.000 HD
BRANCH  14  16
ATOM     16  O   UNL     1       8.051   5.340  13.932  0.00  0.00    +0.000 OA
ATOM     17  H   UNL     1       8.298   6.238  13.612  0.00  0.00    +0.000 HD
ENDBRANCH  14  16
ENDBRANCH   7  13
ENDBRANCH   1  10
BRANCH   4  18
ATOM     18  C   UNL     1       0.496  10.187  20.833  0.00  0.00    +0.000 C 
BRANCH  18  19
ATOM     19  N   UNL     1      -0.949  10.151  20.602  0.00  0.00    +0.000 NA
ATOM     20  H   UNL     1      -1.424  10.070  21.500  0.00  0.00    +0.000 HD
BRANCH  19  21
ATOM     21  C   UNL     1      -1.448  11.352  19.931  0.00  0.00    +0.000 C 
BRANCH  21  22
ATOM     22  C   UNL     1      -1.939  10.992  18.541  0.00  0.00    +0.000 A 
ATOM     23  C   UNL     1      -1.867  11.921  17.489  0.00  0.00    +0.000 A 
ATOM     24  C   UNL     1      -2.398  11.615  16.233  0.00  0.00    +0.000 A 
ATOM     25  C   UNL     1      -3.002  10.378  16.019  0.00  0.00    +0.000 A 
ATOM     26 CL   UNL     1      -3.682  10.011  14.482  0.00  0.00    +0.000 Cl
ATOM     27  C   UNL     1      -3.068   9.440  17.046  0.00  0.00    +0.000 A 
ATOM     28  C   UNL     1      -2.543   9.748  18.305  0.00  0.00    +0.000 A 
ENDBRANCH  21  22
ENDBRANCH  19  21
ENDBRANCH  18  19
ENDBRANCH   4  18
TORSDOF 7
ENDMDL
MODEL 7
REMARK VINA RESULT:      -7.1      2.708      3.097
REMARK  Name = 
REMARK  7 active torsions:
REMARK  status: ('A' for Active; 'I' for Inactive)
REMARK    1  A    between atoms: C_2  and  C_5
REMARK    2  A    between atoms: N_3  and  O_4
REMARK    3  A    between atoms: C_8  and  C_9
REMARK    4  A    between atoms: C_12  and  C_13
REMARK    5  A    between atoms: C_13  and  N_14
REMARK    6  A    between atoms: N_14  and  C_15
REMARK    7  A    between atoms: C_15  and  C_16
REMARK                            x       y       z     vdW  Elec       q    Type
REMARK                         _______ _______ _______ _____ _____    ______ ____
ROOT
ATOM      1  C   UNL     1       2.859   6.779  18.274  0.00  0.00    +0.000 A 
ATOM      2  C   UNL     1       2.472   8.005  17.766  0.00  0.00    +0.000 A 
ATOM      3  C   UNL     1       1.814   8.903  18.597  0.00  0.00    +0.000 A 
ATOM      4  C   UNL     1       1.511   8.554  19.915  0.00  0.00    +0.000 A 
ATOM      5  C   UNL     1       1.912   7.285  20.322  0.00  0.00    +0.000 A 
ATOM      6  N   UNL     1       2.561   6.382  19.536  0.00  0.00    +0.000 NA
ENDROOT
BRANCH   1  10
ATOM      7  C   UNL     1       5.438   4.933  15.965  0.00  0.00    +0.000 A 
ATOM      8  C   UNL     1       4.812   3.971  16.726  0.00  0.00    +0.000 A 
ATOM      9  C   UNL     1       3.830   4.514  17.597  0.00  0.00    +0.000 A 
ATOM     10  C   UNL     1       3.723   5.877  17.499  0.00  0.00    +0.000 A 
ATOM     11  S   UNL     1       4.847   6.491  16.341  0.00  0.00    +0.000 S 
BRANCH   7  13
ATOM     12  O   UNL     1       6.453   3.651  14.259  0.00  0.00    +0.000 OA
ATOM     13  C   UNL     1       6.446   4.674  14.953  0.00  0.00    +0.000 C 
ATOM     14  N   UNL     1       7.436   5.616  14.777  0.00  0.00    +0.000 N 
ATOM     15  H   UNL     1       7.694   6.260  15.517  0.00  0.00    +0.000 HD
BRANCH  14  16
ATOM     16  O   UNL     1       8.444   5.278  13.840  0.00  0.00    +0.000 OA
ATOM     17  H   UNL     1       8.985   4.626  14.343  0.00  0.00    +0.000 HD
ENDBRANCH  14  16
ENDBRANCH   7  13
ENDBRANCH   1  10
BRANCH   4  18
ATOM     18  C   UNL     1       0.817   9.506  20.867  0.00  0.00    +0.000 C 
BRANCH  18  19
ATOM     19  N   UNL     1       0.596  10.819  20.260  0.00  0.00    +0.000 NA
ATOM     20  H   UNL     1       0.733  10.743  19.253  0.00  0.00    +0.000 HD
BRANCH  19  21
ATOM     21  C   UNL     1      -0.753  11.336  20.497  0.00  0.00    +0.000 C 
BRANCH  21  22
ATOM     22  C   UNL     1      -1.607  11.114  19.263  0.00  0.00    +0.000 A 
ATOM     23  C   UNL     1      -1.159  10.288  18.217  0.00  0.00    +0.000 A 
ATOM     24  C   UNL     1      -1.910  10.155  17.045  0.00  0.00    +0.000 A 
ATOM     25  C   UNL     1      -3.114  10.843  16.913  0.00  0.00    +0.000 A 
ATOM     26 CL   UNL     1      -4.025  10.703  15.460  0.00  0.00    +0.000 Cl
ATOM     27  C   UNL     1      -3.579  11.653  17.945  0.00  0.00    +0.000 A 
ATOM     28  C   UNL     1      -2.826  11.792  19.115  0.00  0.00    +0.000 A 
ENDBRANCH  21  22
ENDBRANCH  19  21
ENDBRANCH  18  19
ENDBRANCH   4  18
TORSDOF 7
ENDMDL
MODEL 8
REMARK VINA RESULT:      -7.0      3.722      4.852
REMARK  Name = 
REMARK  7 active torsions:
REMARK  status: ('A' for Active; 'I' for Inactive)
REMARK    1  A    between atoms: C_2  and  C_5
REMARK    2  A    between atoms: N_3  and  O_4
REMARK    3  A    between atoms: C_8  and  C_9
REMARK    4  A    between atoms: C_12  and  C_13
REMARK    5  A    between atoms: C_13  and  N_14
REMARK    6  A    between atoms: N_14  and  C_15
REMARK    7  A    between atoms: C_15  and  C_16
REMARK                            x       y       z     vdW  Elec       q    Type
REMARK                         _______ _______ _______ _____ _____    ______ ____
ROOT
ATOM      1  C   UNL     1       2.074   7.710  19.627  0.00  0.00    +0.000 A 
ATOM      2  C   UNL     1       1.564   7.778  20.909  0.00  0.00    +0.000 A 
ATOM      3  C   UNL     1       0.737   8.841  21.250  0.00  0.00    +0.000 A 
ATOM      4  C   UNL     1       0.460   9.847  20.323  0.00  0.00    +0.000 A 
ATOM      5  C   UNL     1       1.048   9.706  19.069  0.00  0.00    +0.000 A 
ATOM      6  N   UNL     1       1.860   8.677  18.700  0.00  0.00    +0.000 NA
ENDROOT
BRANCH   1  10
ATOM      7  C   UNL     1       3.742   4.227  18.932  0.00  0.00    +0.000 A 
ATOM      8  C   UNL     1       3.972   5.015  17.826  0.00  0.00    +0.000 A 
ATOM      9  C   UNL     1       3.431   6.322  17.963  0.00  0.00    +0.000 A 
ATOM     10  C   UNL     1       2.791   6.514  19.160  0.00  0.00    +0.000 A 
ATOM     11  S   UNL     1       2.843   5.074  20.112  0.00  0.00    +0.000 S 
BRANCH   7  13
ATOM     12  O   UNL     1       5.003   2.537  19.999  0.00  0.00    +0.000 OA
ATOM     13  C   UNL     1       4.217   2.866  19.102  0.00  0.00    +0.000 C 
ATOM     14  N   UNL     1       3.771   1.914  18.213  0.00  0.00    +0.000 N 
ATOM     15  H   UNL     1       3.443   2.164  17.286  0.00  0.00    +0.000 HD
BRANCH  14  16
ATOM     16  O   UNL     1       4.330   0.621  18.368  0.00  0.00    +0.000 OA
ATOM     17  H   UNL     1       3.528   0.056  18.451  0.00  0.00    +0.000 HD
ENDBRANCH  14  16
ENDBRANCH   7  13
ENDBRANCH   1  10
BRANCH   4  18
ATOM     18  C   UNL     1      -0.454  11.013  20.637  0.00  0.00    +0.000 C 
BRANCH  18  19
ATOM     19  N   UNL     1      -0.211  11.550  21.977  0.00  0.00    +0.000 NA
ATOM     20  H   UNL     1      -0.210  12.567  21.929  0.00  0.00    +0.000 HD
BRANCH  19  21
ATOM     21  C   UNL     1      -1.229  11.142  22.947  0.00  0.00    +0.000 C 
BRANCH  21  22
ATOM     22  C   UNL     1      -2.008  12.360  23.408  0.00  0.00    +0.000 A 
ATOM     23  C   UNL     1      -3.373  12.262  23.726  0.00  0.00    +0.000 A 
ATOM     24  C   UNL     1      -4.107  13.402  24.067  0.00  0.00    +0.000 A 
ATOM     25  C   UNL     1      -3.481  14.645  24.096  0.00  0.00    +0.000 A 
ATOM     26 CL   UNL     1      -4.389  16.053  24.487  0.00  0.00    +0.000 Cl
ATOM     27  C   UNL     1      -2.125  14.758  23.799  0.00  0.00    +0.000 A 
ATOM     28  C   UNL     1      -1.392  13.619  23.451  0.00  0.00    +0.000 A 
ENDBRANCH  21  22
ENDBRANCH  19  21
ENDBRANCH  18  19
ENDBRANCH   4  18
TORSDOF 7
ENDMDL
MODEL 9
REMARK VINA RESULT:      -7.0      5.505      8.978
REMARK  Name = 
REMARK  7 active torsions:
REMARK  status: ('A' for Active; 'I' for Inactive)
REMARK    1  A    between atoms: C_2  and  C_5
REMARK    2  A    between atoms: N_3  and  O_4
REMARK    3  A    between atoms: C_8  and  C_9
REMARK    4  A    between atoms: C_12  and  C_13
REMARK    5  A    between atoms: C_13  and  N_14
REMARK    6  A    between atoms: N_14  and  C_15
REMARK    7  A    between atoms: C_15  and  C_16
REMARK                            x       y       z     vdW  Elec       q    Type
REMARK                         _______ _______ _______ _____ _____    ______ ____
ROOT
ATOM      1  C   UNL     1       1.556   8.118  20.076  0.00  0.00    +0.000 A 
ATOM      2  C   UNL     1       2.120   7.960  18.824  0.00  0.00    +0.000 A 
ATOM      3  C   UNL     1       2.519   6.693  18.418  0.00  0.00    +0.000 A 
ATOM      4  C   UNL     1       2.389   5.601  19.279  0.00  0.00    +0.000 A 
ATOM      5  C   UNL     1       1.841   5.869  20.531  0.00  0.00    +0.000 A 
ATOM      6  N   UNL     1       1.438   7.097  20.960  0.00  0.00    +0.000 NA
ENDROOT
BRANCH   1  10
ATOM      7  C   UNL     1      -0.199  11.214  21.726  0.00  0.00    +0.000 A 
ATOM      8  C   UNL     1       0.312  11.633  20.518  0.00  0.00    +0.000 A 
ATOM      9  C   UNL     1       0.960  10.589  19.805  0.00  0.00    +0.000 A 
ATOM     10  C   UNL     1       0.945   9.394  20.476  0.00  0.00    +0.000 A 
ATOM     11  S   UNL     1       0.143   9.562  21.996  0.00  0.00    +0.000 S 
BRANCH   7  13
ATOM     12  O   UNL     1      -0.463  13.011  23.238  0.00  0.00    +0.000 OA
ATOM     13  C   UNL     1      -0.955  12.043  22.647  0.00  0.00    +0.000 C 
ATOM     14  N   UNL     1      -2.275  11.718  22.868  0.00  0.00    +0.000 N 
ATOM     15  H   UNL     1      -2.624  10.777  22.719  0.00  0.00    +0.000 HD
BRANCH  14  16
ATOM     16  O   UNL     1      -2.945  12.503  23.840  0.00  0.00    +0.000 OA
ATOM     17  H   UNL     1      -2.902  11.927  24.638  0.00  0.00    +0.000 HD
ENDBRANCH  14  16
ENDBRANCH   7  13
ENDBRANCH   1  10
BRANCH   4  18
ATOM     18  C   UNL     1       2.785   4.196  18.876  0.00  0.00    +0.000 C 
BRANCH  18  19
ATOM     19  N   UNL     1       3.068   4.101  17.443  0.00  0.00    +0.000 NA
ATOM     20  H   UNL     1       2.977   5.027  17.027  0.00  0.00    +0.000 HD
BRANCH  19  21
ATOM     21  C   UNL     1       4.417   3.608  17.161  0.00  0.00    +0.000 C 
BRANCH  21  22
ATOM     22  C   UNL     1       5.414   4.744  17.303  0.00  0.00    +0.000 A 
ATOM     23  C   UNL     1       6.428   4.694  18.275  0.00  0.00    +0.000 A 
ATOM     24  C   UNL     1       7.289   5.779  18.460  0.00  0.00    +0.000 A 
ATOM     25  C   UNL     1       7.146   6.918  17.673  0.00  0.00    +0.000 A 
ATOM     26 CL   UNL     1       8.187   8.266  17.918  0.00  0.00    +0.000 Cl
ATOM     27  C   UNL     1       6.157   6.979  16.694  0.00  0.00    +0.000 A 
ATOM     28  C   UNL     1       5.290   5.897  16.514  0.00  0.00    +0.000 A 
ENDBRANCH  21  22
ENDBRANCH  19  21
ENDBRANCH  18  19
ENDBRANCH   4  18
TORSDOF 7
ENDMDL
