MODEL 1
REMARK VINA RESULT:      -7.9      0.000      0.000
REMARK  Name = 
REMARK  7 active torsions:
REMARK  status: ('A' for Active; 'I' for Inactive)
REMARK    1  A    between atoms: C_2  and  C_3
REMARK    2  A    between atoms: C_6  and  N_7
REMARK    3  A    between atoms: C_14  and  C_15
REMARK    4  A    between atoms: C_15  and  N_16
REMARK    5  A    between atoms: N_19  and  C_20
REMARK    6  A    between atoms: C_20  and  C_21
REMARK    7  A    between atoms: C_24  and  C_25
REMARK                            x       y       z     vdW  Elec       q    Type
REMARK                         _______ _______ _______ _____ _____    ______ ____
ROOT
ATOM      1  N   UNL     1       1.844   7.634  20.595  0.00  0.00    +0.000 NA
ATOM      2  C   UNL     1       1.870   8.493  19.407  0.00  0.00    +0.000 C 
ATOM      3  C   UNL     1       0.617   9.319  19.020  0.00  0.00    +0.000 C 
ATOM      4  N   UNL     1      -0.248   9.842  20.078  0.00  0.00    +0.000 NA
ATOM      5  C   UNL     1      -0.272   8.972  21.262  0.00  0.00    +0.000 C 
ATOM      6  C   UNL     1       1.023   8.216  21.665  0.00  0.00    +0.000 C 
ENDROOT
BRANCH   1   7
ATOM      7  C   UNL     1       1.572   6.208  20.369  0.00  0.00    +0.000 C 
BRANCH   7  13
ATOM      8  C   UNL     1       2.978   4.075  20.295  0.00  0.00    +0.000 A 
ATOM      9  C   UNL     1       4.020   3.335  19.742  0.00  0.00    +0.000 A 
ATOM     10  C   UNL     1       4.904   3.924  18.832  0.00  0.00    +0.000 A 
ATOM     11  C   UNL     1       4.807   5.273  18.455  0.00  0.00    +0.000 A 
ATOM     12  C   UNL     1       3.714   5.987  18.981  0.00  0.00    +0.000 A 
ATOM     13  C   UNL     1       2.784   5.408  19.891  0.00  0.00    +0.000 A 
BRANCH  11  14
ATOM     14  N   UNL     1       5.737   5.805  17.580  0.00  0.00    +0.000 N 
ATOM     15  C   UNL     1       7.168   5.455  17.579  0.00  0.00    +0.000 C 
ATOM     16  C   UNL     1       7.536   4.602  16.343  0.00  0.00    +0.000 C 
ATOM     17  N   UNL     1       7.134   5.212  15.060  0.00  0.00    +0.000 NA
ATOM     18  C   UNL     1       5.693   5.534  15.102  0.00  0.00    +0.000 C 
ATOM     19  C   UNL     1       5.296   6.422  16.308  0.00  0.00    +0.000 C 
ATOM     20  H   UNL     1       7.305   4.550  14.306  0.00  0.00    +0.000 HD
ENDBRANCH  11  14
BRANCH   8  22
ATOM     21  N   UNL     1       1.421   2.929  22.030  0.00  0.00    +0.000 NA
ATOM     22  C   UNL     1       2.123   3.431  21.252  0.00  0.00    +0.000 C 
ENDBRANCH   8  22
ENDBRANCH   7  13
ENDBRANCH   1   7
BRANCH   4  23
ATOM     23  C   UNL     1      -0.081  11.267  20.378  0.00  0.00    +0.000 C 
BRANCH  23  24
ATOM     24  C   UNL     1      -1.160  11.872  21.269  0.00  0.00    +0.000 A 
ATOM     25  C   UNL     1      -2.400  12.311  20.765  0.00  0.00    +0.000 A 
ATOM     26  C   UNL     1      -3.403  12.787  21.622  0.00  0.00    +0.000 A 
ATOM     27  C   UNL     1      -3.202  12.843  23.007  0.00  0.00    +0.000 A 
ATOM     28  C   UNL     1      -1.959  12.427  23.520  0.00  0.00    +0.000 A 
ATOM     29  C   UNL     1      -0.960  11.953  22.665  0.00  0.00    +0.000 A 
BRANCH  27  30
ATOM     30  C   UNL     1      -4.280  13.315  23.949  0.00  0.00    +0.000 C 
ATOM     31  F   UNL     1      -3.957  14.444  24.638  0.00  0.00    +0.000 F 
ATOM     32  F   UNL     1      -5.449  13.599  23.303  0.00  0.00    +0.000 F 
ATOM     33  F   UNL     1      -4.602  12.385  24.893  0.00  0.00    +0.000 F 
ENDBRANCH  27  30
ENDBRANCH  23  24
ENDBRANCH   4  23
TORSDOF 7
ENDMDL
MODEL 2
REMARK VINA RESULT:      -7.8      5.723     11.453
REMARK  Name = 
REMARK  7 active torsions:
REMARK  status: ('A' for Active; 'I' for Inactive)
REMARK    1  A    between atoms: C_2  and  C_3
REMARK    2  A    between atoms: C_6  and  N_7
REMARK    3  A    between atoms: C_14  and  C_15
REMARK    4  A    between atoms: C_15  and  N_16
REMARK    5  A    between atoms: N_19  and  C_20
REMARK    6  A    between atoms: C_20  and  C_21
REMARK    7  A    between atoms: C_24  and  C_25
REMARK                            x       y       z     vdW  Elec       q    Type
REMARK                         _______ _______ _______ _____ _____    ______ ____
ROOT
ATOM      1  N   UNL     1      -0.874  10.090  19.091  0.00  0.00    +0.000 NA
ATOM      2  C   UNL     1      -0.226   9.462  17.936  0.00  0.00    +0.000 C 
ATOM      3  C   UNL     1       1.286   9.127  17.982  0.00  0.00    +0.000 C 
ATOM      4  N   UNL     1       1.893   8.734  19.253  0.00  0.00    +0.000 NA
ATOM      5  C   UNL     1       1.241   9.373  20.405  0.00  0.00    +0.000 C 
ATOM      6  C   UNL     1      -0.290   9.625  20.357  0.00  0.00    +0.000 C 
ENDROOT
BRANCH   1   7
ATOM      7  C   UNL     1      -1.046  11.549  19.036  0.00  0.00    +0.000 C 
BRANCH   7  13
ATOM      8  C   UNL     1      -3.513  11.806  18.423  0.00  0.00    +0.000 A 
ATOM      9  C   UNL     1      -4.819  12.134  18.781  0.00  0.00    +0.000 A 
ATOM     10  C   UNL     1      -5.087  12.725  20.020  0.00  0.00    +0.000 A 
ATOM     11  C   UNL     1      -4.074  13.038  20.940  0.00  0.00    +0.000 A 
ATOM     12  C   UNL     1      -2.769  12.647  20.582  0.00  0.00    +0.000 A 
ATOM     13  C   UNL     1      -2.468  12.022  19.338  0.00  0.00    +0.000 A 
BRANCH  11  14
ATOM     14  N   UNL     1      -4.402  13.658  22.132  0.00  0.00    +0.000 N 
ATOM     15  C   UNL     1      -5.323  13.093  23.133  0.00  0.00    +0.000 C 
ATOM     16  C   UNL     1      -4.561  12.630  24.396  0.00  0.00    +0.000 C 
ATOM     17  N   UNL     1      -3.703  13.675  24.989  0.00  0.00    +0.000 NA
ATOM     18  C   UNL     1      -2.790  14.202  23.955  0.00  0.00    +0.000 C 
ATOM     19  C   UNL     1      -3.525  14.713  22.690  0.00  0.00    +0.000 C 
ATOM     20  H   UNL     1      -3.153  13.269  25.743  0.00  0.00    +0.000 HD
ENDBRANCH  11  14
BRANCH   8  22
ATOM     21  N   UNL     1      -3.100  10.757  16.083  0.00  0.00    +0.000 NA
ATOM     22  C   UNL     1      -3.290  11.235  17.124  0.00  0.00    +0.000 C 
ENDBRANCH   8  22
ENDBRANCH   7  13
ENDBRANCH   1   7
BRANCH   4  23
ATOM     23  C   UNL     1       2.134   7.297  19.416  0.00  0.00    +0.000 C 
BRANCH  23  24
ATOM     24  C   UNL     1       3.015   6.662  18.347  0.00  0.00    +0.000 A 
ATOM     25  C   UNL     1       3.978   7.395  17.626  0.00  0.00    +0.000 A 
ATOM     26  C   UNL     1       4.830   6.764  16.707  0.00  0.00    +0.000 A 
ATOM     27  C   UNL     1       4.748   5.385  16.477  0.00  0.00    +0.000 A 
ATOM     28  C   UNL     1       3.776   4.647  17.176  0.00  0.00    +0.000 A 
ATOM     29  C   UNL     1       2.927   5.276  18.091  0.00  0.00    +0.000 A 
BRANCH  27  30
ATOM     30  C   UNL     1       5.680   4.681  15.522  0.00  0.00    +0.000 C 
ATOM     31  F   UNL     1       6.917   5.243  15.442  0.00  0.00    +0.000 F 
ATOM     32  F   UNL     1       5.889   3.376  15.866  0.00  0.00    +0.000 F 
ATOM     33  F   UNL     1       5.203   4.650  14.245  0.00  0.00    +0.000 F 
ENDBRANCH  27  30
ENDBRANCH  23  24
ENDBRANCH   4  23
TORSDOF 7
ENDMDL
MODEL 3
REMARK VINA RESULT:      -7.8      5.739     11.396
REMARK  Name = 
REMARK  7 active torsions:
REMARK  status: ('A' for Active; 'I' for Inactive)
REMARK    1  A    between atoms: C_2  and  C_3
REMARK    2  A    between atoms: C_6  and  N_7
REMARK    3  A    between atoms: C_14  and  C_15
REMARK    4  A    between atoms: C_15  and  N_16
REMARK    5  A    between atoms: N_19  and  C_20
REMARK    6  A    between atoms: C_20  and  C_21
REMARK    7  A    between atoms: C_24  and  C_25
REMARK                            x       y       z     vdW  Elec       q    Type
REMARK                         _______ _______ _______ _____ _____    ______ ____
ROOT
ATOM      1  N   UNL     1      -0.659  10.217  19.022  0.00  0.00    +0.000 NA
ATOM      2  C   UNL     1      -0.071   9.559  17.851  0.00  0.00    +0.000 C 
ATOM      3  C   UNL     1       1.392   9.051  17.899  0.00  0.00    +0.000 C 
ATOM      4  N   UNL     1       1.933   8.547  19.162  0.00  0.00    +0.000 NA
ATOM      5  C   UNL     1       1.342   9.217  20.330  0.00  0.00    +0.000 C 
ATOM      6  C   UNL     1      -0.150   9.645  20.276  0.00  0.00    +0.000 C 
ENDROOT
BRANCH   1   7
ATOM      7  C   UNL     1      -0.662  11.687  19.017  0.00  0.00    +0.000 C 
BRANCH   7  13
ATOM      8  C   UNL     1      -1.628  13.185  20.847  0.00  0.00    +0.000 A 
ATOM      9  C   UNL     1      -2.715  13.836  21.426  0.00  0.00    +0.000 A 
ATOM     10  C   UNL     1      -4.015  13.585  20.975  0.00  0.00    +0.000 A 
ATOM     11  C   UNL     1      -4.292  12.663  19.953  0.00  0.00    +0.000 A 
ATOM     12  C   UNL     1      -3.176  12.059  19.344  0.00  0.00    +0.000 A 
ATOM     13  C   UNL     1      -1.839  12.311  19.766  0.00  0.00    +0.000 A 
BRANCH  11  14
ATOM     14  N   UNL     1      -5.604  12.432  19.579  0.00  0.00    +0.000 N 
ATOM     15  C   UNL     1      -6.009  11.501  18.513  0.00  0.00    +0.000 C 
ATOM     16  C   UNL     1      -6.693  10.244  19.096  0.00  0.00    +0.000 C 
ATOM     17  N   UNL     1      -7.821  10.546  19.999  0.00  0.00    +0.000 NA
ATOM     18  C   UNL     1      -7.367  11.470  21.057  0.00  0.00    +0.000 C 
ATOM     19  C   UNL     1      -6.712  12.762  20.505  0.00  0.00    +0.000 C 
ATOM     20  H   UNL     1      -8.148   9.683  20.429  0.00  0.00    +0.000 HD
ENDBRANCH  11  14
BRANCH   8  22
ATOM     21  N   UNL     1       0.731  13.669  21.820  0.00  0.00    +0.000 NA
ATOM     22  C   UNL     1      -0.320  13.451  21.374  0.00  0.00    +0.000 C 
ENDBRANCH   8  22
ENDBRANCH   7  13
ENDBRANCH   1   7
BRANCH   4  23
ATOM     23  C   UNL     1       2.005   7.088  19.276  0.00  0.00    +0.000 C 
BRANCH  23  24
ATOM     24  C   UNL     1       2.990   6.412  18.329  0.00  0.00    +0.000 A 
ATOM     25  C   UNL     1       2.912   5.043  18.005  0.00  0.00    +0.000 A 
ATOM     26  C   UNL     1       3.782   4.469  17.067  0.00  0.00    +0.000 A 
ATOM     27  C   UNL     1       4.758   5.241  16.423  0.00  0.00    +0.000 A 
ATOM     28  C   UNL     1       4.859   6.604  16.753  0.00  0.00    +0.000 A 
ATOM     29  C   UNL     1       3.991   7.175  17.689  0.00  0.00    +0.000 A 
BRANCH  27  30
ATOM     30  C   UNL     1       5.678   4.652  15.383  0.00  0.00    +0.000 C 
ATOM     31  F   UNL     1       5.045   4.253  14.246  0.00  0.00    +0.000 F 
ATOM     32  F   UNL     1       6.639   5.535  14.979  0.00  0.00    +0.000 F 
ATOM     33  F   UNL     1       6.354   3.558  15.834  0.00  0.00    +0.000 F 
ENDBRANCH  27  30
ENDBRANCH  23  24
ENDBRANCH   4  23
TORSDOF 7
ENDMDL
MODEL 4
REMARK VINA RESULT:      -7.7      5.787     11.526
REMARK  Name = 
REMARK  7 active torsions:
REMARK  status: ('A' for Active; 'I' for Inactive)
REMARK    1  A    between atoms: C_2  and  C_3
REMARK    2  A    between atoms: C_6  and  N_7
REMARK    3  A    between atoms: C_14  and  C_15
REMARK    4  A    between atoms: C_15  and  N_16
REMARK    5  A    between atoms: N_19  and  C_20
REMARK    6  A    between atoms: C_20  and  C_21
REMARK    7  A    between atoms: C_24  and  C_25
REMARK                            x       y       z     vdW  Elec       q    Type
REMARK                         _______ _______ _______ _____ _____    ______ ____
ROOT
ATOM      1  N   UNL     1      -0.124   9.929  19.750  0.00  0.00    +0.000 NA
ATOM      2  C   UNL     1       0.423   9.834  18.393  0.00  0.00    +0.000 C 
ATOM      3  C   UNL     1       1.795   9.152  18.156  0.00  0.00    +0.000 C 
ATOM      4  N   UNL     1       2.191   8.029  19.006  0.00  0.00    +0.000 NA
ATOM      5  C   UNL     1       1.642   8.136  20.366  0.00  0.00    +0.000 C 
ATOM      6  C   UNL     1       0.232   8.756  20.560  0.00  0.00    +0.000 C 
ENDROOT
BRANCH   1   7
ATOM      7  C   UNL     1       0.083  11.202  20.454  0.00  0.00    +0.000 C 
BRANCH   7  13
ATOM      8  C   UNL     1      -1.374  11.355  22.547  0.00  0.00    +0.000 A 
ATOM      9  C   UNL     1      -2.435  11.934  23.241  0.00  0.00    +0.000 A 
ATOM     10  C   UNL     1      -3.304  12.820  22.596  0.00  0.00    +0.000 A 
ATOM     11  C   UNL     1      -3.175  13.146  21.237  0.00  0.00    +0.000 A 
ATOM     12  C   UNL     1      -2.064  12.595  20.570  0.00  0.00    +0.000 A 
ATOM     13  C   UNL     1      -1.148  11.708  21.206  0.00  0.00    +0.000 A 
BRANCH  11  14
ATOM     14  N   UNL     1      -4.092  14.000  20.650  0.00  0.00    +0.000 N 
ATOM     15  C   UNL     1      -5.403  13.575  20.131  0.00  0.00    +0.000 C 
ATOM     16  C   UNL     1      -6.554  14.090  21.026  0.00  0.00    +0.000 C 
ATOM     17  N   UNL     1      -6.518  15.547  21.259  0.00  0.00    +0.000 NA
ATOM     18  C   UNL     1      -5.193  15.924  21.790  0.00  0.00    +0.000 C 
ATOM     19  C   UNL     1      -4.017  15.458  20.895  0.00  0.00    +0.000 C 
ATOM     20  H   UNL     1      -7.233  15.795  21.940  0.00  0.00    +0.000 HD
ENDBRANCH  11  14
BRANCH   8  22
ATOM     21  N   UNL     1       0.161   9.686  23.815  0.00  0.00    +0.000 NA
ATOM     22  C   UNL     1      -0.535  10.424  23.248  0.00  0.00    +0.000 C 
ENDBRANCH   8  22
ENDBRANCH   7  13
ENDBRANCH   1   7
BRANCH   4  23
ATOM     23  C   UNL     1       2.048   6.702  18.400  0.00  0.00    +0.000 C 
BRANCH  23  24
ATOM     24  C   UNL     1       3.277   6.192  17.658  0.00  0.00    +0.000 A 
ATOM     25  C   UNL     1       4.307   7.048  17.219  0.00  0.00    +0.000 A 
ATOM     26  C   UNL     1       5.464   6.539  16.612  0.00  0.00    +0.000 A 
ATOM     27  C   UNL     1       5.631   5.161  16.421  0.00  0.00    +0.000 A 
ATOM     28  C   UNL     1       4.600   4.298  16.836  0.00  0.00    +0.000 A 
ATOM     29  C   UNL     1       3.447   4.807  17.441  0.00  0.00    +0.000 A 
BRANCH  27  30
ATOM     30  C   UNL     1       6.883   4.590  15.806  0.00  0.00    +0.000 C 
ATOM     31  F   UNL     1       7.825   4.215  16.715  0.00  0.00    +0.000 F 
ATOM     32  F   UNL     1       6.633   3.478  15.053  0.00  0.00    +0.000 F 
ATOM     33  F   UNL     1       7.506   5.466  14.967  0.00  0.00    +0.000 F 
ENDBRANCH  27  30
ENDBRANCH  23  24
ENDBRANCH   4  23
TORSDOF 7
ENDMDL
MODEL 5
REMARK VINA RESULT:      -7.7      2.790      4.567
REMARK  Name = 
REMARK  7 active torsions:
REMARK  status: ('A' for Active; 'I' for Inactive)
REMARK    1  A    between atoms: C_2  and  C_3
REMARK    2  A    between atoms: C_6  and  N_7
REMARK    3  A    between atoms: C_14  and  C_15
REMARK    4  A    between atoms: C_15  and  N_16
REMARK    5  A    between atoms: N_19  and  C_20
REMARK    6  A    between atoms: C_20  and  C_21
REMARK    7  A    between atoms: C_24  and  C_25
REMARK                            x       y       z     vdW  Elec       q    Type
REMARK                         _______ _______ _______ _____ _____    ______ ____
ROOT
ATOM      1  N   UNL     1       0.056   9.202  21.057  0.00  0.00    +0.000 NA
ATOM      2  C   UNL     1      -0.516   9.161  22.406  0.00  0.00    +0.000 C 
ATOM      3  C   UNL     1      -0.720  10.476  23.202  0.00  0.00    +0.000 C 
ATOM      4  N   UNL     1      -1.058  11.703  22.480  0.00  0.00    +0.000 NA
ATOM      5  C   UNL     1      -0.475  11.737  21.131  0.00  0.00    +0.000 C 
ATOM      6  C   UNL     1      -0.355  10.412  20.331  0.00  0.00    +0.000 C 
ENDROOT
BRANCH   1   7
ATOM      7  C   UNL     1       1.494   8.922  20.944  0.00  0.00    +0.000 C 
BRANCH   7  13
ATOM      8  C   UNL     1       2.212   8.109  18.630  0.00  0.00    +0.000 A 
ATOM      9  C   UNL     1       2.643   7.085  17.790  0.00  0.00    +0.000 A 
ATOM     10  C   UNL     1       2.654   5.760  18.237  0.00  0.00    +0.000 A 
ATOM     11  C   UNL     1       2.217   5.393  19.519  0.00  0.00    +0.000 A 
ATOM     12  C   UNL     1       1.839   6.449  20.370  0.00  0.00    +0.000 A 
ATOM     13  C   UNL     1       1.839   7.811  19.953  0.00  0.00    +0.000 A 
BRANCH  11  14
ATOM     14  N   UNL     1       2.217   4.059  19.885  0.00  0.00    +0.000 N 
ATOM     15  C   UNL     1       1.005   3.230  19.997  0.00  0.00    +0.000 C 
ATOM     16  C   UNL     1       0.929   2.191  18.855  0.00  0.00    +0.000 C 
ATOM     17  N   UNL     1       2.139   1.354  18.733  0.00  0.00    +0.000 NA
ATOM     18  C   UNL     1       3.325   2.224  18.612  0.00  0.00    +0.000 C 
ATOM     19  C   UNL     1       3.454   3.253  19.763  0.00  0.00    +0.000 C 
ATOM     20  H   UNL     1       2.063   0.775  17.899  0.00  0.00    +0.000 HD
ENDBRANCH  11  14
BRANCH   8  22
ATOM     21  N   UNL     1       2.155  10.536  17.706  0.00  0.00    +0.000 NA
ATOM     22  C   UNL     1       2.185   9.447  18.109  0.00  0.00    +0.000 C 
ENDBRANCH   8  22
ENDBRANCH   7  13
ENDBRANCH   1   7
BRANCH   4  23
ATOM     23  C   UNL     1      -2.469  12.097  22.539  0.00  0.00    +0.000 C 
BRANCH  23  24
ATOM     24  C   UNL     1      -2.734  13.470  23.143  0.00  0.00    +0.000 A 
ATOM     25  C   UNL     1      -2.475  14.668  22.447  0.00  0.00    +0.000 A 
ATOM     26  C   UNL     1      -2.807  15.914  22.999  0.00  0.00    +0.000 A 
ATOM     27  C   UNL     1      -3.405  16.006  24.262  0.00  0.00    +0.000 A 
ATOM     28  C   UNL     1      -3.649  14.818  24.976  0.00  0.00    +0.000 A 
ATOM     29  C   UNL     1      -3.318  13.577  24.425  0.00  0.00    +0.000 A 
BRANCH  27  30
ATOM     30  C   UNL     1      -3.805  17.333  24.858  0.00  0.00    +0.000 C 
ATOM     31  F   UNL     1      -4.966  17.293  25.567  0.00  0.00    +0.000 F 
ATOM     32  F   UNL     1      -2.864  17.822  25.718  0.00  0.00    +0.000 F 
ATOM     33  F   UNL     1      -3.978  18.304  23.916  0.00  0.00    +0.000 F 
ENDBRANCH  27  30
ENDBRANCH  23  24
ENDBRANCH   4  23
TORSDOF 7
ENDMDL
MODEL 6
REMARK VINA RESULT:      -7.7      1.028      1.546
REMARK  Name = 
REMARK  7 active torsions:
REMARK  status: ('A' for Active; 'I' for Inactive)
REMARK    1  A    between atoms: C_2  and  C_3
REMARK    2  A    between atoms: C_6  and  N_7
REMARK    3  A    between atoms: C_14  and  C_15
REMARK    4  A    between atoms: C_15  and  N_16
REMARK    5  A    between atoms: N_19  and  C_20
REMARK    6  A    between atoms: C_20  and  C_21
REMARK    7  A    between atoms: C_24  and  C_25
REMARK                            x       y       z     vdW  Elec       q    Type
REMARK                         _______ _______ _______ _____ _____    ______ ____
ROOT
ATOM      1  N   UNL     1       1.906   7.810  20.560  0.00  0.00    +0.000 NA
ATOM      2  C   UNL     1       1.416   8.690  19.494  0.00  0.00    +0.000 C 
ATOM      3  C   UNL     1       0.167   9.576  19.732  0.00  0.00    +0.000 C 
ATOM      4  N   UNL     1      -0.083  10.115  21.069  0.00  0.00    +0.000 NA
ATOM      5  C   UNL     1       0.406   9.224  22.131  0.00  0.00    +0.000 C 
ATOM      6  C   UNL     1       1.704   8.407  21.888  0.00  0.00    +0.000 C 
ENDROOT
BRANCH   1   7
ATOM      7  C   UNL     1       1.493   6.401  20.491  0.00  0.00    +0.000 C 
BRANCH   7  13
ATOM      8  C   UNL     1       2.588   4.138  20.036  0.00  0.00    +0.000 A 
ATOM      9  C   UNL     1       3.385   3.321  19.237  0.00  0.00    +0.000 A 
ATOM     10  C   UNL     1       4.101   3.860  18.164  0.00  0.00    +0.000 A 
ATOM     11  C   UNL     1       4.079   5.229  17.855  0.00  0.00    +0.000 A 
ATOM     12  C   UNL     1       3.224   6.027  18.640  0.00  0.00    +0.000 A 
ATOM     13  C   UNL     1       2.464   5.503  19.724  0.00  0.00    +0.000 A 
BRANCH  11  14
ATOM     14  N   UNL     1       4.842   5.705  16.803  0.00  0.00    +0.000 N 
ATOM     15  C   UNL     1       5.727   6.879  16.887  0.00  0.00    +0.000 C 
ATOM     16  C   UNL     1       7.215   6.462  16.857  0.00  0.00    +0.000 C 
ATOM     17  N   UNL     1       7.569   5.607  15.706  0.00  0.00    +0.000 NA
ATOM     18  C   UNL     1       6.666   4.439  15.669  0.00  0.00    +0.000 C 
ATOM     19  C   UNL     1       5.165   4.823  15.659  0.00  0.00    +0.000 C 
ATOM     20  H   UNL     1       8.528   5.283  15.812  0.00  0.00    +0.000 HD
ENDBRANCH  11  14
BRANCH   8  22
ATOM     21  N   UNL     1       1.368   3.049  22.054  0.00  0.00    +0.000 NA
ATOM     22  C   UNL     1       1.904   3.539  21.147  0.00  0.00    +0.000 C 
ENDBRANCH   8  22
ENDBRANCH   7  13
ENDBRANCH   1   7
BRANCH   4  23
ATOM     23  C   UNL     1       0.271  11.525  21.254  0.00  0.00    +0.000 C 
BRANCH  23  24
ATOM     24  C   UNL     1      -0.685  12.324  22.131  0.00  0.00    +0.000 A 
ATOM     25  C   UNL     1      -0.414  13.645  22.540  0.00  0.00    +0.000 A 
ATOM     26  C   UNL     1      -1.352  14.382  23.278  0.00  0.00    +0.000 A 
ATOM     27  C   UNL     1      -2.588  13.827  23.632  0.00  0.00    +0.000 A 
ATOM     28  C   UNL     1      -2.861  12.501  23.247  0.00  0.00    +0.000 A 
ATOM     29  C   UNL     1      -1.926  11.767  22.512  0.00  0.00    +0.000 A 
BRANCH  27  30
ATOM     30  C   UNL     1      -3.625  14.614  24.392  0.00  0.00    +0.000 C 
ATOM     31  F   UNL     1      -4.780  13.930  24.624  0.00  0.00    +0.000 F 
ATOM     32  F   UNL     1      -3.181  15.013  25.621  0.00  0.00    +0.000 F 
ATOM     33  F   UNL     1      -3.995  15.759  23.750  0.00  0.00    +0.000 F 
ENDBRANCH  27  30
ENDBRANCH  23  24
ENDBRANCH   4  23
TORSDOF 7
ENDMDL
MODEL 7
REMARK VINA RESULT:      -7.6      0.888      1.354
REMARK  Name = 
REMARK  7 active torsions:
REMARK  status: ('A' for Active; 'I' for Inactive)
REMARK    1  A    between atoms: C_2  and  C_3
REMARK    2  A    between atoms: C_6  and  N_7
REMARK    3  A    between atoms: C_14  and  C_15
REMARK    4  A    between atoms: C_15  and  N_16
REMARK    5  A    between atoms: N_19  and  C_20
REMARK    6  A    between atoms: C_20  and  C_21
REMARK    7  A    between atoms: C_24  and  C_25
REMARK                            x       y       z     vdW  Elec       q    Type
REMARK                         _______ _______ _______ _____ _____    ______ ____
ROOT
ATOM      1  N   UNL     1       2.220   7.391  19.867  0.00  0.00    +0.000 NA
ATOM      2  C   UNL     1       2.128   8.430  18.837  0.00  0.00    +0.000 C 
ATOM      3  C   UNL     1       0.858   9.311  18.735  0.00  0.00    +0.000 C 
ATOM      4  N   UNL     1       0.129   9.658  19.955  0.00  0.00    +0.000 NA
ATOM      5  C   UNL     1       0.221   8.608  20.980  0.00  0.00    +0.000 C 
ATOM      6  C   UNL     1       1.538   7.795  21.105  0.00  0.00    +0.000 C 
ENDROOT
BRANCH   1   7
ATOM      7  C   UNL     1       1.894   6.020  19.449  0.00  0.00    +0.000 C 
BRANCH   7  13
ATOM      8  C   UNL     1       2.971   3.783  20.052  0.00  0.00    +0.000 A 
ATOM      9  C   UNL     1       4.031   2.885  19.945  0.00  0.00    +0.000 A 
ATOM     10  C   UNL     1       5.222   3.265  19.317  0.00  0.00    +0.000 A 
ATOM     11  C   UNL     1       5.419   4.553  18.794  0.00  0.00    +0.000 A 
ATOM     12  C   UNL     1       4.316   5.426  18.862  0.00  0.00    +0.000 A 
ATOM     13  C   UNL     1       3.083   5.060  19.474  0.00  0.00    +0.000 A 
BRANCH  11  14
ATOM     14  N   UNL     1       6.636   4.878  18.220  0.00  0.00    +0.000 N 
ATOM     15  C   UNL     1       7.043   4.478  16.862  0.00  0.00    +0.000 C 
ATOM     16  C   UNL     1       7.063   5.690  15.903  0.00  0.00    +0.000 C 
ATOM     17  N   UNL     1       7.875   6.821  16.394  0.00  0.00    +0.000 NA
ATOM     18  C   UNL     1       7.425   7.195  17.749  0.00  0.00    +0.000 C 
ATOM     19  C   UNL     1       7.430   6.010  18.747  0.00  0.00    +0.000 C 
ATOM     20  H   UNL     1       7.753   7.617  15.771  0.00  0.00    +0.000 HD
ENDBRANCH  11  14
BRANCH   8  22
ATOM     21  N   UNL     1       0.839   2.991  21.306  0.00  0.00    +0.000 NA
ATOM     22  C   UNL     1       1.786   3.353  20.739  0.00  0.00    +0.000 C 
ENDBRANCH   8  22
ENDBRANCH   7  13
ENDBRANCH   1   7
BRANCH   4  23
ATOM     23  C   UNL     1       0.359  11.016  20.459  0.00  0.00    +0.000 C 
BRANCH  23  24
ATOM     24  C   UNL     1      -0.793  11.615  21.256  0.00  0.00    +0.000 A 
ATOM     25  C   UNL     1      -1.908  12.218  20.641  0.00  0.00    +0.000 A 
ATOM     26  C   UNL     1      -2.991  12.686  21.400  0.00  0.00    +0.000 A 
ATOM     27  C   UNL     1      -2.996  12.569  22.796  0.00  0.00    +0.000 A 
ATOM     28  C   UNL     1      -1.879  11.988  23.423  0.00  0.00    +0.000 A 
ATOM     29  C   UNL     1      -0.801  11.522  22.665  0.00  0.00    +0.000 A 
BRANCH  27  30
ATOM     30  C   UNL     1      -4.166  13.031  23.628  0.00  0.00    +0.000 C 
ATOM     31  F   UNL     1      -5.312  13.215  22.916  0.00  0.00    +0.000 F 
ATOM     32  F   UNL     1      -4.484  12.145  24.617  0.00  0.00    +0.000 F 
ATOM     33  F   UNL     1      -3.929  14.215  24.261  0.00  0.00    +0.000 F 
ENDBRANCH  27  30
ENDBRANCH  23  24
ENDBRANCH   4  23
TORSDOF 7
ENDMDL
MODEL 8
REMARK VINA RESULT:      -7.6      5.349     11.105
REMARK  Name = 
REMARK  7 active torsions:
REMARK  status: ('A' for Active; 'I' for Inactive)
REMARK    1  A    between atoms: C_2  and  C_3
REMARK    2  A    between atoms: C_6  and  N_7
REMARK    3  A    between atoms: C_14  and  C_15
REMARK    4  A    between atoms: C_15  and  N_16
REMARK    5  A    between atoms: N_19  and  C_20
REMARK    6  A    between atoms: C_20  and  C_21
REMARK    7  A    between atoms: C_24  and  C_25
REMARK                            x       y       z     vdW  Elec       q    Type
REMARK                         _______ _______ _______ _____ _____    ______ ____
ROOT
ATOM      1  N   UNL     1       0.211  12.071  19.760  0.00  0.00    +0.000 NA
ATOM      2  C   UNL     1      -0.358  11.085  20.684  0.00  0.00    +0.000 C 
ATOM      3  C   UNL     1      -0.332   9.578  20.323  0.00  0.00    +0.000 C 
ATOM      4  N   UNL     1       0.792   9.047  19.552  0.00  0.00    +0.000 NA
ATOM      5  C   UNL     1       1.352  10.041  18.624  0.00  0.00    +0.000 C 
ATOM      6  C   UNL     1       1.379  11.534  19.049  0.00  0.00    +0.000 C 
ENDROOT
BRANCH   1   7
ATOM      7  C   UNL     1      -0.736  12.764  18.874  0.00  0.00    +0.000 C 
BRANCH   7  13
ATOM      8  C   UNL     1      -3.126  11.930  18.529  0.00  0.00    +0.000 A 
ATOM      9  C   UNL     1      -4.418  11.732  19.012  0.00  0.00    +0.000 A 
ATOM     10  C   UNL     1      -4.809  12.284  20.236  0.00  0.00    +0.000 A 
ATOM     11  C   UNL     1      -3.949  13.074  21.015  0.00  0.00    +0.000 A 
ATOM     12  C   UNL     1      -2.633  13.214  20.536  0.00  0.00    +0.000 A 
ATOM     13  C   UNL     1      -2.197  12.645  19.305  0.00  0.00    +0.000 A 
BRANCH  11  14
ATOM     14  N   UNL     1      -4.411  13.623  22.198  0.00  0.00    +0.000 N 
ATOM     15  C   UNL     1      -5.829  13.898  22.485  0.00  0.00    +0.000 C 
ATOM     16  C   UNL     1      -6.388  12.917  23.542  0.00  0.00    +0.000 C 
ATOM     17  N   UNL     1      -5.591  12.866  24.783  0.00  0.00    +0.000 NA
ATOM     18  C   UNL     1      -4.183  12.576  24.449  0.00  0.00    +0.000 C 
ATOM     19  C   UNL     1      -3.579  13.566  23.421  0.00  0.00    +0.000 C 
ATOM     20  H   UNL     1      -5.950  12.125  25.382  0.00  0.00    +0.000 HD
ENDBRANCH  11  14
BRANCH   8  22
ATOM     21  N   UNL     1      -2.507  10.903  16.224  0.00  0.00    +0.000 NA
ATOM     22  C   UNL     1      -2.788  11.372  17.250  0.00  0.00    +0.000 C 
ENDBRANCH   8  22
ENDBRANCH   7  13
ENDBRANCH   1   7
BRANCH   4  23
ATOM     23  C   UNL     1       1.796   8.313  20.329  0.00  0.00    +0.000 C 
BRANCH  23  24
ATOM     24  C   UNL     1       2.239   6.986  19.725  0.00  0.00    +0.000 A 
ATOM     25  C   UNL     1       1.965   5.747  20.336  0.00  0.00    +0.000 A 
ATOM     26  C   UNL     1       2.314   4.539  19.714  0.00  0.00    +0.000 A 
ATOM     27  C   UNL     1       2.948   4.528  18.466  0.00  0.00    +0.000 A 
ATOM     28  C   UNL     1       3.246   5.760  17.856  0.00  0.00    +0.000 A 
ATOM     29  C   UNL     1       2.898   6.963  18.476  0.00  0.00    +0.000 A 
BRANCH  27  30
ATOM     30  C   UNL     1       3.297   3.240  17.762  0.00  0.00    +0.000 C 
ATOM     31  F   UNL     1       2.280   2.722  17.021  0.00  0.00    +0.000 F 
ATOM     32  F   UNL     1       4.346   3.386  16.899  0.00  0.00    +0.000 F 
ATOM     33  F   UNL     1       3.669   2.252  18.624  0.00  0.00    +0.000 F 
ENDBRANCH  27  30
ENDBRANCH  23  24
ENDBRANCH   4  23
TORSDOF 7
ENDMDL
MODEL 9
REMARK VINA RESULT:      -7.6      5.267     11.139
REMARK  Name = 
REMARK  7 active torsions:
REMARK  status: ('A' for Active; 'I' for Inactive)
REMARK    1  A    between atoms: C_2  and  C_3
REMARK    2  A    between atoms: C_6  and  N_7
REMARK    3  A    between atoms: C_14  and  C_15
REMARK    4  A    between atoms: C_15  and  N_16
REMARK    5  A    between atoms: N_19  and  C_20
REMARK    6  A    between atoms: C_20  and  C_21
REMARK    7  A    between atoms: C_24  and  C_25
REMARK                            x       y       z     vdW  Elec       q    Type
REMARK                         _______ _______ _______ _____ _____    ______ ____
ROOT
ATOM      1  N   UNL     1      -0.919  11.773  19.811  0.00  0.00    +0.000 NA
ATOM      2  C   UNL     1       0.086  12.179  18.823  0.00  0.00    +0.000 C 
ATOM      3  C   UNL     1       1.464  11.471  18.784  0.00  0.00    +0.000 C 
ATOM      4  N   UNL     1       1.549  10.052  19.128  0.00  0.00    +0.000 NA
ATOM      5  C   UNL     1       0.542   9.656  20.123  0.00  0.00    +0.000 C 
ATOM      6  C   UNL     1      -0.856  10.331  20.086  0.00  0.00    +0.000 C 
ENDROOT
BRANCH   1   7
ATOM      7  C   UNL     1      -1.010  12.590  21.029  0.00  0.00    +0.000 C 
BRANCH   7  13
ATOM      8  C   UNL     1      -2.672  13.903  22.460  0.00  0.00    +0.000 A 
ATOM      9  C   UNL     1      -3.954  14.407  22.665  0.00  0.00    +0.000 A 
ATOM     10  C   UNL     1      -5.006  14.030  21.825  0.00  0.00    +0.000 A 
ATOM     11  C   UNL     1      -4.838  13.122  20.768  0.00  0.00    +0.000 A 
ATOM     12  C   UNL     1      -3.525  12.668  20.544  0.00  0.00    +0.000 A 
ATOM     13  C   UNL     1      -2.428  13.052  21.367  0.00  0.00    +0.000 A 
BRANCH  11  14
ATOM     14  N   UNL     1      -5.930  12.761  19.998  0.00  0.00    +0.000 N 
ATOM     15  C   UNL     1      -5.890  12.587  18.536  0.00  0.00    +0.000 C 
ATOM     16  C   UNL     1      -6.009  11.095  18.146  0.00  0.00    +0.000 C 
ATOM     17  N   UNL     1      -7.184  10.420  18.733  0.00  0.00    +0.000 NA
ATOM     18  C   UNL     1      -7.175  10.610  20.197  0.00  0.00    +0.000 C 
ATOM     19  C   UNL     1      -7.096  12.098  20.624  0.00  0.00    +0.000 C 
ATOM     20  H   UNL     1      -7.136   9.424  18.526  0.00  0.00    +0.000 HD
ENDBRANCH  11  14
BRANCH   8  22
ATOM     21  N   UNL     1      -0.812  14.614  24.128  0.00  0.00    +0.000 NA
ATOM     22  C   UNL     1      -1.635  14.293  23.374  0.00  0.00    +0.000 C 
ENDBRANCH   8  22
ENDBRANCH   7  13
ENDBRANCH   1   7
BRANCH   4  23
ATOM     23  C   UNL     1       1.666   9.136  17.989  0.00  0.00    +0.000 C 
BRANCH  23  24
ATOM     24  C   UNL     1       2.554   7.920  18.223  0.00  0.00    +0.000 A 
ATOM     25  C   UNL     1       2.344   7.021  19.287  0.00  0.00    +0.000 A 
ATOM     26  C   UNL     1       3.128   5.866  19.426  0.00  0.00    +0.000 A 
ATOM     27  C   UNL     1       4.147   5.573  18.512  0.00  0.00    +0.000 A 
ATOM     28  C   UNL     1       4.381   6.475  17.457  0.00  0.00    +0.000 A 
ATOM     29  C   UNL     1       3.599   7.625  17.319  0.00  0.00    +0.000 A 
BRANCH  27  30
ATOM     30  C   UNL     1       4.977   4.318  18.621  0.00  0.00    +0.000 C 
ATOM     31  F   UNL     1       4.784   3.437  17.601  0.00  0.00    +0.000 F 
ATOM     32  F   UNL     1       6.317   4.579  18.634  0.00  0.00    +0.000 F 
ATOM     33  F   UNL     1       4.730   3.620  19.766  0.00  0.00    +0.000 F 
ENDBRANCH  27  30
ENDBRANCH  23  24
ENDBRANCH   4  23
TORSDOF 7
ENDMDL
