MODEL 1
REMARK VINA RESULT:      -7.3      0.000      0.000
REMARK  Name = 
REMARK  6 active torsions:
REMARK  status: ('A' for Active; 'I' for Inactive)
REMARK    1  A    between atoms: C_1  and  N_2
REMARK    2  A    between atoms: C_4  and  N_5
REMARK    3  A    between atoms: C_6  and  C_8
REMARK    4  A    between atoms: C_8  and  C_9
REMARK    5  A    between atoms: C_9  and  C_10
REMARK    6  A    between atoms: C_10  and  C_11
REMARK                            x       y       z     vdW  Elec       q    Type
REMARK                         _______ _______ _______ _____ _____    ______ ____
ROOT
ATOM      1  N   UNL     1       6.112   5.931  18.289  0.00  0.00    +0.000 N 
ATOM      2  C   UNL     1       6.614   6.912  17.463  0.00  0.00    +0.000 C 
ATOM      3  O   UNL     1       5.985   7.364  16.510  0.00  0.00    +0.000 OA
ATOM      4  H   UNL     1       6.627   5.670  19.122  0.00  0.00    +0.000 HD
ENDROOT
BRANCH   1   8
ATOM      5  C   UNL     1       1.764   4.977  20.507  0.00  0.00    +0.000 C 
ATOM      6  N   UNL     1       2.643   4.843  19.359  0.00  0.00    +0.000 N 
ATOM      7  C   UNL     1       3.980   5.423  19.464  0.00  0.00    +0.000 C 
ATOM      8  C   UNL     1       4.737   5.469  18.130  0.00  0.00    +0.000 C 
ATOM      9  C   UNL     1       4.696   4.083  17.506  0.00  0.00    +0.000 C 
ATOM     10  C   UNL     1       3.254   3.692  17.244  0.00  0.00    +0.000 C 
ATOM     11  C   UNL     1       2.327   3.857  18.434  0.00  0.00    +0.000 C 
ATOM     12  O   UNL     1       1.291   3.195  18.502  0.00  0.00    +0.000 OA
ENDBRANCH   1   8
BRANCH   2  13
ATOM     13  C   UNL     1       8.010   7.376  17.823  0.00  0.00    +0.000 C 
BRANCH  13  14
ATOM     14  C   UNL     1       8.088   8.904  17.911  0.00  0.00    +0.000 C 
BRANCH  14  15
ATOM     15  C   UNL     1       8.898   9.365  19.127  0.00  0.00    +0.000 C 
BRANCH  15  16
ATOM     16  C   UNL     1       9.475  10.737  18.942  0.00  0.00    +0.000 A 
ATOM     17  C   UNL     1      10.084  11.193  17.721  0.00  0.00    +0.000 A 
ATOM     18  C   UNL     1      10.512  12.492  17.821  0.00  0.00    +0.000 A 
ATOM     19 CL   UNL     1      11.282  13.416  16.595  0.00  0.00    +0.000 Cl
ATOM     20  S   UNL     1      10.218  13.182  19.336  0.00  0.00    +0.000 S 
ATOM     21  C   UNL     1       9.505  11.745  19.884  0.00  0.00    +0.000 A 
ATOM     22 CL   UNL     1       8.905  11.681  21.496  0.00  0.00    +0.000 Cl
ENDBRANCH  15  16
ENDBRANCH  14  15
ENDBRANCH  13  14
ENDBRANCH   2  13
TORSDOF 5
ENDMDL
MODEL 2
REMARK VINA RESULT:      -7.0      1.404      1.463
REMARK  Name = 
REMARK  6 active torsions:
REMARK  status: ('A' for Active; 'I' for Inactive)
REMARK    1  A    between atoms: C_1  and  N_2
REMARK    2  A    between atoms: C_4  and  N_5
REMARK    3  A    between atoms: C_6  and  C_8
REMARK    4  A    between atoms: C_8  and  C_9
REMARK    5  A    between atoms: C_9  and  C_10
REMARK    6  A    between atoms: C_10  and  C_11
REMARK                            x       y       z     vdW  Elec       q    Type
REMARK                         _______ _______ _______ _____ _____    ______ ____
ROOT
ATOM      1  N   UNL     1       6.060   6.014  18.388  0.00  0.00    +0.000 N 
ATOM      2  C   UNL     1       6.678   6.880  17.512  0.00  0.00    +0.000 C 
ATOM      3  O   UNL     1       6.218   7.144  16.404  0.00  0.00    +0.000 OA
ATOM      4  H   UNL     1       6.425   5.914  19.328  0.00  0.00    +0.000 HD
ENDROOT
BRANCH   1   8
ATOM      5  C   UNL     1       1.601   4.643  20.111  0.00  0.00    +0.000 C 
ATOM      6  N   UNL     1       2.597   4.627  19.055  0.00  0.00    +0.000 N 
ATOM      7  C   UNL     1       3.868   5.298  19.318  0.00  0.00    +0.000 C 
ATOM      8  C   UNL     1       4.748   5.461  18.071  0.00  0.00    +0.000 C 
ATOM      9  C   UNL     1       4.876   4.106  17.394  0.00  0.00    +0.000 C 
ATOM     10  C   UNL     1       3.502   3.623  16.970  0.00  0.00    +0.000 C 
ATOM     11  C   UNL     1       2.451   3.665  18.064  0.00  0.00    +0.000 C 
ATOM     12  O   UNL     1       1.468   2.926  18.001  0.00  0.00    +0.000 OA
ENDBRANCH   1   8
BRANCH   2  13
ATOM     13  C   UNL     1       7.975   7.468  18.027  0.00  0.00    +0.000 C 
BRANCH  13  14
ATOM     14  C   UNL     1       8.012   8.989  17.847  0.00  0.00    +0.000 C 
BRANCH  14  15
ATOM     15  C   UNL     1       9.145   9.631  18.653  0.00  0.00    +0.000 C 
BRANCH  15  16
ATOM     16  C   UNL     1       9.221  11.116  18.450  0.00  0.00    +0.000 A 
ATOM     17  C   UNL     1       8.127  11.915  17.968  0.00  0.00    +0.000 A 
ATOM     18  C   UNL     1       8.462  13.243  17.893  0.00  0.00    +0.000 A 
ATOM     19 CL   UNL     1       7.450  14.531  17.378  0.00  0.00    +0.000 Cl
ATOM     20  S   UNL     1      10.053  13.562  18.371  0.00  0.00    +0.000 S 
ATOM     21  C   UNL     1      10.316  11.919  18.692  0.00  0.00    +0.000 A 
ATOM     22 CL   UNL     1      11.861  11.426  19.271  0.00  0.00    +0.000 Cl
ENDBRANCH  15  16
ENDBRANCH  14  15
ENDBRANCH  13  14
ENDBRANCH   2  13
TORSDOF 5
ENDMDL
MODEL 3
REMARK VINA RESULT:      -6.9      4.740      7.351
REMARK  Name = 
REMARK  6 active torsions:
REMARK  status: ('A' for Active; 'I' for Inactive)
REMARK    1  A    between atoms: C_1  and  N_2
REMARK    2  A    between atoms: C_4  and  N_5
REMARK    3  A    between atoms: C_6  and  C_8
REMARK    4  A    between atoms: C_8  and  C_9
REMARK    5  A    between atoms: C_9  and  C_10
REMARK    6  A    between atoms: C_10  and  C_11
REMARK                            x       y       z     vdW  Elec       q    Type
REMARK                         _______ _______ _______ _____ _____    ______ ____
ROOT
ATOM      1  N   UNL     1       3.251   3.698  18.492  0.00  0.00    +0.000 N 
ATOM      2  C   UNL     1       3.180   3.134  19.747  0.00  0.00    +0.000 C 
ATOM      3  O   UNL     1       4.156   2.643  20.311  0.00  0.00    +0.000 OA
ATOM      4  H   UNL     1       2.443   4.183  18.119  0.00  0.00    +0.000 HD
ENDROOT
BRANCH   1   8
ATOM      5  C   UNL     1       7.563   6.167  18.272  0.00  0.00    +0.000 C 
ATOM      6  N   UNL     1       6.603   5.260  17.667  0.00  0.00    +0.000 N 
ATOM      7  C   UNL     1       5.365   5.004  18.398  0.00  0.00    +0.000 C 
ATOM      8  C   UNL     1       4.539   3.845  17.824  0.00  0.00    +0.000 C 
ATOM      9  C   UNL     1       4.357   4.078  16.333  0.00  0.00    +0.000 C 
ATOM     10  C   UNL     1       5.715   4.101  15.657  0.00  0.00    +0.000 C 
ATOM     11  C   UNL     1       6.728   5.027  16.304  0.00  0.00    +0.000 C 
ATOM     12  O   UNL     1       7.669   5.467  15.642  0.00  0.00    +0.000 OA
ENDBRANCH   1   8
BRANCH   2  13
ATOM     13  C   UNL     1       1.799   3.159  20.366  0.00  0.00    +0.000 C 
BRANCH  13  14
ATOM     14  C   UNL     1       1.211   4.574  20.369  0.00  0.00    +0.000 C 
BRANCH  14  15
ATOM     15  C   UNL     1       2.277   5.634  20.666  0.00  0.00    +0.000 C 
BRANCH  15  16
ATOM     16  C   UNL     1       1.789   7.027  20.396  0.00  0.00    +0.000 A 
ATOM     17  C   UNL     1       1.000   7.793  21.324  0.00  0.00    +0.000 A 
ATOM     18  C   UNL     1       0.706   9.039  20.832  0.00  0.00    +0.000 A 
ATOM     19 CL   UNL     1      -0.203  10.265  21.619  0.00  0.00    +0.000 Cl
ATOM     20  S   UNL     1       1.336   9.318  19.288  0.00  0.00    +0.000 S 
ATOM     21  C   UNL     1       2.019   7.768  19.255  0.00  0.00    +0.000 A 
ATOM     22 CL   UNL     1       2.905   7.282  17.861  0.00  0.00    +0.000 Cl
ENDBRANCH  15  16
ENDBRANCH  14  15
ENDBRANCH  13  14
ENDBRANCH   2  13
TORSDOF 5
ENDMDL
MODEL 4
REMARK VINA RESULT:      -6.8      4.960      6.613
REMARK  Name = 
REMARK  6 active torsions:
REMARK  status: ('A' for Active; 'I' for Inactive)
REMARK    1  A    between atoms: C_1  and  N_2
REMARK    2  A    between atoms: C_4  and  N_5
REMARK    3  A    between atoms: C_6  and  C_8
REMARK    4  A    between atoms: C_8  and  C_9
REMARK    5  A    between atoms: C_9  and  C_10
REMARK    6  A    between atoms: C_10  and  C_11
REMARK                            x       y       z     vdW  Elec       q    Type
REMARK                         _______ _______ _______ _____ _____    ______ ____
ROOT
ATOM      1  N   UNL     1       5.106   5.887  18.437  0.00  0.00    +0.000 N 
ATOM      2  C   UNL     1       6.448   5.781  18.726  0.00  0.00    +0.000 C 
ATOM      3  O   UNL     1       6.870   5.192  19.719  0.00  0.00    +0.000 OA
ATOM      4  H   UNL     1       4.818   6.290  17.553  0.00  0.00    +0.000 HD
ENDROOT
BRANCH   1   8
ATOM      5  C   UNL     1       2.168   1.901  18.900  0.00  0.00    +0.000 C 
ATOM      6  N   UNL     1       2.539   3.242  19.317  0.00  0.00    +0.000 N 
ATOM      7  C   UNL     1       3.620   3.899  18.586  0.00  0.00    +0.000 C 
ATOM      8  C   UNL     1       4.121   5.187  19.254  0.00  0.00    +0.000 C 
ATOM      9  C   UNL     1       2.921   6.075  19.543  0.00  0.00    +0.000 C 
ATOM     10  C   UNL     1       1.981   5.357  20.493  0.00  0.00    +0.000 C 
ATOM     11  C   UNL     1       1.613   3.946  20.074  0.00  0.00    +0.000 C 
ATOM     12  O   UNL     1       0.569   3.437  20.482  0.00  0.00    +0.000 OA
ENDBRANCH   1   8
BRANCH   2  13
ATOM     13  C   UNL     1       7.358   6.459  17.724  0.00  0.00    +0.000 C 
BRANCH  13  14
ATOM     14  C   UNL     1       6.909   6.188  16.285  0.00  0.00    +0.000 C 
BRANCH  14  15
ATOM     15  C   UNL     1       7.155   4.734  15.874  0.00  0.00    +0.000 C 
BRANCH  15  16
ATOM     16  C   UNL     1       6.869   4.493  14.421  0.00  0.00    +0.000 A 
ATOM     17  C   UNL     1       5.734   3.749  13.941  0.00  0.00    +0.000 A 
ATOM     18  C   UNL     1       5.705   3.697  12.570  0.00  0.00    +0.000 A 
ATOM     19 CL   UNL     1       4.522   2.919  11.598  0.00  0.00    +0.000 Cl
ATOM     20  S   UNL     1       7.000   4.501  11.839  0.00  0.00    +0.000 S 
ATOM     21  C   UNL     1       7.621   4.938  13.354  0.00  0.00    +0.000 A 
ATOM     22 CL   UNL     1       9.072   5.863  13.419  0.00  0.00    +0.000 Cl
ENDBRANCH  15  16
ENDBRANCH  14  15
ENDBRANCH  13  14
ENDBRANCH   2  13
TORSDOF 5
ENDMDL
MODEL 5
REMARK VINA RESULT:      -6.7      6.630      9.145
REMARK  Name = 
REMARK  6 active torsions:
REMARK  status: ('A' for Active; 'I' for Inactive)
REMARK    1  A    between atoms: C_1  and  N_2
REMARK    2  A    between atoms: C_4  and  N_5
REMARK    3  A    between atoms: C_6  and  C_8
REMARK    4  A    between atoms: C_8  and  C_9
REMARK    5  A    between atoms: C_9  and  C_10
REMARK    6  A    between atoms: C_10  and  C_11
REMARK                            x       y       z     vdW  Elec       q    Type
REMARK                         _______ _______ _______ _____ _____    ______ ____
ROOT
ATOM      1  N   UNL     1       1.501   8.931  19.738  0.00  0.00    +0.000 N 
ATOM      2  C   UNL     1       1.463   9.035  18.365  0.00  0.00    +0.000 C 
ATOM      3  O   UNL     1       0.552   9.602  17.765  0.00  0.00    +0.000 OA
ATOM      4  H   UNL     1       2.326   8.548  20.185  0.00  0.00    +0.000 HD
ENDROOT
BRANCH   1   8
ATOM      5  C   UNL     1      -0.169  13.264  21.520  0.00  0.00    +0.000 C 
ATOM      6  N   UNL     1      -0.162  11.812  21.554  0.00  0.00    +0.000 N 
ATOM      7  C   UNL     1       0.745  11.122  20.640  0.00  0.00    +0.000 C 
ATOM      8  C   UNL     1       0.499   9.609  20.553  0.00  0.00    +0.000 C 
ATOM      9  C   UNL     1       0.472   9.045  21.965  0.00  0.00    +0.000 C 
ATOM     10  C   UNL     1      -0.661   9.688  22.742  0.00  0.00    +0.000 C 
ATOM     11  C   UNL     1      -0.687  11.204  22.686  0.00  0.00    +0.000 C 
ATOM     12  O   UNL     1      -1.242  11.842  23.581  0.00  0.00    +0.000 OA
ENDBRANCH   1   8
BRANCH   2  13
ATOM     13  C   UNL     1       2.633   8.383  17.657  0.00  0.00    +0.000 C 
BRANCH  13  14
ATOM     14  C   UNL     1       3.054   7.083  18.350  0.00  0.00    +0.000 C 
BRANCH  14  15
ATOM     15  C   UNL     1       2.192   5.897  17.909  0.00  0.00    +0.000 C 
BRANCH  15  16
ATOM     16  C   UNL     1       2.452   4.665  18.726  0.00  0.00    +0.000 A 
ATOM     17  C   UNL     1       1.771   4.360  19.956  0.00  0.00    +0.000 A 
ATOM     18  C   UNL     1       2.189   3.166  20.485  0.00  0.00    +0.000 A 
ATOM     19 CL   UNL     1       1.627   2.433  21.933  0.00  0.00    +0.000 Cl
ATOM     20  S   UNL     1       3.382   2.402  19.562  0.00  0.00    +0.000 S 
ATOM     21  C   UNL     1       3.354   3.663  18.430  0.00  0.00    +0.000 A 
ATOM     22 CL   UNL     1       4.405   3.578  17.069  0.00  0.00    +0.000 Cl
ENDBRANCH  15  16
ENDBRANCH  14  15
ENDBRANCH  13  14
ENDBRANCH   2  13
TORSDOF 5
ENDMDL
MODEL 6
REMARK VINA RESULT:      -6.6      6.798      9.109
REMARK  Name = 
REMARK  6 active torsions:
REMARK  status: ('A' for Active; 'I' for Inactive)
REMARK    1  A    between atoms: C_1  and  N_2
REMARK    2  A    between atoms: C_4  and  N_5
REMARK    3  A    between atoms: C_6  and  C_8
REMARK    4  A    between atoms: C_8  and  C_9
REMARK    5  A    between atoms: C_9  and  C_10
REMARK    6  A    between atoms: C_10  and  C_11
REMARK                            x       y       z     vdW  Elec       q    Type
REMARK                         _______ _______ _______ _____ _____    ______ ____
ROOT
ATOM      1  N   UNL     1       1.303   9.075  19.739  0.00  0.00    +0.000 N 
ATOM      2  C   UNL     1       1.194   9.138  18.368  0.00  0.00    +0.000 C 
ATOM      3  O   UNL     1       0.241   9.666  17.800  0.00  0.00    +0.000 OA
ATOM      4  H   UNL     1       2.159   8.724  20.154  0.00  0.00    +0.000 HD
ENDROOT
BRANCH   1   8
ATOM      5  C   UNL     1      -0.335  13.412  21.540  0.00  0.00    +0.000 C 
ATOM      6  N   UNL     1      -0.314  11.960  21.588  0.00  0.00    +0.000 N 
ATOM      7  C   UNL     1       0.564  11.269  20.648  0.00  0.00    +0.000 C 
ATOM      8  C   UNL     1       0.327   9.753  20.586  0.00  0.00    +0.000 C 
ATOM      9  C   UNL     1       0.360   9.204  22.003  0.00  0.00    +0.000 C 
ATOM     10  C   UNL     1      -0.749   9.846  22.816  0.00  0.00    +0.000 C 
ATOM     11  C   UNL     1      -0.790  11.361  22.746  0.00  0.00    +0.000 C 
ATOM     12  O   UNL     1      -1.316  12.004  23.655  0.00  0.00    +0.000 OA
ENDBRANCH   1   8
BRANCH   2  13
ATOM     13  C   UNL     1       2.342   8.493  17.620  0.00  0.00    +0.000 C 
BRANCH  13  14
ATOM     14  C   UNL     1       3.017   7.404  18.459  0.00  0.00    +0.000 C 
BRANCH  14  15
ATOM     15  C   UNL     1       3.798   6.415  17.589  0.00  0.00    +0.000 C 
BRANCH  15  16
ATOM     16  C   UNL     1       3.284   5.011  17.715  0.00  0.00    +0.000 A 
ATOM     17  C   UNL     1       2.071   4.661  18.406  0.00  0.00    +0.000 A 
ATOM     18  C   UNL     1       1.827   3.312  18.353  0.00  0.00    +0.000 A 
ATOM     19 CL   UNL     1       0.490   2.483  19.041  0.00  0.00    +0.000 Cl
ATOM     20  S   UNL     1       3.012   2.448  17.512  0.00  0.00    +0.000 S 
ATOM     21  C   UNL     1       3.872   3.874  17.199  0.00  0.00    +0.000 A 
ATOM     22 CL   UNL     1       5.337   3.778  16.300  0.00  0.00    +0.000 Cl
ENDBRANCH  15  16
ENDBRANCH  14  15
ENDBRANCH  13  14
ENDBRANCH   2  13
TORSDOF 5
ENDMDL
MODEL 7
REMARK VINA RESULT:      -6.6      4.490      7.129
REMARK  Name = 
REMARK  6 active torsions:
REMARK  status: ('A' for Active; 'I' for Inactive)
REMARK    1  A    between atoms: C_1  and  N_2
REMARK    2  A    between atoms: C_4  and  N_5
REMARK    3  A    between atoms: C_6  and  C_8
REMARK    4  A    between atoms: C_8  and  C_9
REMARK    5  A    between atoms: C_9  and  C_10
REMARK    6  A    between atoms: C_10  and  C_11
REMARK                            x       y       z     vdW  Elec       q    Type
REMARK                         _______ _______ _______ _____ _____    ______ ____
ROOT
ATOM      1  N   UNL     1       3.560   4.407  18.810  0.00  0.00    +0.000 N 
ATOM      2  C   UNL     1       3.398   3.491  19.826  0.00  0.00    +0.000 C 
ATOM      3  O   UNL     1       4.227   2.619  20.074  0.00  0.00    +0.000 OA
ATOM      4  H   UNL     1       2.899   5.169  18.718  0.00  0.00    +0.000 HD
ENDROOT
BRANCH   1   8
ATOM      5  C   UNL     1       7.473   7.130  17.392  0.00  0.00    +0.000 C 
ATOM      6  N   UNL     1       6.645   5.947  17.238  0.00  0.00    +0.000 N 
ATOM      7  C   UNL     1       5.465   5.835  18.092  0.00  0.00    +0.000 C 
ATOM      8  C   UNL     1       4.806   4.449  18.052  0.00  0.00    +0.000 C 
ATOM      9  C   UNL     1       4.572   4.071  16.598  0.00  0.00    +0.000 C 
ATOM     10  C   UNL     1       5.904   4.007  15.875  0.00  0.00    +0.000 C 
ATOM     11  C   UNL     1       6.783   5.230  16.057  0.00  0.00    +0.000 C 
ATOM     12  O   UNL     1       7.643   5.499  15.217  0.00  0.00    +0.000 OA
ENDBRANCH   1   8
BRANCH   2  13
ATOM     13  C   UNL     1       2.107   3.644  20.604  0.00  0.00    +0.000 C 
BRANCH  13  14
ATOM     14  C   UNL     1       1.361   4.922  20.207  0.00  0.00    +0.000 C 
BRANCH  14  15
ATOM     15  C   UNL     1       1.649   6.074  21.175  0.00  0.00    +0.000 C 
BRANCH  15  16
ATOM     16  C   UNL     1       1.440   7.419  20.543  0.00  0.00    +0.000 A 
ATOM     17  C   UNL     1       2.064   7.832  19.314  0.00  0.00    +0.000 A 
ATOM     18  C   UNL     1       1.685   9.101  18.954  0.00  0.00    +0.000 A 
ATOM     19 CL   UNL     1       2.191   9.966  17.560  0.00  0.00    +0.000 Cl
ATOM     20  S   UNL     1       0.614   9.818  20.048  0.00  0.00    +0.000 S 
ATOM     21  C   UNL     1       0.636   8.432  21.023  0.00  0.00    +0.000 A 
ATOM     22 CL   UNL     1      -0.310   8.416  22.461  0.00  0.00    +0.000 Cl
ENDBRANCH  15  16
ENDBRANCH  14  15
ENDBRANCH  13  14
ENDBRANCH   2  13
TORSDOF 5
ENDMDL
MODEL 8
REMARK VINA RESULT:      -6.6      6.989      8.237
REMARK  Name = 
REMARK  6 active torsions:
REMARK  status: ('A' for Active; 'I' for Inactive)
REMARK    1  A    between atoms: C_1  and  N_2
REMARK    2  A    between atoms: C_4  and  N_5
REMARK    3  A    between atoms: C_6  and  C_8
REMARK    4  A    between atoms: C_8  and  C_9
REMARK    5  A    between atoms: C_9  and  C_10
REMARK    6  A    between atoms: C_10  and  C_11
REMARK                            x       y       z     vdW  Elec       q    Type
REMARK                         _______ _______ _______ _____ _____    ______ ____
ROOT
ATOM      1  N   UNL     1       1.923   6.671  20.626  0.00  0.00    +0.000 N 
ATOM      2  C   UNL     1       1.695   7.980  20.263  0.00  0.00    +0.000 C 
ATOM      3  O   UNL     1       1.864   8.391  19.118  0.00  0.00    +0.000 OA
ATOM      4  H   UNL     1       1.666   6.361  21.556  0.00  0.00    +0.000 HD
ENDROOT
BRANCH   1   8
ATOM      5  C   UNL     1       1.050   2.130  18.795  0.00  0.00    +0.000 C 
ATOM      6  N   UNL     1       1.891   3.311  18.873  0.00  0.00    +0.000 N 
ATOM      7  C   UNL     1       1.478   4.372  19.789  0.00  0.00    +0.000 C 
ATOM      8  C   UNL     1       2.266   5.677  19.614  0.00  0.00    +0.000 C 
ATOM      9  C   UNL     1       3.750   5.351  19.652  0.00  0.00    +0.000 C 
ATOM     10  C   UNL     1       4.088   4.412  18.510  0.00  0.00    +0.000 C 
ATOM     11  C   UNL     1       3.194   3.190  18.408  0.00  0.00    +0.000 C 
ATOM     12  O   UNL     1       3.603   2.174  17.846  0.00  0.00    +0.000 OA
ENDBRANCH   1   8
BRANCH   2  13
ATOM     13  C   UNL     1       1.229   8.869  21.397  0.00  0.00    +0.000 C 
BRANCH  13  14
ATOM     14  C   UNL     1      -0.137   9.494  21.095  0.00  0.00    +0.000 C 
BRANCH  14  15
ATOM     15  C   UNL     1      -0.012  10.750  20.228  0.00  0.00    +0.000 C 
BRANCH  15  16
ATOM     16  C   UNL     1      -1.097  10.843  19.196  0.00  0.00    +0.000 A 
ATOM     17  C   UNL     1      -1.083  10.121  17.951  0.00  0.00    +0.000 A 
ATOM     18  C   UNL     1      -2.204  10.376  17.204  0.00  0.00    +0.000 A 
ATOM     19 CL   UNL     1      -2.583   9.716  15.664  0.00  0.00    +0.000 Cl
ATOM     20  S   UNL     1      -3.269  11.463  17.939  0.00  0.00    +0.000 S 
ATOM     21  C   UNL     1      -2.243  11.606  19.280  0.00  0.00    +0.000 A 
ATOM     22 CL   UNL     1      -2.708  12.645  20.573  0.00  0.00    +0.000 Cl
ENDBRANCH  15  16
ENDBRANCH  14  15
ENDBRANCH  13  14
ENDBRANCH   2  13
TORSDOF 5
ENDMDL
MODEL 9
REMARK VINA RESULT:      -6.6      5.194      7.249
REMARK  Name = 
REMARK  6 active torsions:
REMARK  status: ('A' for Active; 'I' for Inactive)
REMARK    1  A    between atoms: C_1  and  N_2
REMARK    2  A    between atoms: C_4  and  N_5
REMARK    3  A    between atoms: C_6  and  C_8
REMARK    4  A    between atoms: C_8  and  C_9
REMARK    5  A    between atoms: C_9  and  C_10
REMARK    6  A    between atoms: C_10  and  C_11
REMARK                            x       y       z     vdW  Elec       q    Type
REMARK                         _______ _______ _______ _____ _____    ______ ____
ROOT
ATOM      1  N   UNL     1       3.151   6.261  19.011  0.00  0.00    +0.000 N 
ATOM      2  C   UNL     1       2.368   5.353  19.689  0.00  0.00    +0.000 C 
ATOM      3  O   UNL     1       2.356   4.154  19.419  0.00  0.00    +0.000 OA
ATOM      4  H   UNL     1       3.203   7.218  19.342  0.00  0.00    +0.000 HD
ENDROOT
BRANCH   1   8
ATOM      5  C   UNL     1       7.767   4.660  18.085  0.00  0.00    +0.000 C 
ATOM      6  N   UNL     1       6.500   5.182  17.605  0.00  0.00    +0.000 N 
ATOM      7  C   UNL     1       5.488   5.516  18.604  0.00  0.00    +0.000 C 
ATOM      8  C   UNL     1       4.104   5.804  18.006  0.00  0.00    +0.000 C 
ATOM      9  C   UNL     1       4.264   6.833  16.898  0.00  0.00    +0.000 C 
ATOM     10  C   UNL     1       5.165   6.270  15.815  0.00  0.00    +0.000 C 
ATOM     11  C   UNL     1       6.478   5.699  16.316  0.00  0.00    +0.000 C 
ATOM     12  O   UNL     1       7.445   5.623  15.558  0.00  0.00    +0.000 OA
ENDBRANCH   1   8
BRANCH   2  13
ATOM     13  C   UNL     1       1.517   5.958  20.785  0.00  0.00    +0.000 C 
BRANCH  13  14
ATOM     14  C   UNL     1       1.625   7.486  20.801  0.00  0.00    +0.000 C 
BRANCH  14  15
ATOM     15  C   UNL     1       0.274   8.151  21.082  0.00  0.00    +0.000 C 
BRANCH  15  16
ATOM     16  C   UNL     1       0.316   9.638  20.884  0.00  0.00    +0.000 A 
ATOM     17  C   UNL     1       0.875  10.275  19.721  0.00  0.00    +0.000 A 
ATOM     18  C   UNL     1       0.767  11.641  19.790  0.00  0.00    +0.000 A 
ATOM     19 CL   UNL     1       1.299  12.773  18.613  0.00  0.00    +0.000 Cl
ATOM     20  S   UNL     1       0.028  12.186  21.209  0.00  0.00    +0.000 S 
ATOM     21  C   UNL     1      -0.165  10.593  21.755  0.00  0.00    +0.000 A 
ATOM     22 CL   UNL     1      -0.917  10.326  23.280  0.00  0.00    +0.000 Cl
ENDBRANCH  15  16
ENDBRANCH  14  15
ENDBRANCH  13  14
ENDBRANCH   2  13
TORSDOF 5
ENDMDL
