MODEL 1
REMARK VINA RESULT:      -7.0      0.000      0.000
REMARK  Name = 
REMARK  10 active torsions:
REMARK  status: ('A' for Active; 'I' for Inactive)
REMARK    1  A    between atoms: C_1  and  C_2
REMARK    2  A    between atoms: C_5  and  N_6
REMARK    3  A    between atoms: N_6  and  C_15
REMARK    4  A    between atoms: C_7  and  C_9
REMARK    5  A    between atoms: C_13  and  C_14
REMARK    6  A    between atoms: C_15  and  C_16
REMARK    7  A    between atoms: C_15  and  C_22
REMARK    8  A    between atoms: N_18  and  C_19
REMARK    9  A    between atoms: C_19  and  C_20
REMARK   10  A    between atoms: C_19  and  C_21
REMARK                            x       y       z     vdW  Elec       q    Type
REMARK                         _______ _______ _______ _____ _____    ______ ____
ROOT
ATOM      1  N   UNL     1       0.674  12.509  20.269  0.00  0.00    +0.000 N 
ATOM      2  C   UNL     1       1.704  13.450  20.567  0.00  0.00    +0.000 C 
ATOM      3  O   UNL     1       2.862  13.292  20.191  0.00  0.00    +0.000 OA
ENDROOT
BRANCH   1   8
ATOM      4  C   UNL     1       2.264   7.259  18.283  0.00  0.00    +0.000 C 
ATOM      5  C   UNL     1       1.816   8.601  18.766  0.00  0.00    +0.000 A 
ATOM      6  C   UNL     1       1.978   9.738  17.981  0.00  0.00    +0.000 A 
ATOM      7  C   UNL     1       1.632  11.001  18.485  0.00  0.00    +0.000 A 
ATOM      8  C   UNL     1       1.046  11.180  19.756  0.00  0.00    +0.000 A 
ATOM      9  C   UNL     1       0.883  10.012  20.516  0.00  0.00    +0.000 A 
ATOM     10  C   UNL     1       1.296   8.764  20.042  0.00  0.00    +0.000 A 
ATOM     11  F   UNL     1       1.194   7.706  20.859  0.00  0.00    +0.000 F 
ENDBRANCH   1   8
BRANCH   2  12
ATOM     12  C   UNL     1       1.394  14.715  21.259  0.00  0.00    +0.000 A 
ATOM     13  N   UNL     1       1.276  14.816  22.639  0.00  0.00    +0.000 NA
ATOM     14  N   UNL     1       1.003  16.058  23.022  0.00  0.00    +0.000 NA
ATOM     15  S   UNL     1       0.939  17.137  21.750  0.00  0.00    +0.000 S 
ATOM     16  C   UNL     1       1.277  15.926  20.581  0.00  0.00    +0.000 A 
ATOM     17  C   UNL     1       1.397  16.243  19.132  0.00  0.00    +0.000 C 
ENDBRANCH   2  12
BRANCH   1  18
ATOM     18  C   UNL     1      -0.739  12.995  20.078  0.00  0.00    +0.000 C 
BRANCH  18  19
ATOM     19  C   UNL     1      -1.776  12.665  21.180  0.00  0.00    +0.000 A 
ATOM     20  C   UNL     1      -3.133  13.021  21.123  0.00  0.00    +0.000 A 
ATOM     21  C   UNL     1      -3.961  12.889  22.251  0.00  0.00    +0.000 A 
ATOM     22  C   UNL     1      -3.461  12.344  23.427  0.00  0.00    +0.000 A 
ATOM     23 CL   UNL     1      -4.449  12.264  24.833  0.00  0.00    +0.000 Cl
ATOM     24  C   UNL     1      -2.158  11.871  23.475  0.00  0.00    +0.000 A 
ATOM     25  C   UNL     1      -1.337  12.008  22.351  0.00  0.00    +0.000 A 
ENDBRANCH  18  19
BRANCH  18  26
ATOM     26  C   UNL     1      -1.240  12.642  18.621  0.00  0.00    +0.000 C 
ATOM     27  O   UNL     1      -0.775  13.158  17.606  0.00  0.00    +0.000 OA
ATOM     28  N   UNL     1      -2.125  11.580  18.513  0.00  0.00    +0.000 N 
ATOM     29  H   UNL     1      -2.729  11.391  19.306  0.00  0.00    +0.000 HD
BRANCH  28  30
ATOM     30  C   UNL     1      -2.604  11.173  17.195  0.00  0.00    +0.000 C 
ATOM     31  C   UNL     1      -2.104   9.779  16.851  0.00  0.00    +0.000 C 
ATOM     32  C   UNL     1      -4.127  11.254  17.128  0.00  0.00    +0.000 C 
ENDBRANCH  28  30
ENDBRANCH  18  26
ENDBRANCH   1  18
TORSDOF 6
ENDMDL
MODEL 2
REMARK VINA RESULT:      -7.0      1.528      2.000
REMARK  Name = 
REMARK  10 active torsions:
REMARK  status: ('A' for Active; 'I' for Inactive)
REMARK    1  A    between atoms: C_1  and  C_2
REMARK    2  A    between atoms: C_5  and  N_6
REMARK    3  A    between atoms: N_6  and  C_15
REMARK    4  A    between atoms: C_7  and  C_9
REMARK    5  A    between atoms: C_13  and  C_14
REMARK    6  A    between atoms: C_15  and  C_16
REMARK    7  A    between atoms: C_15  and  C_22
REMARK    8  A    between atoms: N_18  and  C_19
REMARK    9  A    between atoms: C_19  and  C_20
REMARK   10  A    between atoms: C_19  and  C_21
REMARK                            x       y       z     vdW  Elec       q    Type
REMARK                         _______ _______ _______ _____ _____    ______ ____
ROOT
ATOM      1  N   UNL     1       0.246  12.154  19.397  0.00  0.00    +0.000 N 
ATOM      2  C   UNL     1       1.071  13.265  19.048  0.00  0.00    +0.000 C 
ATOM      3  O   UNL     1       2.118  13.130  18.421  0.00  0.00    +0.000 OA
ENDROOT
BRANCH   1   8
ATOM      4  C   UNL     1       2.511   6.801  18.911  0.00  0.00    +0.000 C 
ATOM      5  C   UNL     1       1.890   8.156  19.016  0.00  0.00    +0.000 A 
ATOM      6  C   UNL     1       1.837   9.009  17.918  0.00  0.00    +0.000 A 
ATOM      7  C   UNL     1       1.328  10.310  18.056  0.00  0.00    +0.000 A 
ATOM      8  C   UNL     1       0.789  10.792  19.268  0.00  0.00    +0.000 A 
ATOM      9  C   UNL     1       0.844   9.902  20.351  0.00  0.00    +0.000 A 
ATOM     10  C   UNL     1       1.418   8.634  20.230  0.00  0.00    +0.000 A 
ATOM     11  F   UNL     1       1.520   7.873  21.329  0.00  0.00    +0.000 F 
ENDBRANCH   1   8
BRANCH   2  12
ATOM     12  C   UNL     1       0.641  14.646  19.341  0.00  0.00    +0.000 A 
ATOM     13  N   UNL     1      -0.033  15.441  18.424  0.00  0.00    +0.000 NA
ATOM     14  N   UNL     1      -0.321  16.637  18.924  0.00  0.00    +0.000 NA
ATOM     15  S   UNL     1       0.156  16.814  20.515  0.00  0.00    +0.000 S 
ATOM     16  C   UNL     1       0.808  15.228  20.595  0.00  0.00    +0.000 A 
ATOM     17  C   UNL     1       1.417  14.690  21.842  0.00  0.00    +0.000 C 
ENDBRANCH   2  12
BRANCH   1  18
ATOM     18  C   UNL     1      -1.247  12.340  19.483  0.00  0.00    +0.000 C 
BRANCH  18  19
ATOM     19  C   UNL     1      -1.883  12.473  20.890  0.00  0.00    +0.000 A 
ATOM     20  C   UNL     1      -1.294  12.000  22.073  0.00  0.00    +0.000 A 
ATOM     21  C   UNL     1      -2.025  11.953  23.272  0.00  0.00    +0.000 A 
ATOM     22  C   UNL     1      -3.328  12.434  23.319  0.00  0.00    +0.000 A 
ATOM     23 CL   UNL     1      -4.251  12.296  24.764  0.00  0.00    +0.000 Cl
ATOM     24  C   UNL     1      -3.893  13.020  22.195  0.00  0.00    +0.000 A 
ATOM     25  C   UNL     1      -3.163  13.060  21.003  0.00  0.00    +0.000 A 
ENDBRANCH  18  19
BRANCH  18  26
ATOM     26  C   UNL     1      -1.976  11.282  18.564  0.00  0.00    +0.000 C 
ATOM     27  O   UNL     1      -2.033  10.082  18.830  0.00  0.00    +0.000 OA
ATOM     28  N   UNL     1      -2.717  11.790  17.506  0.00  0.00    +0.000 N 
ATOM     29  H   UNL     1      -2.418  12.673  17.107  0.00  0.00    +0.000 HD
BRANCH  28  30
ATOM     30  C   UNL     1      -3.447  10.875  16.634  0.00  0.00    +0.000 C 
ATOM     31  C   UNL     1      -4.918  11.256  16.569  0.00  0.00    +0.000 C 
ATOM     32  C   UNL     1      -2.817  10.839  15.244  0.00  0.00    +0.000 C 
ENDBRANCH  28  30
ENDBRANCH  18  26
ENDBRANCH   1  18
TORSDOF 6
ENDMDL
MODEL 3
REMARK VINA RESULT:      -6.8      3.812      6.387
REMARK  Name = 
REMARK  10 active torsions:
REMARK  status: ('A' for Active; 'I' for Inactive)
REMARK    1  A    between atoms: C_1  and  C_2
REMARK    2  A    between atoms: C_5  and  N_6
REMARK    3  A    between atoms: N_6  and  C_15
REMARK    4  A    between atoms: C_7  and  C_9
REMARK    5  A    between atoms: C_13  and  C_14
REMARK    6  A    between atoms: C_15  and  C_16
REMARK    7  A    between atoms: C_15  and  C_22
REMARK    8  A    between atoms: N_18  and  C_19
REMARK    9  A    between atoms: C_19  and  C_20
REMARK   10  A    between atoms: C_19  and  C_21
REMARK                            x       y       z     vdW  Elec       q    Type
REMARK                         _______ _______ _______ _____ _____    ______ ____
ROOT
ATOM      1  N   UNL     1      -1.110  13.131  20.519  0.00  0.00    +0.000 N 
ATOM      2  C   UNL     1      -0.129  12.734  21.476  0.00  0.00    +0.000 C 
ATOM      3  O   UNL     1       0.581  13.548  22.061  0.00  0.00    +0.000 OA
ENDROOT
BRANCH   1   8
ATOM      4  C   UNL     1      -1.088  18.554  18.370  0.00  0.00    +0.000 C 
ATOM      5  C   UNL     1      -1.053  17.174  18.944  0.00  0.00    +0.000 A 
ATOM      6  C   UNL     1      -0.255  16.183  18.382  0.00  0.00    +0.000 A 
ATOM      7  C   UNL     1      -0.300  14.872  18.881  0.00  0.00    +0.000 A 
ATOM      8  C   UNL     1      -1.082  14.508  19.997  0.00  0.00    +0.000 A 
ATOM      9  C   UNL     1      -1.863  15.534  20.548  0.00  0.00    +0.000 A 
ATOM     10  C   UNL     1      -1.873  16.821  20.005  0.00  0.00    +0.000 A 
ATOM     11  F   UNL     1      -2.713  17.726  20.527  0.00  0.00    +0.000 F 
ENDBRANCH   1   8
BRANCH   2  12
ATOM     12  C   UNL     1       0.001  11.322  21.882  0.00  0.00    +0.000 A 
ATOM     13  N   UNL     1      -0.459  10.837  23.100  0.00  0.00    +0.000 NA
ATOM     14  N   UNL     1      -0.236   9.534  23.229  0.00  0.00    +0.000 NA
ATOM     15  S   UNL     1       0.470   8.853  21.877  0.00  0.00    +0.000 S 
ATOM     16  C   UNL     1       0.521  10.347  21.034  0.00  0.00    +0.000 A 
ATOM     17  C   UNL     1       1.053  10.451  19.648  0.00  0.00    +0.000 C 
ENDBRANCH   2  12
BRANCH   1  18
ATOM     18  C   UNL     1      -2.371  12.320  20.372  0.00  0.00    +0.000 C 
BRANCH  18  19
ATOM     19  C   UNL     1      -2.843  11.964  18.940  0.00  0.00    +0.000 A 
ATOM     20  C   UNL     1      -4.185  11.779  18.572  0.00  0.00    +0.000 A 
ATOM     21  C   UNL     1      -4.520  11.239  17.318  0.00  0.00    +0.000 A 
ATOM     22  C   UNL     1      -3.525  10.938  16.396  0.00  0.00    +0.000 A 
ATOM     23 CL   UNL     1      -3.930  10.197  14.897  0.00  0.00    +0.000 Cl
ATOM     24  C   UNL     1      -2.199  11.225  16.685  0.00  0.00    +0.000 A 
ATOM     25  C   UNL     1      -1.870  11.758  17.936  0.00  0.00    +0.000 A 
ENDBRANCH  18  19
BRANCH  18  26
ATOM     26  C   UNL     1      -3.515  12.931  21.275  0.00  0.00    +0.000 C 
ATOM     27  O   UNL     1      -4.539  13.435  20.816  0.00  0.00    +0.000 OA
ATOM     28  N   UNL     1      -3.401  12.721  22.641  0.00  0.00    +0.000 N 
ATOM     29  H   UNL     1      -2.467  12.620  23.023  0.00  0.00    +0.000 HD
BRANCH  28  30
ATOM     30  C   UNL     1      -4.439  13.226  23.536  0.00  0.00    +0.000 C 
ATOM     31  C   UNL     1      -4.606  12.306  24.735  0.00  0.00    +0.000 C 
ATOM     32  C   UNL     1      -4.128  14.657  23.966  0.00  0.00    +0.000 C 
ENDBRANCH  28  30
ENDBRANCH  18  26
ENDBRANCH   1  18
TORSDOF 6
ENDMDL
MODEL 4
REMARK VINA RESULT:      -6.7      0.841      1.202
REMARK  Name = 
REMARK  10 active torsions:
REMARK  status: ('A' for Active; 'I' for Inactive)
REMARK    1  A    between atoms: C_1  and  C_2
REMARK    2  A    between atoms: C_5  and  N_6
REMARK    3  A    between atoms: N_6  and  C_15
REMARK    4  A    between atoms: C_7  and  C_9
REMARK    5  A    between atoms: C_13  and  C_14
REMARK    6  A    between atoms: C_15  and  C_16
REMARK    7  A    between atoms: C_15  and  C_22
REMARK    8  A    between atoms: N_18  and  C_19
REMARK    9  A    between atoms: C_19  and  C_20
REMARK   10  A    between atoms: C_19  and  C_21
REMARK                            x       y       z     vdW  Elec       q    Type
REMARK                         _______ _______ _______ _____ _____    ______ ____
ROOT
ATOM      1  N   UNL     1       0.446  12.106  20.118  0.00  0.00    +0.000 N 
ATOM      2  C   UNL     1       1.384  13.159  20.339  0.00  0.00    +0.000 C 
ATOM      3  O   UNL     1       2.533  13.113  19.908  0.00  0.00    +0.000 OA
ENDROOT
BRANCH   1   8
ATOM      4  C   UNL     1       2.492   6.995  18.188  0.00  0.00    +0.000 C 
ATOM      5  C   UNL     1       1.926   8.296  18.660  0.00  0.00    +0.000 A 
ATOM      6  C   UNL     1       1.905   9.413  17.830  0.00  0.00    +0.000 A 
ATOM      7  C   UNL     1       1.451  10.648  18.319  0.00  0.00    +0.000 A 
ATOM      8  C   UNL     1       0.934  10.808  19.622  0.00  0.00    +0.000 A 
ATOM      9  C   UNL     1       0.955   9.659  20.426  0.00  0.00    +0.000 A 
ATOM     10  C   UNL     1       1.477   8.449  19.963  0.00  0.00    +0.000 A 
ATOM     11  F   UNL     1       1.550   7.418  20.817  0.00  0.00    +0.000 F 
ENDBRANCH   1   8
BRANCH   2  12
ATOM     12  C   UNL     1       0.974  14.406  21.013  0.00  0.00    +0.000 A 
ATOM     13  N   UNL     1       1.088  14.600  22.383  0.00  0.00    +0.000 NA
ATOM     14  N   UNL     1       0.663  15.805  22.749  0.00  0.00    +0.000 NA
ATOM     15  S   UNL     1       0.175  16.746  21.459  0.00  0.00    +0.000 S 
ATOM     16  C   UNL     1       0.516  15.517  20.310  0.00  0.00    +0.000 A 
ATOM     17  C   UNL     1       0.315  15.727  18.850  0.00  0.00    +0.000 C 
ENDBRANCH   2  12
BRANCH   1  18
ATOM     18  C   UNL     1      -1.018  12.435  19.988  0.00  0.00    +0.000 C 
BRANCH  18  19
ATOM     19  C   UNL     1      -1.859  12.535  21.285  0.00  0.00    +0.000 A 
ATOM     20  C   UNL     1      -1.506  11.936  22.505  0.00  0.00    +0.000 A 
ATOM     21  C   UNL     1      -2.422  11.879  23.570  0.00  0.00    +0.000 A 
ATOM     22  C   UNL     1      -3.673  12.472  23.452  0.00  0.00    +0.000 A 
ATOM     23 CL   UNL     1      -4.824  12.326  24.722  0.00  0.00    +0.000 Cl
ATOM     24  C   UNL     1      -4.002  13.176  22.303  0.00  0.00    +0.000 A 
ATOM     25  C   UNL     1      -3.090  13.226  21.244  0.00  0.00    +0.000 A 
ENDBRANCH  18  19
BRANCH  18  26
ATOM     26  C   UNL     1      -1.680  11.520  18.882  0.00  0.00    +0.000 C 
ATOM     27  O   UNL     1      -2.176  10.421  19.124  0.00  0.00    +0.000 OA
ATOM     28  N   UNL     1      -1.839  12.088  17.626  0.00  0.00    +0.000 N 
ATOM     29  H   UNL     1      -1.176  12.804  17.348  0.00  0.00    +0.000 HD
BRANCH  28  30
ATOM     30  C   UNL     1      -2.475  11.316  16.563  0.00  0.00    +0.000 C 
ATOM     31  C   UNL     1      -1.986   9.876  16.580  0.00  0.00    +0.000 C 
ATOM     32  C   UNL     1      -3.995  11.392  16.678  0.00  0.00    +0.000 C 
ENDBRANCH  28  30
ENDBRANCH  18  26
ENDBRANCH   1  18
TORSDOF 6
ENDMDL
MODEL 5
REMARK VINA RESULT:      -6.7      1.627      2.131
REMARK  Name = 
REMARK  10 active torsions:
REMARK  status: ('A' for Active; 'I' for Inactive)
REMARK    1  A    between atoms: C_1  and  C_2
REMARK    2  A    between atoms: C_5  and  N_6
REMARK    3  A    between atoms: N_6  and  C_15
REMARK    4  A    between atoms: C_7  and  C_9
REMARK    5  A    between atoms: C_13  and  C_14
REMARK    6  A    between atoms: C_15  and  C_16
REMARK    7  A    between atoms: C_15  and  C_22
REMARK    8  A    between atoms: N_18  and  C_19
REMARK    9  A    between atoms: C_19  and  C_20
REMARK   10  A    between atoms: C_19  and  C_21
REMARK                            x       y       z     vdW  Elec       q    Type
REMARK                         _______ _______ _______ _____ _____    ______ ____
ROOT
ATOM      1  N   UNL     1       0.372  12.293  19.560  0.00  0.00    +0.000 N 
ATOM      2  C   UNL     1       1.255  13.361  19.217  0.00  0.00    +0.000 C 
ATOM      3  O   UNL     1       2.337  13.164  18.672  0.00  0.00    +0.000 OA
ENDROOT
BRANCH   1   8
ATOM      4  C   UNL     1       2.267   6.778  19.425  0.00  0.00    +0.000 C 
ATOM      5  C   UNL     1       1.823   8.204  19.480  0.00  0.00    +0.000 A 
ATOM      6  C   UNL     1       1.299   8.748  20.649  0.00  0.00    +0.000 A 
ATOM      7  C   UNL     1       0.807  10.062  20.658  0.00  0.00    +0.000 A 
ATOM      8  C   UNL     1       0.879  10.911  19.534  0.00  0.00    +0.000 A 
ATOM      9  C   UNL     1       1.426  10.336  18.377  0.00  0.00    +0.000 A 
ATOM     10  C   UNL     1       1.848   9.004  18.348  0.00  0.00    +0.000 A 
ATOM     11  F   UNL     1       2.275   8.496  17.183  0.00  0.00    +0.000 F 
ENDBRANCH   1   8
BRANCH   2  12
ATOM     12  C   UNL     1       0.851  14.766  19.414  0.00  0.00    +0.000 A 
ATOM     13  N   UNL     1       0.263  15.532  18.416  0.00  0.00    +0.000 NA
ATOM     14  N   UNL     1      -0.018  16.761  18.837  0.00  0.00    +0.000 NA
ATOM     15  S   UNL     1       0.359  17.003  20.446  0.00  0.00    +0.000 S 
ATOM     16  C   UNL     1       0.954  15.406  20.646  0.00  0.00    +0.000 A 
ATOM     17  C   UNL     1       1.463  14.915  21.955  0.00  0.00    +0.000 C 
ENDBRANCH   2  12
BRANCH   1  18
ATOM     18  C   UNL     1      -1.116  12.526  19.533  0.00  0.00    +0.000 C 
BRANCH  18  19
ATOM     19  C   UNL     1      -1.860  12.632  20.887  0.00  0.00    +0.000 A 
ATOM     20  C   UNL     1      -1.276  12.360  22.135  0.00  0.00    +0.000 A 
ATOM     21  C   UNL     1      -2.066  12.257  23.293  0.00  0.00    +0.000 A 
ATOM     22  C   UNL     1      -3.435  12.487  23.230  0.00  0.00    +0.000 A 
ATOM     23 CL   UNL     1      -4.414  12.275  24.629  0.00  0.00    +0.000 Cl
ATOM     24  C   UNL     1      -4.020  12.877  22.034  0.00  0.00    +0.000 A 
ATOM     25  C   UNL     1      -3.231  12.973  20.884  0.00  0.00    +0.000 A 
ENDBRANCH  18  19
BRANCH  18  26
ATOM     26  C   UNL     1      -1.800  11.525  18.519  0.00  0.00    +0.000 C 
ATOM     27  O   UNL     1      -2.302  10.456  18.862  0.00  0.00    +0.000 OA
ATOM     28  N   UNL     1      -1.973  11.984  17.221  0.00  0.00    +0.000 N 
ATOM     29  H   UNL     1      -1.309  12.667  16.874  0.00  0.00    +0.000 HD
BRANCH  28  30
ATOM     30  C   UNL     1      -2.630  11.128  16.237  0.00  0.00    +0.000 C 
ATOM     31  C   UNL     1      -2.104   9.705  16.329  0.00  0.00    +0.000 C 
ATOM     32  C   UNL     1      -4.146  11.177  16.409  0.00  0.00    +0.000 C 
ENDBRANCH  28  30
ENDBRANCH  18  26
ENDBRANCH   1  18
TORSDOF 6
ENDMDL
MODEL 6
REMARK VINA RESULT:      -6.6      1.551      1.706
REMARK  Name = 
REMARK  10 active torsions:
REMARK  status: ('A' for Active; 'I' for Inactive)
REMARK    1  A    between atoms: C_1  and  C_2
REMARK    2  A    between atoms: C_5  and  N_6
REMARK    3  A    between atoms: N_6  and  C_15
REMARK    4  A    between atoms: C_7  and  C_9
REMARK    5  A    between atoms: C_13  and  C_14
REMARK    6  A    between atoms: C_15  and  C_16
REMARK    7  A    between atoms: C_15  and  C_22
REMARK    8  A    between atoms: N_18  and  C_19
REMARK    9  A    between atoms: C_19  and  C_20
REMARK   10  A    between atoms: C_19  and  C_21
REMARK                            x       y       z     vdW  Elec       q    Type
REMARK                         _______ _______ _______ _____ _____    ______ ____
ROOT
ATOM      1  N   UNL     1       0.174  12.159  19.346  0.00  0.00    +0.000 N 
ATOM      2  C   UNL     1       1.005  13.298  19.123  0.00  0.00    +0.000 C 
ATOM      3  O   UNL     1       2.109  13.207  18.592  0.00  0.00    +0.000 OA
ENDROOT
BRANCH   1   8
ATOM      4  C   UNL     1       2.589   6.872  18.852  0.00  0.00    +0.000 C 
ATOM      5  C   UNL     1       1.931   8.210  18.957  0.00  0.00    +0.000 A 
ATOM      6  C   UNL     1       1.898   9.081  17.873  0.00  0.00    +0.000 A 
ATOM      7  C   UNL     1       1.352  10.367  18.015  0.00  0.00    +0.000 A 
ATOM      8  C   UNL     1       0.756  10.813  19.213  0.00  0.00    +0.000 A 
ATOM      9  C   UNL     1       0.792   9.905  20.282  0.00  0.00    +0.000 A 
ATOM     10  C   UNL     1       1.401   8.653  20.161  0.00  0.00    +0.000 A 
ATOM     11  F   UNL     1       1.480   7.875  21.249  0.00  0.00    +0.000 F 
ENDBRANCH   1   8
BRANCH   2  12
ATOM     12  C   UNL     1       0.521  14.657  19.429  0.00  0.00    +0.000 A 
ATOM     13  N   UNL     1      -0.144  15.452  18.504  0.00  0.00    +0.000 NA
ATOM     14  N   UNL     1      -0.488  16.627  19.020  0.00  0.00    +0.000 NA
ATOM     15  S   UNL     1      -0.077  16.781  20.631  0.00  0.00    +0.000 S 
ATOM     16  C   UNL     1       0.622  15.215  20.701  0.00  0.00    +0.000 A 
ATOM     17  C   UNL     1       1.201  14.667  21.958  0.00  0.00    +0.000 C 
ENDBRANCH   2  12
BRANCH   1  18
ATOM     18  C   UNL     1      -1.323  12.316  19.297  0.00  0.00    +0.000 C 
BRANCH  18  19
ATOM     19  C   UNL     1      -2.100  12.296  20.637  0.00  0.00    +0.000 A 
ATOM     20  C   UNL     1      -3.460  12.617  20.769  0.00  0.00    +0.000 A 
ATOM     21  C   UNL     1      -4.039  12.797  22.037  0.00  0.00    +0.000 A 
ATOM     22  C   UNL     1      -3.284  12.598  23.186  0.00  0.00    +0.000 A 
ATOM     23 CL   UNL     1      -3.968  12.903  24.735  0.00  0.00    +0.000 Cl
ATOM     24  C   UNL     1      -1.971  12.162  23.088  0.00  0.00    +0.000 A 
ATOM     25  C   UNL     1      -1.398  11.988  21.824  0.00  0.00    +0.000 A 
ENDBRANCH  18  19
BRANCH  18  26
ATOM     26  C   UNL     1      -1.932  11.347  18.207  0.00  0.00    +0.000 C 
ATOM     27  O   UNL     1      -2.363  10.225  18.467  0.00  0.00    +0.000 OA
ATOM     28  N   UNL     1      -2.126  11.885  16.943  0.00  0.00    +0.000 N 
ATOM     29  H   UNL     1      -1.507  12.634  16.653  0.00  0.00    +0.000 HD
BRANCH  28  30
ATOM     30  C   UNL     1      -2.717  11.061  15.893  0.00  0.00    +0.000 C 
ATOM     31  C   UNL     1      -2.174   9.642  15.956  0.00  0.00    +0.000 C 
ATOM     32  C   UNL     1      -4.241  11.081  15.987  0.00  0.00    +0.000 C 
ENDBRANCH  28  30
ENDBRANCH  18  26
ENDBRANCH   1  18
TORSDOF 6
ENDMDL
MODEL 7
REMARK VINA RESULT:      -6.6      3.113      5.059
REMARK  Name = 
REMARK  10 active torsions:
REMARK  status: ('A' for Active; 'I' for Inactive)
REMARK    1  A    between atoms: C_1  and  C_2
REMARK    2  A    between atoms: C_5  and  N_6
REMARK    3  A    between atoms: N_6  and  C_15
REMARK    4  A    between atoms: C_7  and  C_9
REMARK    5  A    between atoms: C_13  and  C_14
REMARK    6  A    between atoms: C_15  and  C_16
REMARK    7  A    between atoms: C_15  and  C_22
REMARK    8  A    between atoms: N_18  and  C_19
REMARK    9  A    between atoms: C_19  and  C_20
REMARK   10  A    between atoms: C_19  and  C_21
REMARK                            x       y       z     vdW  Elec       q    Type
REMARK                         _______ _______ _______ _____ _____    ______ ____
ROOT
ATOM      1  N   UNL     1      -0.361  13.104  20.213  0.00  0.00    +0.000 N 
ATOM      2  C   UNL     1      -1.320  14.080  20.616  0.00  0.00    +0.000 C 
ATOM      3  O   UNL     1      -1.134  15.284  20.459  0.00  0.00    +0.000 OA
ENDROOT
BRANCH   1   8
ATOM      4  C   UNL     1       5.010  14.953  18.883  0.00  0.00    +0.000 C 
ATOM      5  C   UNL     1       3.645  14.436  19.206  0.00  0.00    +0.000 A 
ATOM      6  C   UNL     1       2.655  14.365  18.231  0.00  0.00    +0.000 A 
ATOM      7  C   UNL     1       1.355  13.959  18.571  0.00  0.00    +0.000 A 
ATOM      8  C   UNL     1       1.003  13.541  19.872  0.00  0.00    +0.000 A 
ATOM      9  C   UNL     1       2.028  13.611  20.827  0.00  0.00    +0.000 A 
ATOM     10  C   UNL     1       3.302  14.085  20.504  0.00  0.00    +0.000 A 
ATOM     11  F   UNL     1       4.204  14.211  21.487  0.00  0.00    +0.000 F 
ENDBRANCH   1   8
BRANCH   2  12
ATOM     12  C   UNL     1      -2.634  13.672  21.149  0.00  0.00    +0.000 A 
ATOM     13  N   UNL     1      -3.773  13.567  20.361  0.00  0.00    +0.000 NA
ATOM     14  N   UNL     1      -4.827  13.173  21.067  0.00  0.00    +0.000 NA
ATOM     15  S   UNL     1      -4.466  12.865  22.668  0.00  0.00    +0.000 S 
ATOM     16  C   UNL     1      -2.812  13.279  22.473  0.00  0.00    +0.000 A 
ATOM     17  C   UNL     1      -1.842  13.192  23.599  0.00  0.00    +0.000 C 
ENDBRANCH   2  12
BRANCH   1  18
ATOM     18  C   UNL     1      -0.833  11.752  19.746  0.00  0.00    +0.000 C 
BRANCH  18  19
ATOM     19  C   UNL     1       0.196  10.594  19.712  0.00  0.00    +0.000 A 
ATOM     20  C   UNL     1       0.900  10.194  18.566  0.00  0.00    +0.000 A 
ATOM     21  C   UNL     1       1.642   9.001  18.556  0.00  0.00    +0.000 A 
ATOM     22  C   UNL     1       1.741   8.227  19.706  0.00  0.00    +0.000 A 
ATOM     23 CL   UNL     1       2.576   6.724  19.669  0.00  0.00    +0.000 Cl
ATOM     24  C   UNL     1       1.157   8.661  20.887  0.00  0.00    +0.000 A 
ATOM     25  C   UNL     1       0.416   9.847  20.891  0.00  0.00    +0.000 A 
ENDBRANCH  18  19
BRANCH  18  26
ATOM     26  C   UNL     1      -1.652  11.901  18.403  0.00  0.00    +0.000 C 
ATOM     27  O   UNL     1      -1.220  12.484  17.410  0.00  0.00    +0.000 OA
ATOM     28  N   UNL     1      -2.838  11.186  18.321  0.00  0.00    +0.000 N 
ATOM     29  H   UNL     1      -3.332  10.998  19.187  0.00  0.00    +0.000 HD
BRANCH  28  30
ATOM     30  C   UNL     1      -3.632  11.246  17.097  0.00  0.00    +0.000 C 
ATOM     31  C   UNL     1      -3.298  10.078  16.184  0.00  0.00    +0.000 C 
ATOM     32  C   UNL     1      -5.123  11.292  17.425  0.00  0.00    +0.000 C 
ENDBRANCH  28  30
ENDBRANCH  18  26
ENDBRANCH   1  18
TORSDOF 6
ENDMDL
MODEL 8
REMARK VINA RESULT:      -6.6      3.082      5.750
REMARK  Name = 
REMARK  10 active torsions:
REMARK  status: ('A' for Active; 'I' for Inactive)
REMARK    1  A    between atoms: C_1  and  C_2
REMARK    2  A    between atoms: C_5  and  N_6
REMARK    3  A    between atoms: N_6  and  C_15
REMARK    4  A    between atoms: C_7  and  C_9
REMARK    5  A    between atoms: C_13  and  C_14
REMARK    6  A    between atoms: C_15  and  C_16
REMARK    7  A    between atoms: C_15  and  C_22
REMARK    8  A    between atoms: N_18  and  C_19
REMARK    9  A    between atoms: C_19  and  C_20
REMARK   10  A    between atoms: C_19  and  C_21
REMARK                            x       y       z     vdW  Elec       q    Type
REMARK                         _______ _______ _______ _____ _____    ______ ____
ROOT
ATOM      1  N   UNL     1      -0.107  12.261  19.133  0.00  0.00    +0.000 N 
ATOM      2  C   UNL     1       0.328  13.586  18.834  0.00  0.00    +0.000 C 
ATOM      3  O   UNL     1      -0.461  14.491  18.574  0.00  0.00    +0.000 OA
ENDROOT
BRANCH   1   8
ATOM      4  C   UNL     1      -5.634  10.859  17.898  0.00  0.00    +0.000 C 
ATOM      5  C   UNL     1      -4.219  11.189  18.252  0.00  0.00    +0.000 A 
ATOM      6  C   UNL     1      -3.926  12.123  19.242  0.00  0.00    +0.000 A 
ATOM      7  C   UNL     1      -2.595  12.483  19.501  0.00  0.00    +0.000 A 
ATOM      8  C   UNL     1      -1.501  11.884  18.842  0.00  0.00    +0.000 A 
ATOM      9  C   UNL     1      -1.831  10.936  17.862  0.00  0.00    +0.000 A 
ATOM     10  C   UNL     1      -3.159  10.632  17.553  0.00  0.00    +0.000 A 
ATOM     11  F   UNL     1      -3.400   9.786  16.542  0.00  0.00    +0.000 F 
ENDBRANCH   1   8
BRANCH   2  12
ATOM     12  C   UNL     1       1.755  13.951  18.928  0.00  0.00    +0.000 A 
ATOM     13  N   UNL     1       2.677  13.670  17.928  0.00  0.00    +0.000 NA
ATOM     14  N   UNL     1       3.892  14.106  18.240  0.00  0.00    +0.000 NA
ATOM     15  S   UNL     1       3.944  14.910  19.703  0.00  0.00    +0.000 S 
ATOM     16  C   UNL     1       2.268  14.683  19.995  0.00  0.00    +0.000 A 
ATOM     17  C   UNL     1       1.602  15.221  21.213  0.00  0.00    +0.000 C 
ENDBRANCH   2  12
BRANCH   1  18
ATOM     18  C   UNL     1       0.692  11.419  20.093  0.00  0.00    +0.000 C 
BRANCH  18  19
ATOM     19  C   UNL     1       1.128  10.006  19.631  0.00  0.00    +0.000 A 
ATOM     20  C   UNL     1       1.208   8.886  20.475  0.00  0.00    +0.000 A 
ATOM     21  C   UNL     1       1.824   7.700  20.041  0.00  0.00    +0.000 A 
ATOM     22  C   UNL     1       2.309   7.596  18.743  0.00  0.00    +0.000 A 
ATOM     23 CL   UNL     1       3.140   6.176  18.240  0.00  0.00    +0.000 Cl
ATOM     24  C   UNL     1       2.134   8.643  17.850  0.00  0.00    +0.000 A 
ATOM     25  C   UNL     1       1.524   9.823  18.287  0.00  0.00    +0.000 A 
ENDBRANCH  18  19
BRANCH  18  26
ATOM     26  C   UNL     1       0.008  11.428  21.517  0.00  0.00    +0.000 C 
ATOM     27  O   UNL     1       0.179  10.542  22.353  0.00  0.00    +0.000 OA
ATOM     28  N   UNL     1      -0.673  12.585  21.868  0.00  0.00    +0.000 N 
ATOM     29  H   UNL     1      -1.079  13.134  21.118  0.00  0.00    +0.000 HD
BRANCH  28  30
ATOM     30  C   UNL     1      -1.300  12.681  23.182  0.00  0.00    +0.000 C 
ATOM     31  C   UNL     1      -1.267  14.114  23.689  0.00  0.00    +0.000 C 
ATOM     32  C   UNL     1      -2.726  12.135  23.139  0.00  0.00    +0.000 C 
ENDBRANCH  28  30
ENDBRANCH  18  26
ENDBRANCH   1  18
TORSDOF 6
ENDMDL
MODEL 9
REMARK VINA RESULT:      -6.6      3.200      5.206
REMARK  Name = 
REMARK  10 active torsions:
REMARK  status: ('A' for Active; 'I' for Inactive)
REMARK    1  A    between atoms: C_1  and  C_2
REMARK    2  A    between atoms: C_5  and  N_6
REMARK    3  A    between atoms: N_6  and  C_15
REMARK    4  A    between atoms: C_7  and  C_9
REMARK    5  A    between atoms: C_13  and  C_14
REMARK    6  A    between atoms: C_15  and  C_16
REMARK    7  A    between atoms: C_15  and  C_22
REMARK    8  A    between atoms: N_18  and  C_19
REMARK    9  A    between atoms: C_19  and  C_20
REMARK   10  A    between atoms: C_19  and  C_21
REMARK                            x       y       z     vdW  Elec       q    Type
REMARK                         _______ _______ _______ _____ _____    ______ ____
ROOT
ATOM      1  N   UNL     1      -0.513  13.085  20.268  0.00  0.00    +0.000 N 
ATOM      2  C   UNL     1      -1.519  14.028  20.635  0.00  0.00    +0.000 C 
ATOM      3  O   UNL     1      -1.348  15.240  20.527  0.00  0.00    +0.000 OA
ENDROOT
BRANCH   1   8
ATOM      4  C   UNL     1       4.962  14.853  19.302  0.00  0.00    +0.000 C 
ATOM      5  C   UNL     1       3.550  14.442  19.571  0.00  0.00    +0.000 A 
ATOM      6  C   UNL     1       3.168  13.960  20.819  0.00  0.00    +0.000 A 
ATOM      7  C   UNL     1       1.859  13.497  21.028  0.00  0.00    +0.000 A 
ATOM      8  C   UNL     1       0.861  13.560  20.032  0.00  0.00    +0.000 A 
ATOM      9  C   UNL     1       1.275  14.066  18.791  0.00  0.00    +0.000 A 
ATOM     10  C   UNL     1       2.597  14.457  18.563  0.00  0.00    +0.000 A 
ATOM     11  F   UNL     1       2.943  14.842  17.327  0.00  0.00    +0.000 F 
ENDBRANCH   1   8
BRANCH   2  12
ATOM     12  C   UNL     1      -2.855  13.577  21.066  0.00  0.00    +0.000 A 
ATOM     13  N   UNL     1      -3.900  13.348  20.179  0.00  0.00    +0.000 NA
ATOM     14  N   UNL     1      -4.998  12.939  20.806  0.00  0.00    +0.000 NA
ATOM     15  S   UNL     1      -4.786  12.764  22.453  0.00  0.00    +0.000 S 
ATOM     16  C   UNL     1      -3.146  13.265  22.391  0.00  0.00    +0.000 A 
ATOM     17  C   UNL     1      -2.292  13.316  23.610  0.00  0.00    +0.000 C 
ENDBRANCH   2  12
BRANCH   1  18
ATOM     18  C   UNL     1      -0.922  11.739  19.729  0.00  0.00    +0.000 C 
BRANCH  18  19
ATOM     19  C   UNL     1       0.129  10.601  19.738  0.00  0.00    +0.000 A 
ATOM     20  C   UNL     1       0.876  10.205  18.618  0.00  0.00    +0.000 A 
ATOM     21  C   UNL     1       1.640   9.026  18.643  0.00  0.00    +0.000 A 
ATOM     22  C   UNL     1       1.717   8.265  19.803  0.00  0.00    +0.000 A 
ATOM     23 CL   UNL     1       2.581   6.777  19.806  0.00  0.00    +0.000 Cl
ATOM     24  C   UNL     1       1.088   8.697  20.961  0.00  0.00    +0.000 A 
ATOM     25  C   UNL     1       0.326   9.869  20.930  0.00  0.00    +0.000 A 
ENDBRANCH  18  19
BRANCH  18  26
ATOM     26  C   UNL     1      -1.644  11.914  18.334  0.00  0.00    +0.000 C 
ATOM     27  O   UNL     1      -1.190  12.603  17.422  0.00  0.00    +0.000 OA
ATOM     28  N   UNL     1      -2.749  11.106  18.105  0.00  0.00    +0.000 N 
ATOM     29  H   UNL     1      -3.290  10.814  18.911  0.00  0.00    +0.000 HD
BRANCH  28  30
ATOM     30  C   UNL     1      -3.446  11.186  16.825  0.00  0.00    +0.000 C 
ATOM     31  C   UNL     1      -3.150   9.960  15.976  0.00  0.00    +0.000 C 
ATOM     32  C   UNL     1      -4.946  11.369  17.040  0.00  0.00    +0.000 C 
ENDBRANCH  28  30
ENDBRANCH  18  26
ENDBRANCH   1  18
TORSDOF 6
ENDMDL
