MODEL 1
REMARK VINA RESULT:      -7.6      0.000      0.000
REMARK  Name = 
REMARK  4 active torsions:
REMARK  status: ('A' for Active; 'I' for Inactive)
REMARK    1  A    between atoms: C_4  and  N_5
REMARK    2  A    between atoms: N_13  and  C_14
REMARK    3  A    between atoms: C_14  and  C_15
REMARK    4  A    between atoms: C_15  and  N_16
REMARK                            x       y       z     vdW  Elec       q    Type
REMARK                         _______ _______ _______ _____ _____    ______ ____
ROOT
ATOM      1  O   UNL     1       2.639   9.823  17.161  0.00  0.00    +0.000 OA
ATOM      2  C   UNL     1       2.301   9.182  18.152  0.00  0.00    +0.000 A 
ATOM      3  C   UNL     1       1.346   9.760  19.106  0.00  0.00    +0.000 A 
ATOM      4  C   UNL     1       0.952   9.085  20.206  0.00  0.00    +0.000 A 
ATOM      5  N   UNL     1       1.460   7.831  20.506  0.00  0.00    +0.000 NA
ATOM      6  C   UNL     1       2.270   7.286  19.660  0.00  0.00    +0.000 A 
ATOM      7  N   UNL     1       2.858   6.022  19.698  0.00  0.00    +0.000 N 
ATOM      8  C   UNL     1       3.602   5.862  18.528  0.00  0.00    +0.000 A 
ATOM      9  C   UNL     1       4.324   4.789  18.047  0.00  0.00    +0.000 A 
ATOM     10  C   UNL     1       5.017   4.939  16.841  0.00  0.00    +0.000 A 
ATOM     11  C   UNL     1       4.959   6.145  16.119  0.00  0.00    +0.000 A 
ATOM     12  C   UNL     1       4.202   7.221  16.585  0.00  0.00    +0.000 A 
ATOM     13  C   UNL     1       3.537   7.056  17.786  0.00  0.00    +0.000 A 
ATOM     14  N   UNL     1       2.698   7.926  18.497  0.00  0.00    +0.000 N 
ENDROOT
BRANCH   4  15
ATOM     15  N   UNL     1       0.018   9.716  21.034  0.00  0.00    +0.000 N 
ATOM     16  C   UNL     1      -0.568   9.066  22.222  0.00  0.00    +0.000 C 
ATOM     17  C   UNL     1      -0.750  10.128  23.343  0.00  0.00    +0.000 C 
ATOM     18  N   UNL     1      -1.524  11.324  22.936  0.00  0.00    +0.000 NA
ATOM     19  C   UNL     1      -0.955  11.883  21.693  0.00  0.00    +0.000 C 
ATOM     20  C   UNL     1      -0.825  10.835  20.570  0.00  0.00    +0.000 C 
ATOM     21  H   UNL     1      -1.458  12.026  23.671  0.00  0.00    +0.000 HD
ENDBRANCH   4  15
BRANCH   7  22
ATOM     22  C   UNL     1       2.610   4.962  20.658  0.00  0.00    +0.000 C 
BRANCH  22  23
ATOM     23  C   UNL     1       1.174   4.403  20.521  0.00  0.00    +0.000 C 
BRANCH  23  24
ATOM     24  N   UNL     1       1.068   2.931  20.425  0.00  0.00    +0.000 NA
ATOM     25  C   UNL     1       2.320   2.232  20.748  0.00  0.00    +0.000 C 
ATOM     26  C   UNL     1       3.090   2.171  19.445  0.00  0.00    +0.000 C 
ATOM     27  C   UNL     1       2.000   1.931  18.420  0.00  0.00    +0.000 C 
ATOM     28  C   UNL     1       0.741   2.530  19.039  0.00  0.00    +0.000 C 
ENDBRANCH  23  24
ENDBRANCH  22  23
ENDBRANCH   7  22
TORSDOF 4
ENDMDL
MODEL 2
REMARK VINA RESULT:      -7.6      1.802      5.994
REMARK  Name = 
REMARK  4 active torsions:
REMARK  status: ('A' for Active; 'I' for Inactive)
REMARK    1  A    between atoms: C_4  and  N_5
REMARK    2  A    between atoms: N_13  and  C_14
REMARK    3  A    between atoms: C_14  and  C_15
REMARK    4  A    between atoms: C_15  and  N_16
REMARK                            x       y       z     vdW  Elec       q    Type
REMARK                         _______ _______ _______ _____ _____    ______ ____
ROOT
ATOM      1  O   UNL     1       2.525   9.921  17.466  0.00  0.00    +0.000 OA
ATOM      2  C   UNL     1       2.799   8.784  17.841  0.00  0.00    +0.000 A 
ATOM      3  C   UNL     1       3.830   8.011  17.138  0.00  0.00    +0.000 A 
ATOM      4  C   UNL     1       4.157   6.758  17.521  0.00  0.00    +0.000 A 
ATOM      5  N   UNL     1       3.507   6.131  18.572  0.00  0.00    +0.000 NA
ATOM      6  C   UNL     1       2.625   6.807  19.231  0.00  0.00    +0.000 A 
ATOM      7  N   UNL     1       1.889   6.430  20.354  0.00  0.00    +0.000 N 
ATOM      8  C   UNL     1       1.114   7.522  20.744  0.00  0.00    +0.000 A 
ATOM      9  C   UNL     1       0.262   7.699  21.815  0.00  0.00    +0.000 A 
ATOM     10  C   UNL     1      -0.426   8.913  21.925  0.00  0.00    +0.000 A 
ATOM     11  C   UNL     1      -0.234   9.940  20.985  0.00  0.00    +0.000 A 
ATOM     12  C   UNL     1       0.653   9.778  19.920  0.00  0.00    +0.000 A 
ATOM     13  C   UNL     1       1.311   8.566  19.821  0.00  0.00    +0.000 A 
ATOM     14  N   UNL     1       2.259   8.110  18.894  0.00  0.00    +0.000 N 
ENDROOT
BRANCH   4  15
ATOM     15  N   UNL     1       5.171   6.122  16.800  0.00  0.00    +0.000 N 
ATOM     16  C   UNL     1       6.512   5.864  17.361  0.00  0.00    +0.000 C 
ATOM     17  C   UNL     1       7.024   4.492  16.842  0.00  0.00    +0.000 C 
ATOM     18  N   UNL     1       7.011   4.349  15.367  0.00  0.00    +0.000 NA
ATOM     19  C   UNL     1       5.676   4.707  14.846  0.00  0.00    +0.000 C 
ATOM     20  C   UNL     1       5.198   6.092  15.325  0.00  0.00    +0.000 C 
ATOM     21  H   UNL     1       7.207   3.379  15.127  0.00  0.00    +0.000 HD
ENDBRANCH   4  15
BRANCH   7  22
ATOM     22  C   UNL     1       2.023   5.207  21.126  0.00  0.00    +0.000 C 
BRANCH  22  23
ATOM     23  C   UNL     1       1.227   4.046  20.483  0.00  0.00    +0.000 C 
BRANCH  23  24
ATOM     24  N   UNL     1       1.912   2.736  20.465  0.00  0.00    +0.000 NA
ATOM     25  C   UNL     1       3.376   2.842  20.394  0.00  0.00    +0.000 C 
ATOM     26  C   UNL     1       3.699   2.929  18.917  0.00  0.00    +0.000 C 
ATOM     27  C   UNL     1       2.694   1.981  18.295  0.00  0.00    +0.000 C 
ATOM     28  C   UNL     1       1.516   1.967  19.263  0.00  0.00    +0.000 C 
ENDBRANCH  23  24
ENDBRANCH  22  23
ENDBRANCH   7  22
TORSDOF 4
ENDMDL
MODEL 3
REMARK VINA RESULT:      -7.5      2.469      4.815
REMARK  Name = 
REMARK  4 active torsions:
REMARK  status: ('A' for Active; 'I' for Inactive)
REMARK    1  A    between atoms: C_4  and  N_5
REMARK    2  A    between atoms: N_13  and  C_14
REMARK    3  A    between atoms: C_14  and  C_15
REMARK    4  A    between atoms: C_15  and  N_16
REMARK                            x       y       z     vdW  Elec       q    Type
REMARK                         _______ _______ _______ _____ _____    ______ ____
ROOT
ATOM      1  O   UNL     1       1.010   6.653  21.486  0.00  0.00    +0.000 OA
ATOM      2  C   UNL     1       1.517   7.033  20.435  0.00  0.00    +0.000 A 
ATOM      3  C   UNL     1       1.271   8.399  19.956  0.00  0.00    +0.000 A 
ATOM      4  C   UNL     1       1.811   8.851  18.804  0.00  0.00    +0.000 A 
ATOM      5  N   UNL     1       2.590   8.034  18.001  0.00  0.00    +0.000 NA
ATOM      6  C   UNL     1       2.853   6.841  18.423  0.00  0.00    +0.000 A 
ATOM      7  N   UNL     1       3.657   5.862  17.840  0.00  0.00    +0.000 N 
ATOM      8  C   UNL     1       3.685   4.764  18.701  0.00  0.00    +0.000 A 
ATOM      9  C   UNL     1       4.369   3.567  18.630  0.00  0.00    +0.000 A 
ATOM     10  C   UNL     1       4.162   2.621  19.639  0.00  0.00    +0.000 A 
ATOM     11  C   UNL     1       3.300   2.891  20.717  0.00  0.00    +0.000 A 
ATOM     12  C   UNL     1       2.634   4.113  20.810  0.00  0.00    +0.000 A 
ATOM     13  C   UNL     1       2.841   5.028  19.795  0.00  0.00    +0.000 A 
ATOM     14  N   UNL     1       2.340   6.325  19.612  0.00  0.00    +0.000 N 
ENDROOT
BRANCH   4  15
ATOM     15  N   UNL     1       1.536  10.176  18.455  0.00  0.00    +0.000 N 
ATOM     16  C   UNL     1       0.162  10.699  18.313  0.00  0.00    +0.000 C 
ATOM     17  C   UNL     1       0.120  12.162  18.837  0.00  0.00    +0.000 C 
ATOM     18  N   UNL     1       1.117  13.066  18.218  0.00  0.00    +0.000 NA
ATOM     19  C   UNL     1       2.459  12.457  18.304  0.00  0.00    +0.000 C 
ATOM     20  C   UNL     1       2.504  11.025  17.735  0.00  0.00    +0.000 C 
ATOM     21  H   UNL     1       1.124  13.948  18.727  0.00  0.00    +0.000 HD
ENDBRANCH   4  15
BRANCH   7  22
ATOM     22  C   UNL     1       4.488   5.992  16.656  0.00  0.00    +0.000 C 
BRANCH  22  23
ATOM     23  C   UNL     1       5.498   7.154  16.804  0.00  0.00    +0.000 C 
BRANCH  23  24
ATOM     24  N   UNL     1       6.925   6.776  16.710  0.00  0.00    +0.000 NA
ATOM     25  C   UNL     1       7.210   5.432  17.232  0.00  0.00    +0.000 C 
ATOM     26  C   UNL     1       7.451   5.622  18.715  0.00  0.00    +0.000 C 
ATOM     27  C   UNL     1       8.201   6.938  18.769  0.00  0.00    +0.000 C 
ATOM     28  C   UNL     1       7.754   7.695  17.522  0.00  0.00    +0.000 C 
ENDBRANCH  23  24
ENDBRANCH  22  23
ENDBRANCH   7  22
TORSDOF 4
ENDMDL
MODEL 4
REMARK VINA RESULT:      -7.5      2.975      8.048
REMARK  Name = 
REMARK  4 active torsions:
REMARK  status: ('A' for Active; 'I' for Inactive)
REMARK    1  A    between atoms: C_4  and  N_5
REMARK    2  A    between atoms: N_13  and  C_14
REMARK    3  A    between atoms: C_14  and  C_15
REMARK    4  A    between atoms: C_15  and  N_16
REMARK                            x       y       z     vdW  Elec       q    Type
REMARK                         _______ _______ _______ _____ _____    ______ ____
ROOT
ATOM      1  O   UNL     1       0.636   9.543  23.493  0.00  0.00    +0.000 OA
ATOM      2  C   UNL     1       0.596   9.574  22.267  0.00  0.00    +0.000 A 
ATOM      3  C   UNL     1       1.359   8.593  21.486  0.00  0.00    +0.000 A 
ATOM      4  C   UNL     1       1.340   8.596  20.136  0.00  0.00    +0.000 A 
ATOM      5  N   UNL     1       0.631   9.551  19.425  0.00  0.00    +0.000 NA
ATOM      6  C   UNL     1      -0.080  10.400  20.092  0.00  0.00    +0.000 A 
ATOM      7  N   UNL     1      -0.924  11.403  19.615  0.00  0.00    +0.000 N 
ATOM      8  C   UNL     1      -1.524  12.015  20.716  0.00  0.00    +0.000 A 
ATOM      9  C   UNL     1      -2.474  13.013  20.799  0.00  0.00    +0.000 A 
ATOM     10  C   UNL     1      -2.859  13.463  22.066  0.00  0.00    +0.000 A 
ATOM     11  C   UNL     1      -2.316  12.893  23.231  0.00  0.00    +0.000 A 
ATOM     12  C   UNL     1      -1.381  11.859  23.152  0.00  0.00    +0.000 A 
ATOM     13  C   UNL     1      -1.003  11.441  21.890  0.00  0.00    +0.000 A 
ATOM     14  N   UNL     1      -0.115  10.433  21.486  0.00  0.00    +0.000 N 
ENDROOT
BRANCH   4  15
ATOM     15  N   UNL     1       2.079   7.600  19.492  0.00  0.00    +0.000 N 
ATOM     16  C   UNL     1       2.428   7.662  18.059  0.00  0.00    +0.000 C 
ATOM     17  C   UNL     1       3.853   7.075  17.857  0.00  0.00    +0.000 C 
ATOM     18  N   UNL     1       4.041   5.713  18.409  0.00  0.00    +0.000 NA
ATOM     19  C   UNL     1       3.593   5.682  19.815  0.00  0.00    +0.000 C 
ATOM     20  C   UNL     1       2.159   6.217  19.999  0.00  0.00    +0.000 C 
ATOM     21  H   UNL     1       5.031   5.476  18.375  0.00  0.00    +0.000 HD
ENDBRANCH   4  15
BRANCH   7  22
ATOM     22  C   UNL     1      -1.292  11.664  18.235  0.00  0.00    +0.000 C 
BRANCH  22  23
ATOM     23  C   UNL     1      -1.371  10.354  17.416  0.00  0.00    +0.000 C 
BRANCH  23  24
ATOM     24  N   UNL     1      -2.732   9.818  17.198  0.00  0.00    +0.000 NA
ATOM     25  C   UNL     1      -3.050   9.587  15.782  0.00  0.00    +0.000 C 
ATOM     26  C   UNL     1      -3.587  10.909  15.274  0.00  0.00    +0.000 C 
ATOM     27  C   UNL     1      -4.394  11.420  16.450  0.00  0.00    +0.000 C 
ATOM     28  C   UNL     1      -3.746  10.784  17.676  0.00  0.00    +0.000 C 
ENDBRANCH  23  24
ENDBRANCH  22  23
ENDBRANCH   7  22
TORSDOF 4
ENDMDL
MODEL 5
REMARK VINA RESULT:      -7.4      2.320      4.493
REMARK  Name = 
REMARK  4 active torsions:
REMARK  status: ('A' for Active; 'I' for Inactive)
REMARK    1  A    between atoms: C_4  and  N_5
REMARK    2  A    between atoms: N_13  and  C_14
REMARK    3  A    between atoms: C_14  and  C_15
REMARK    4  A    between atoms: C_15  and  N_16
REMARK                            x       y       z     vdW  Elec       q    Type
REMARK                         _______ _______ _______ _____ _____    ______ ____
ROOT
ATOM      1  O   UNL     1       0.994   4.050  21.076  0.00  0.00    +0.000 OA
ATOM      2  C   UNL     1       1.442   5.038  20.500  0.00  0.00    +0.000 A 
ATOM      3  C   UNL     1       1.103   6.382  20.984  0.00  0.00    +0.000 A 
ATOM      4  C   UNL     1       1.576   7.490  20.376  0.00  0.00    +0.000 A 
ATOM      5  N   UNL     1       2.371   7.411  19.244  0.00  0.00    +0.000 NA
ATOM      6  C   UNL     1       2.716   6.238  18.825  0.00  0.00    +0.000 A 
ATOM      7  N   UNL     1       3.552   5.897  17.762  0.00  0.00    +0.000 N 
ATOM      8  C   UNL     1       3.672   4.507  17.743  0.00  0.00    +0.000 A 
ATOM      9  C   UNL     1       4.420   3.668  16.942  0.00  0.00    +0.000 A 
ATOM     10  C   UNL     1       4.301   2.287  17.130  0.00  0.00    +0.000 A 
ATOM     11  C   UNL     1       3.464   1.763  18.132  0.00  0.00    +0.000 A 
ATOM     12  C   UNL     1       2.734   2.610  18.967  0.00  0.00    +0.000 A 
ATOM     13  C   UNL     1       2.854   3.970  18.753  0.00  0.00    +0.000 A 
ATOM     14  N   UNL     1       2.274   5.058  19.422  0.00  0.00    +0.000 N 
ENDROOT
BRANCH   4  15
ATOM     15  N   UNL     1       1.215   8.720  20.935  0.00  0.00    +0.000 N 
ATOM     16  C   UNL     1       1.090   9.956  20.138  0.00  0.00    +0.000 C 
ATOM     17  C   UNL     1      -0.098  10.796  20.687  0.00  0.00    +0.000 C 
ATOM     18  N   UNL     1      -0.027  11.084  22.139  0.00  0.00    +0.000 NA
ATOM     19  C   UNL     1       0.190   9.828  22.884  0.00  0.00    +0.000 C 
ATOM     20  C   UNL     1       1.401   9.026  22.366  0.00  0.00    +0.000 C 
ATOM     21  H   UNL     1      -0.911  11.494  22.438  0.00  0.00    +0.000 HD
ENDBRANCH   4  15
BRANCH   7  22
ATOM     22  C   UNL     1       4.332   6.795  16.930  0.00  0.00    +0.000 C 
BRANCH  22  23
ATOM     23  C   UNL     1       5.262   6.010  15.974  0.00  0.00    +0.000 C 
BRANCH  23  24
ATOM     24  N   UNL     1       6.708   6.280  16.125  0.00  0.00    +0.000 NA
ATOM     25  C   UNL     1       7.523   5.060  16.222  0.00  0.00    +0.000 C 
ATOM     26  C   UNL     1       7.529   4.701  17.693  0.00  0.00    +0.000 C 
ATOM     27  C   UNL     1       7.598   6.054  18.371  0.00  0.00    +0.000 C 
ATOM     28  C   UNL     1       6.963   7.023  17.379  0.00  0.00    +0.000 C 
ENDBRANCH  23  24
ENDBRANCH  22  23
ENDBRANCH   7  22
TORSDOF 4
ENDMDL
MODEL 6
REMARK VINA RESULT:      -7.4      1.832      6.120
REMARK  Name = 
REMARK  4 active torsions:
REMARK  status: ('A' for Active; 'I' for Inactive)
REMARK    1  A    between atoms: C_4  and  N_5
REMARK    2  A    between atoms: N_13  and  C_14
REMARK    3  A    between atoms: C_14  and  C_15
REMARK    4  A    between atoms: C_15  and  N_16
REMARK                            x       y       z     vdW  Elec       q    Type
REMARK                         _______ _______ _______ _____ _____    ______ ____
ROOT
ATOM      1  O   UNL     1       2.723   9.533  17.317  0.00  0.00    +0.000 OA
ATOM      2  C   UNL     1       2.935   8.415  17.778  0.00  0.00    +0.000 A 
ATOM      3  C   UNL     1       3.940   7.546  17.153  0.00  0.00    +0.000 A 
ATOM      4  C   UNL     1       4.199   6.311  17.632  0.00  0.00    +0.000 A 
ATOM      5  N   UNL     1       3.501   5.791  18.711  0.00  0.00    +0.000 NA
ATOM      6  C   UNL     1       2.641   6.554  19.301  0.00  0.00    +0.000 A 
ATOM      7  N   UNL     1       1.868   6.294  20.432  0.00  0.00    +0.000 N 
ATOM      8  C   UNL     1       1.139   7.447  20.726  0.00  0.00    +0.000 A 
ATOM      9  C   UNL     1       0.278   7.740  21.763  0.00  0.00    +0.000 A 
ATOM     10  C   UNL     1      -0.354   8.989  21.772  0.00  0.00    +0.000 A 
ATOM     11  C   UNL     1      -0.095   9.936  20.765  0.00  0.00    +0.000 A 
ATOM     12  C   UNL     1       0.802   9.656  19.733  0.00  0.00    +0.000 A 
ATOM     13  C   UNL     1       1.402   8.411  19.736  0.00  0.00    +0.000 A 
ATOM     14  N   UNL     1       2.344   7.845  18.864  0.00  0.00    +0.000 N 
ENDROOT
BRANCH   4  15
ATOM     15  N   UNL     1       5.195   5.577  16.981  0.00  0.00    +0.000 N 
ATOM     16  C   UNL     1       5.247   5.424  15.513  0.00  0.00    +0.000 C 
ATOM     17  C   UNL     1       6.733   5.438  15.055  0.00  0.00    +0.000 C 
ATOM     18  N   UNL     1       7.596   4.448  15.739  0.00  0.00    +0.000 NA
ATOM     19  C   UNL     1       7.439   4.581  17.202  0.00  0.00    +0.000 C 
ATOM     20  C   UNL     1       5.966   4.514  17.653  0.00  0.00    +0.000 C 
ATOM     21  H   UNL     1       8.568   4.634  15.497  0.00  0.00    +0.000 HD
ENDBRANCH   4  15
BRANCH   7  22
ATOM     22  C   UNL     1       1.928   5.126  21.292  0.00  0.00    +0.000 C 
BRANCH  22  23
ATOM     23  C   UNL     1       2.961   4.097  20.772  0.00  0.00    +0.000 C 
BRANCH  23  24
ATOM     24  N   UNL     1       2.434   2.742  20.503  0.00  0.00    +0.000 NA
ATOM     25  C   UNL     1       3.047   2.097  19.333  0.00  0.00    +0.000 C 
ATOM     26  C   UNL     1       2.223   2.555  18.148  0.00  0.00    +0.000 C 
ATOM     27  C   UNL     1       0.813   2.575  18.704  0.00  0.00    +0.000 C 
ATOM     28  C   UNL     1       0.986   2.806  20.202  0.00  0.00    +0.000 C 
ENDBRANCH  23  24
ENDBRANCH  22  23
ENDBRANCH   7  22
TORSDOF 4
ENDMDL
MODEL 7
REMARK VINA RESULT:      -7.2      4.102      7.015
REMARK  Name = 
REMARK  4 active torsions:
REMARK  status: ('A' for Active; 'I' for Inactive)
REMARK    1  A    between atoms: C_4  and  N_5
REMARK    2  A    between atoms: N_13  and  C_14
REMARK    3  A    between atoms: C_14  and  C_15
REMARK    4  A    between atoms: C_15  and  N_16
REMARK                            x       y       z     vdW  Elec       q    Type
REMARK                         _______ _______ _______ _____ _____    ______ ____
ROOT
ATOM      1  O   UNL     1      -0.238   9.554  23.593  0.00  0.00    +0.000 OA
ATOM      2  C   UNL     1      -0.615  10.451  22.845  0.00  0.00    +0.000 A 
ATOM      3  C   UNL     1      -1.422  11.556  23.377  0.00  0.00    +0.000 A 
ATOM      4  C   UNL     1      -1.854  12.559  22.584  0.00  0.00    +0.000 A 
ATOM      5  N   UNL     1      -1.590  12.572  21.224  0.00  0.00    +0.000 NA
ATOM      6  C   UNL     1      -0.847  11.631  20.741  0.00  0.00    +0.000 A 
ATOM      7  N   UNL     1      -0.387  11.458  19.436  0.00  0.00    +0.000 N 
ATOM      8  C   UNL     1       0.436  10.331  19.419  0.00  0.00    +0.000 A 
ATOM      9  C   UNL     1       1.181   9.762  18.406  0.00  0.00    +0.000 A 
ATOM     10  C   UNL     1       1.887   8.585  18.678  0.00  0.00    +0.000 A 
ATOM     11  C   UNL     1       1.864   8.010  19.961  0.00  0.00    +0.000 A 
ATOM     12  C   UNL     1       1.140   8.602  20.997  0.00  0.00    +0.000 A 
ATOM     13  C   UNL     1       0.437   9.755  20.702  0.00  0.00    +0.000 A 
ATOM     14  N   UNL     1      -0.356  10.579  21.514  0.00  0.00    +0.000 N 
ENDROOT
BRANCH   4  15
ATOM     15  N   UNL     1      -2.591  13.576  23.197  0.00  0.00    +0.000 N 
ATOM     16  C   UNL     1      -3.876  14.069  22.663  0.00  0.00    +0.000 C 
ATOM     17  C   UNL     1      -4.824  14.405  23.848  0.00  0.00    +0.000 C 
ATOM     18  N   UNL     1      -4.252  15.339  24.846  0.00  0.00    +0.000 NA
ATOM     19  C   UNL     1      -2.928  14.849  25.281  0.00  0.00    +0.000 C 
ATOM     20  C   UNL     1      -1.977  14.568  24.101  0.00  0.00    +0.000 C 
ATOM     21  H   UNL     1      -4.869  15.376  25.656  0.00  0.00    +0.000 HD
ENDBRANCH   4  15
BRANCH   7  22
ATOM     22  C   UNL     1      -0.548  12.368  18.316  0.00  0.00    +0.000 C 
BRANCH  22  23
ATOM     23  C   UNL     1      -1.590  11.836  17.304  0.00  0.00    +0.000 C 
BRANCH  23  24
ATOM     24  N   UNL     1      -2.613  10.923  17.859  0.00  0.00    +0.000 NA
ATOM     25  C   UNL     1      -3.093   9.925  16.894  0.00  0.00    +0.000 C 
ATOM     26  C   UNL     1      -4.228  10.601  16.153  0.00  0.00    +0.000 C 
ATOM     27  C   UNL     1      -4.909  11.406  17.241  0.00  0.00    +0.000 C 
ATOM     28  C   UNL     1      -3.814  11.686  18.265  0.00  0.00    +0.000 C 
ENDBRANCH  23  24
ENDBRANCH  22  23
ENDBRANCH   7  22
TORSDOF 4
ENDMDL
MODEL 8
REMARK VINA RESULT:      -7.2      3.962      7.322
REMARK  Name = 
REMARK  4 active torsions:
REMARK  status: ('A' for Active; 'I' for Inactive)
REMARK    1  A    between atoms: C_4  and  N_5
REMARK    2  A    between atoms: N_13  and  C_14
REMARK    3  A    between atoms: C_14  and  C_15
REMARK    4  A    between atoms: C_15  and  N_16
REMARK                            x       y       z     vdW  Elec       q    Type
REMARK                         _______ _______ _______ _____ _____    ______ ____
ROOT
ATOM      1  O   UNL     1      -0.136   9.361  23.436  0.00  0.00    +0.000 OA
ATOM      2  C   UNL     1      -0.600  10.205  22.675  0.00  0.00    +0.000 A 
ATOM      3  C   UNL     1      -1.479  11.258  23.201  0.00  0.00    +0.000 A 
ATOM      4  C   UNL     1      -2.009  12.202  22.395  0.00  0.00    +0.000 A 
ATOM      5  N   UNL     1      -1.779  12.199  21.028  0.00  0.00    +0.000 NA
ATOM      6  C   UNL     1      -0.976  11.306  20.550  0.00  0.00    +0.000 A 
ATOM      7  N   UNL     1      -0.536  11.135  19.238  0.00  0.00    +0.000 N 
ATOM      8  C   UNL     1       0.373  10.076  19.227  0.00  0.00    +0.000 A 
ATOM      9  C   UNL     1       1.135   9.541  18.209  0.00  0.00    +0.000 A 
ATOM     10  C   UNL     1       1.939   8.431  18.492  0.00  0.00    +0.000 A 
ATOM     11  C   UNL     1       1.993   7.890  19.789  0.00  0.00    +0.000 A 
ATOM     12  C   UNL     1       1.250   8.450  20.829  0.00  0.00    +0.000 A 
ATOM     13  C   UNL     1       0.451   9.536  20.524  0.00  0.00    +0.000 A 
ATOM     14  N   UNL     1      -0.385  10.317  21.335  0.00  0.00    +0.000 N 
ENDROOT
BRANCH   4  15
ATOM     15  N   UNL     1      -2.809  13.174  23.002  0.00  0.00    +0.000 N 
ATOM     16  C   UNL     1      -4.196  13.450  22.578  0.00  0.00    +0.000 C 
ATOM     17  C   UNL     1      -5.054  13.779  23.832  0.00  0.00    +0.000 C 
ATOM     18  N   UNL     1      -4.513  14.868  24.678  0.00  0.00    +0.000 NA
ATOM     19  C   UNL     1      -3.098  14.591  24.998  0.00  0.00    +0.000 C 
ATOM     20  C   UNL     1      -2.243  14.317  23.745  0.00  0.00    +0.000 C 
ATOM     21  H   UNL     1      -5.044  14.907  25.547  0.00  0.00    +0.000 HD
ENDBRANCH   4  15
BRANCH   7  22
ATOM     22  C   UNL     1      -0.796  11.999  18.100  0.00  0.00    +0.000 C 
BRANCH  22  23
ATOM     23  C   UNL     1      -0.097  13.370  18.264  0.00  0.00    +0.000 C 
BRANCH  23  24
ATOM     24  N   UNL     1       1.170  13.353  19.026  0.00  0.00    +0.000 NA
ATOM     25  C   UNL     1       1.407  14.584  19.794  0.00  0.00    +0.000 C 
ATOM     26  C   UNL     1       2.102  15.526  18.834  0.00  0.00    +0.000 C 
ATOM     27  C   UNL     1       3.009  14.600  18.049  0.00  0.00    +0.000 C 
ATOM     28  C   UNL     1       2.322  13.239  18.103  0.00  0.00    +0.000 C 
ENDBRANCH  23  24
ENDBRANCH  22  23
ENDBRANCH   7  22
TORSDOF 4
ENDMDL
MODEL 9
REMARK VINA RESULT:      -7.2      2.940      7.980
REMARK  Name = 
REMARK  4 active torsions:
REMARK  status: ('A' for Active; 'I' for Inactive)
REMARK    1  A    between atoms: C_4  and  N_5
REMARK    2  A    between atoms: N_13  and  C_14
REMARK    3  A    between atoms: C_14  and  C_15
REMARK    4  A    between atoms: C_15  and  N_16
REMARK                            x       y       z     vdW  Elec       q    Type
REMARK                         _______ _______ _______ _____ _____    ______ ____
ROOT
ATOM      1  O   UNL     1       0.344   9.658  23.787  0.00  0.00    +0.000 OA
ATOM      2  C   UNL     1       0.370   9.611  22.561  0.00  0.00    +0.000 A 
ATOM      3  C   UNL     1       1.087   8.521  21.887  0.00  0.00    +0.000 A 
ATOM      4  C   UNL     1       1.138   8.437  20.540  0.00  0.00    +0.000 A 
ATOM      5  N   UNL     1       0.550   9.398  19.733  0.00  0.00    +0.000 NA
ATOM      6  C   UNL     1      -0.119  10.344  20.304  0.00  0.00    +0.000 A 
ATOM      7  N   UNL     1      -0.849  11.379  19.719  0.00  0.00    +0.000 N 
ATOM      8  C   UNL     1      -1.451  12.109  20.745  0.00  0.00    +0.000 A 
ATOM      9  C   UNL     1      -2.315  13.185  20.711  0.00  0.00    +0.000 A 
ATOM     10  C   UNL     1      -2.726  13.747  21.925  0.00  0.00    +0.000 A 
ATOM     11  C   UNL     1      -2.294  13.212  23.152  0.00  0.00    +0.000 A 
ATOM     12  C   UNL     1      -1.448  12.103  23.190  0.00  0.00    +0.000 A 
ATOM     13  C   UNL     1      -1.042  11.573  21.980  0.00  0.00    +0.000 A 
ATOM     14  N   UNL     1      -0.224  10.472  21.689  0.00  0.00    +0.000 N 
ENDROOT
BRANCH   4  15
ATOM     15  N   UNL     1       1.822   7.344  20.001  0.00  0.00    +0.000 N 
ATOM     16  C   UNL     1       2.085   6.107  20.764  0.00  0.00    +0.000 C 
ATOM     17  C   UNL     1       1.966   4.887  19.809  0.00  0.00    +0.000 C 
ATOM     18  N   UNL     1       2.811   4.971  18.595  0.00  0.00    +0.000 NA
ATOM     19  C   UNL     1       2.579   6.263  17.919  0.00  0.00    +0.000 C 
ATOM     20  C   UNL     1       2.750   7.471  18.861  0.00  0.00    +0.000 C 
ATOM     21  H   UNL     1       2.553   4.218  17.960  0.00  0.00    +0.000 HD
ENDBRANCH   4  15
BRANCH   7  22
ATOM     22  C   UNL     1      -1.121  11.578  18.307  0.00  0.00    +0.000 C 
BRANCH  22  23
ATOM     23  C   UNL     1      -1.332  10.229  17.579  0.00  0.00    +0.000 C 
BRANCH  23  24
ATOM     24  N   UNL     1      -2.739   9.802  17.420  0.00  0.00    +0.000 NA
ATOM     25  C   UNL     1      -3.103   9.492  16.030  0.00  0.00    +0.000 C 
ATOM     26  C   UNL     1      -3.531  10.813  15.427  0.00  0.00    +0.000 C 
ATOM     27  C   UNL     1      -4.266  11.484  16.569  0.00  0.00    +0.000 C 
ATOM     28  C   UNL     1      -3.654  10.889  17.833  0.00  0.00    +0.000 C 
ENDBRANCH  23  24
ENDBRANCH  22  23
ENDBRANCH   7  22
TORSDOF 4
ENDMDL
