MODEL 1
REMARK VINA RESULT:      -8.6      0.000      0.000
REMARK  Name = 
REMARK  6 active torsions:
REMARK  status: ('A' for Active; 'I' for Inactive)
REMARK    1  A    between atoms: N_3  and  C_4
REMARK    2  A    between atoms: C_4  and  C_5
REMARK    3  A    between atoms: C_14  and  O_15
REMARK    4  A    between atoms: C_14  and  C_16
REMARK    5  A    between atoms: C_16  and  N_17
REMARK    6  A    between atoms: C_20  and  C_21
REMARK                            x       y       z     vdW  Elec       q    Type
REMARK                         _______ _______ _______ _____ _____    ______ ____
ROOT
ATOM      1  O   UNL     1      -4.762  10.356  18.057  0.00  0.00    +0.000 OA
ATOM      2  C   UNL     1      -4.061  11.362  18.145  0.00  0.00    +0.000 C 
ATOM      3  N   UNL     1      -4.600  12.580  18.467  0.00  0.00    +0.000 N 
ATOM      4  N   UNL     1      -2.693  11.336  17.957  0.00  0.00    +0.000 N 
ATOM      5  C   UNL     1      -2.053  10.089  17.566  0.00  0.00    +0.000 C 
ATOM      6  C   UNL     1      -1.069   9.626  18.636  0.00  0.00    +0.000 C 
ATOM      7  C   UNL     1      -0.013  10.705  18.975  0.00  0.00    +0.000 C 
ATOM      8  C   UNL     1      -0.742  12.047  19.250  0.00  0.00    +0.000 C 
ATOM      9  C   UNL     1      -1.022  12.503  20.674  0.00  0.00    +0.000 C 
ATOM     10  C   UNL     1       0.011  13.222  19.852  0.00  0.00    +0.000 C 
ATOM     11  C   UNL     1      -1.760  12.434  18.179  0.00  0.00    +0.000 C 
ATOM     12  H   UNL     1      -4.164  13.381  18.044  0.00  0.00    +0.000 HD
ENDROOT
BRANCH   7  13
ATOM     13  O   UNL     1       0.824  10.933  17.829  0.00  0.00    +0.000 OA
ATOM     14  H   UNL     1       1.729  11.095  18.147  0.00  0.00    +0.000 HD
ENDBRANCH   7  13
BRANCH   3  15
ATOM     15  C   UNL     1      -6.032  12.713  18.665  0.00  0.00    +0.000 C 
BRANCH  15  16
ATOM     16  C   UNL     1      -6.551  14.008  18.094  0.00  0.00    +0.000 A 
ATOM     17  C   UNL     1      -6.594  15.179  18.863  0.00  0.00    +0.000 A 
ATOM     18  C   UNL     1      -7.033  16.383  18.301  0.00  0.00    +0.000 A 
ATOM     19  C   UNL     1      -7.433  16.425  16.965  0.00  0.00    +0.000 A 
ATOM     20  C   UNL     1      -7.394  15.269  16.191  0.00  0.00    +0.000 A 
ATOM     21  C   UNL     1      -6.956  14.068  16.750  0.00  0.00    +0.000 A 
ENDBRANCH  15  16
ENDBRANCH   3  15
BRANCH   7  22
ATOM     22  C   UNL     1       0.913  10.220  20.150  0.00  0.00    +0.000 C 
BRANCH  22  23
ATOM     23  N   UNL     1       1.483   8.879  19.947  0.00  0.00    +0.000 N 
ATOM     24  C   UNL     1       2.073   8.531  18.759  0.00  0.00    +0.000 A 
ATOM     25  N   UNL     1       2.419   7.333  18.427  0.00  0.00    +0.000 NA
ATOM     26  C   UNL     1       2.156   6.330  19.335  0.00  0.00    +0.000 A 
ATOM     27  C   UNL     1       1.784   6.580  20.598  0.00  0.00    +0.000 A 
ATOM     28  C   UNL     1       1.438   7.960  20.972  0.00  0.00    +0.000 A 
ATOM     29  O   UNL     1       1.083   8.208  22.119  0.00  0.00    +0.000 OA
BRANCH  26  30
ATOM     30  C   UNL     1       2.255   4.922  18.856  0.00  0.00    +0.000 A 
ATOM     31  C   UNL     1       3.180   4.563  17.863  0.00  0.00    +0.000 A 
ATOM     32  C   UNL     1       3.219   3.260  17.346  0.00  0.00    +0.000 A 
ATOM     33  C   UNL     1       2.329   2.291  17.809  0.00  0.00    +0.000 A 
ATOM     34  C   UNL     1       1.400   2.625  18.786  0.00  0.00    +0.000 A 
ATOM     35  C   UNL     1       1.365   3.924  19.291  0.00  0.00    +0.000 A 
ATOM     36  F   UNL     1       0.413   4.204  20.198  0.00  0.00    +0.000 F 
ENDBRANCH  26  30
ENDBRANCH  22  23
ENDBRANCH   7  22
TORSDOF 6
ENDMDL
MODEL 2
REMARK VINA RESULT:      -8.4      3.558     10.392
REMARK  Name = 
REMARK  6 active torsions:
REMARK  status: ('A' for Active; 'I' for Inactive)
REMARK    1  A    between atoms: N_3  and  C_4
REMARK    2  A    between atoms: C_4  and  C_5
REMARK    3  A    between atoms: C_14  and  O_15
REMARK    4  A    between atoms: C_14  and  C_16
REMARK    5  A    between atoms: C_16  and  N_17
REMARK    6  A    between atoms: C_20  and  C_21
REMARK                            x       y       z     vdW  Elec       q    Type
REMARK                         _______ _______ _______ _____ _____    ______ ____
ROOT
ATOM      1  O   UNL     1       3.473   8.316  17.601  0.00  0.00    +0.000 OA
ATOM      2  C   UNL     1       2.668   7.873  18.418  0.00  0.00    +0.000 C 
ATOM      3  N   UNL     1       2.890   6.686  19.066  0.00  0.00    +0.000 N 
ATOM      4  N   UNL     1       1.510   8.543  18.762  0.00  0.00    +0.000 N 
ATOM      5  C   UNL     1       1.181   9.787  18.082  0.00  0.00    +0.000 C 
ATOM      6  C   UNL     1       1.146  10.951  19.069  0.00  0.00    +0.000 C 
ATOM      7  C   UNL     1       0.182  10.696  20.251  0.00  0.00    +0.000 C 
ATOM      8  C   UNL     1       0.488   9.298  20.851  0.00  0.00    +0.000 C 
ATOM      9  C   UNL     1       1.349   9.158  22.098  0.00  0.00    +0.000 C 
ATOM     10  C   UNL     1      -0.126   8.880  22.178  0.00  0.00    +0.000 C 
ATOM     11  C   UNL     1       0.570   8.180  19.815  0.00  0.00    +0.000 C 
ATOM     12  H   UNL     1       2.072   6.142  19.281  0.00  0.00    +0.000 HD
ENDROOT
BRANCH   7  13
ATOM     13  O   UNL     1      -1.169  10.634  19.763  0.00  0.00    +0.000 OA
ATOM     14  H   UNL     1      -1.752  10.449  20.520  0.00  0.00    +0.000 HD
ENDBRANCH   7  13
BRANCH   3  15
ATOM     15  C   UNL     1       4.070   5.899  18.759  0.00  0.00    +0.000 C 
BRANCH  15  16
ATOM     16  C   UNL     1       3.740   4.434  18.631  0.00  0.00    +0.000 A 
ATOM     17  C   UNL     1       4.303   3.481  19.492  0.00  0.00    +0.000 A 
ATOM     18  C   UNL     1       3.947   2.132  19.389  0.00  0.00    +0.000 A 
ATOM     19  C   UNL     1       3.025   1.724  18.426  0.00  0.00    +0.000 A 
ATOM     20  C   UNL     1       2.457   2.660  17.566  0.00  0.00    +0.000 A 
ATOM     21  C   UNL     1       2.812   4.007  17.667  0.00  0.00    +0.000 A 
ENDBRANCH  15  16
ENDBRANCH   3  15
BRANCH   7  22
ATOM     22  C   UNL     1       0.257  11.876  21.289  0.00  0.00    +0.000 C 
BRANCH  22  23
ATOM     23  N   UNL     1      -1.057  12.375  21.721  0.00  0.00    +0.000 N 
ATOM     24  C   UNL     1      -1.623  11.956  22.897  0.00  0.00    +0.000 A 
ATOM     25  N   UNL     1      -2.842  12.187  23.256  0.00  0.00    +0.000 NA
ATOM     26  C   UNL     1      -3.631  12.895  22.376  0.00  0.00    +0.000 A 
ATOM     27  C   UNL     1      -3.130  13.531  21.308  0.00  0.00    +0.000 A 
ATOM     28  C   UNL     1      -1.726  13.292  20.940  0.00  0.00    +0.000 A 
ATOM     29  O   UNL     1      -1.250  13.854  19.959  0.00  0.00    +0.000 OA
BRANCH  26  30
ATOM     30  C   UNL     1      -5.101  12.902  22.620  0.00  0.00    +0.000 A 
ATOM     31  C   UNL     1      -5.622  13.292  23.865  0.00  0.00    +0.000 A 
ATOM     32  C   UNL     1      -6.998  13.219  24.129  0.00  0.00    +0.000 A 
ATOM     33  C   UNL     1      -7.879  12.748  23.156  0.00  0.00    +0.000 A 
ATOM     34  C   UNL     1      -7.385  12.350  21.920  0.00  0.00    +0.000 A 
ATOM     35  C   UNL     1      -6.016  12.422  21.666  0.00  0.00    +0.000 A 
ATOM     36  F   UNL     1      -5.590  11.977  20.472  0.00  0.00    +0.000 F 
ENDBRANCH  26  30
ENDBRANCH  22  23
ENDBRANCH   7  22
TORSDOF 6
ENDMDL
MODEL 3
REMARK VINA RESULT:      -8.3      1.520      2.324
REMARK  Name = 
REMARK  6 active torsions:
REMARK  status: ('A' for Active; 'I' for Inactive)
REMARK    1  A    between atoms: N_3  and  C_4
REMARK    2  A    between atoms: C_4  and  C_5
REMARK    3  A    between atoms: C_14  and  O_15
REMARK    4  A    between atoms: C_14  and  C_16
REMARK    5  A    between atoms: C_16  and  N_17
REMARK    6  A    between atoms: C_20  and  C_21
REMARK                            x       y       z     vdW  Elec       q    Type
REMARK                         _______ _______ _______ _____ _____    ______ ____
ROOT
ATOM      1  O   UNL     1      -4.868  10.283  18.161  0.00  0.00    +0.000 OA
ATOM      2  C   UNL     1      -4.141  11.267  18.045  0.00  0.00    +0.000 C 
ATOM      3  N   UNL     1      -4.640  12.539  18.152  0.00  0.00    +0.000 N 
ATOM      4  N   UNL     1      -2.780  11.167  17.828  0.00  0.00    +0.000 N 
ATOM      5  C   UNL     1      -2.184   9.851  17.655  0.00  0.00    +0.000 C 
ATOM      6  C   UNL     1      -1.177   9.562  18.765  0.00  0.00    +0.000 C 
ATOM      7  C   UNL     1      -0.086  10.653  18.872  0.00  0.00    +0.000 C 
ATOM      8  C   UNL     1      -0.773  12.043  18.916  0.00  0.00    +0.000 C 
ATOM      9  C   UNL     1      -0.997  12.759  20.240  0.00  0.00    +0.000 C 
ATOM     10  C   UNL     1       0.027  13.286  19.273  0.00  0.00    +0.000 C 
ATOM     11  C   UNL     1      -1.814  12.258  17.820  0.00  0.00    +0.000 C 
ATOM     12  H   UNL     1      -4.198  13.236  17.578  0.00  0.00    +0.000 HD
ENDROOT
BRANCH   7  13
ATOM     13  O   UNL     1       0.720  10.644  17.682  0.00  0.00    +0.000 OA
ATOM     14  H   UNL     1       1.543  11.127  17.874  0.00  0.00    +0.000 HD
ENDBRANCH   7  13
BRANCH   3  15
ATOM     15  C   UNL     1      -6.061  12.748  18.361  0.00  0.00    +0.000 C 
BRANCH  15  16
ATOM     16  C   UNL     1      -6.419  12.687  19.824  0.00  0.00    +0.000 A 
ATOM     17  C   UNL     1      -7.365  11.771  20.305  0.00  0.00    +0.000 A 
ATOM     18  C   UNL     1      -7.650  11.695  21.673  0.00  0.00    +0.000 A 
ATOM     19  C   UNL     1      -6.990  12.534  22.571  0.00  0.00    +0.000 A 
ATOM     20  C   UNL     1      -6.048  13.447  22.106  0.00  0.00    +0.000 A 
ATOM     21  C   UNL     1      -5.763  13.523  20.741  0.00  0.00    +0.000 A 
ENDBRANCH  15  16
ENDBRANCH   3  15
BRANCH   7  22
ATOM     22  C   UNL     1       0.866  10.364  20.091  0.00  0.00    +0.000 C 
BRANCH  22  23
ATOM     23  N   UNL     1       1.344   8.974  20.158  0.00  0.00    +0.000 N 
ATOM     24  C   UNL     1       2.116   8.440  19.159  0.00  0.00    +0.000 A 
ATOM     25  N   UNL     1       2.413   7.190  19.040  0.00  0.00    +0.000 NA
ATOM     26  C   UNL     1       1.896   6.330  19.985  0.00  0.00    +0.000 A 
ATOM     27  C   UNL     1       1.314   6.763  21.112  0.00  0.00    +0.000 A 
ATOM     28  C   UNL     1       1.026   8.198  21.251  0.00  0.00    +0.000 A 
ATOM     29  O   UNL     1       0.483   8.613  22.269  0.00  0.00    +0.000 OA
BRANCH  26  30
ATOM     30  C   UNL     1       1.960   4.869  19.697  0.00  0.00    +0.000 A 
ATOM     31  C   UNL     1       1.651   4.373  18.420  0.00  0.00    +0.000 A 
ATOM     32  C   UNL     1       1.626   2.994  18.166  0.00  0.00    +0.000 A 
ATOM     33  C   UNL     1       1.902   2.084  19.185  0.00  0.00    +0.000 A 
ATOM     34  C   UNL     1       2.203   2.551  20.458  0.00  0.00    +0.000 A 
ATOM     35  C   UNL     1       2.222   3.923  20.704  0.00  0.00    +0.000 A 
ATOM     36  F   UNL     1       2.470   4.316  21.965  0.00  0.00    +0.000 F 
ENDBRANCH  26  30
ENDBRANCH  22  23
ENDBRANCH   7  22
TORSDOF 6
ENDMDL
MODEL 4
REMARK VINA RESULT:      -8.3      1.598      2.145
REMARK  Name = 
REMARK  6 active torsions:
REMARK  status: ('A' for Active; 'I' for Inactive)
REMARK    1  A    between atoms: N_3  and  C_4
REMARK    2  A    between atoms: C_4  and  C_5
REMARK    3  A    between atoms: C_14  and  O_15
REMARK    4  A    between atoms: C_14  and  C_16
REMARK    5  A    between atoms: C_16  and  N_17
REMARK    6  A    between atoms: C_20  and  C_21
REMARK                            x       y       z     vdW  Elec       q    Type
REMARK                         _______ _______ _______ _____ _____    ______ ____
ROOT
ATOM      1  O   UNL     1      -4.319   9.726  17.388  0.00  0.00    +0.000 OA
ATOM      2  C   UNL     1      -3.877  10.834  17.687  0.00  0.00    +0.000 C 
ATOM      3  N   UNL     1      -4.710  11.855  18.064  0.00  0.00    +0.000 N 
ATOM      4  N   UNL     1      -2.526  11.121  17.690  0.00  0.00    +0.000 N 
ATOM      5  C   UNL     1      -1.583  10.103  17.255  0.00  0.00    +0.000 C 
ATOM      6  C   UNL     1      -0.645   9.710  18.393  0.00  0.00    +0.000 C 
ATOM      7  C   UNL     1       0.095  10.928  18.995  0.00  0.00    +0.000 C 
ATOM      8  C   UNL     1      -0.944  12.035  19.315  0.00  0.00    +0.000 C 
ATOM      9  C   UNL     1      -1.476  12.218  20.728  0.00  0.00    +0.000 C 
ATOM     10  C   UNL     1      -0.547  13.245  20.146  0.00  0.00    +0.000 C 
ATOM     11  C   UNL     1      -1.895  12.348  18.162  0.00  0.00    +0.000 C 
ATOM     12  H   UNL     1      -4.420  12.781  17.799  0.00  0.00    +0.000 HD
ENDROOT
BRANCH   7  13
ATOM     13  O   UNL     1       0.983  11.485  18.011  0.00  0.00    +0.000 OA
ATOM     14  H   UNL     1       0.440  11.860  17.297  0.00  0.00    +0.000 HD
ENDBRANCH   7  13
BRANCH   3  15
ATOM     15  C   UNL     1      -6.147  11.657  18.074  0.00  0.00    +0.000 C 
BRANCH  15  16
ATOM     16  C   UNL     1      -6.731  11.909  19.441  0.00  0.00    +0.000 A 
ATOM     17  C   UNL     1      -6.753  13.195  19.999  0.00  0.00    +0.000 A 
ATOM     18  C   UNL     1      -7.342  13.419  21.248  0.00  0.00    +0.000 A 
ATOM     19  C   UNL     1      -7.916  12.358  21.949  0.00  0.00    +0.000 A 
ATOM     20  C   UNL     1      -7.903  11.077  21.405  0.00  0.00    +0.000 A 
ATOM     21  C   UNL     1      -7.314  10.853  20.159  0.00  0.00    +0.000 A 
ENDBRANCH  15  16
ENDBRANCH   3  15
BRANCH   7  22
ATOM     22  C   UNL     1       0.970  10.487  20.227  0.00  0.00    +0.000 C 
BRANCH  22  23
ATOM     23  N   UNL     1       1.468   9.106  20.141  0.00  0.00    +0.000 N 
ATOM     24  C   UNL     1       2.189   8.678  19.057  0.00  0.00    +0.000 A 
ATOM     25  N   UNL     1       2.495   7.448  18.809  0.00  0.00    +0.000 NA
ATOM     26  C   UNL     1       2.042   6.498  19.699  0.00  0.00    +0.000 A 
ATOM     27  C   UNL     1       1.519   6.817  20.891  0.00  0.00    +0.000 A 
ATOM     28  C   UNL     1       1.221   8.229  21.175  0.00  0.00    +0.000 A 
ATOM     29  O   UNL     1       0.731   8.541  22.255  0.00  0.00    +0.000 OA
BRANCH  26  30
ATOM     30  C   UNL     1       2.108   5.070  19.277  0.00  0.00    +0.000 A 
ATOM     31  C   UNL     1       2.009   4.715  17.921  0.00  0.00    +0.000 A 
ATOM     32  C   UNL     1       1.983   3.371  17.525  0.00  0.00    +0.000 A 
ATOM     33  C   UNL     1       2.050   2.354  18.477  0.00  0.00    +0.000 A 
ATOM     34  C   UNL     1       2.142   2.681  19.824  0.00  0.00    +0.000 A 
ATOM     35  C   UNL     1       2.162   4.020  20.210  0.00  0.00    +0.000 A 
ATOM     36  F   UNL     1       2.201   4.277  21.528  0.00  0.00    +0.000 F 
ENDBRANCH  26  30
ENDBRANCH  22  23
ENDBRANCH   7  22
TORSDOF 6
ENDMDL
MODEL 5
REMARK VINA RESULT:      -8.2      6.401      8.873
REMARK  Name = 
REMARK  6 active torsions:
REMARK  status: ('A' for Active; 'I' for Inactive)
REMARK    1  A    between atoms: N_3  and  C_4
REMARK    2  A    between atoms: C_4  and  C_5
REMARK    3  A    between atoms: C_14  and  O_15
REMARK    4  A    between atoms: C_14  and  C_16
REMARK    5  A    between atoms: C_16  and  N_17
REMARK    6  A    between atoms: C_20  and  C_21
REMARK                            x       y       z     vdW  Elec       q    Type
REMARK                         _______ _______ _______ _____ _____    ______ ____
ROOT
ATOM      1  O   UNL     1       2.048  11.793  18.277  0.00  0.00    +0.000 OA
ATOM      2  C   UNL     1       1.471  12.786  18.715  0.00  0.00    +0.000 C 
ATOM      3  N   UNL     1       0.212  12.700  19.250  0.00  0.00    +0.000 N 
ATOM      4  N   UNL     1       2.049  14.040  18.726  0.00  0.00    +0.000 N 
ATOM      5  C   UNL     1       3.365  14.220  18.131  0.00  0.00    +0.000 C 
ATOM      6  C   UNL     1       4.378  14.667  19.182  0.00  0.00    +0.000 C 
ATOM      7  C   UNL     1       3.930  15.945  19.929  0.00  0.00    +0.000 C 
ATOM      8  C   UNL     1       2.472  15.749  20.423  0.00  0.00    +0.000 C 
ATOM      9  C   UNL     1       2.186  15.340  21.860  0.00  0.00    +0.000 C 
ATOM     10  C   UNL     1       1.853  16.733  21.404  0.00  0.00    +0.000 C 
ATOM     11  C   UNL     1       1.513  15.244  19.348  0.00  0.00    +0.000 C 
ATOM     12  H   UNL     1      -0.382  13.498  19.109  0.00  0.00    +0.000 HD
ENDROOT
BRANCH   7  13
ATOM     13  O   UNL     1       3.894  17.051  19.010  0.00  0.00    +0.000 OA
ATOM     14  H   UNL     1       3.672  17.852  19.515  0.00  0.00    +0.000 HD
ENDBRANCH   7  13
BRANCH   3  15
ATOM     15  C   UNL     1      -0.487  11.428  19.267  0.00  0.00    +0.000 C 
BRANCH  15  16
ATOM     16  C   UNL     1      -0.389  10.761  20.615  0.00  0.00    +0.000 A 
ATOM     17  C   UNL     1       0.369   9.595  20.798  0.00  0.00    +0.000 A 
ATOM     18  C   UNL     1       0.488   9.017  22.067  0.00  0.00    +0.000 A 
ATOM     19  C   UNL     1      -0.147   9.600  23.162  0.00  0.00    +0.000 A 
ATOM     20  C   UNL     1      -0.902  10.758  22.994  0.00  0.00    +0.000 A 
ATOM     21  C   UNL     1      -1.022  11.336  21.729  0.00  0.00    +0.000 A 
ENDBRANCH  15  16
ENDBRANCH   3  15
BRANCH   7  22
ATOM     22  C   UNL     1       4.955  16.307  21.067  0.00  0.00    +0.000 C 
BRANCH  22  23
ATOM     23  N   UNL     1       6.242  15.604  20.955  0.00  0.00    +0.000 N 
ATOM     24  C   UNL     1       7.179  15.982  20.028  0.00  0.00    +0.000 A 
ATOM     25  N   UNL     1       8.240  15.310  19.732  0.00  0.00    +0.000 NA
ATOM     26  C   UNL     1       8.429  14.113  20.389  0.00  0.00    +0.000 A 
ATOM     27  C   UNL     1       7.700  13.753  21.455  0.00  0.00    +0.000 A 
ATOM     28  C   UNL     1       6.521  14.558  21.807  0.00  0.00    +0.000 A 
ATOM     29  O   UNL     1       5.833  14.239  22.771  0.00  0.00    +0.000 OA
BRANCH  26  30
ATOM     30  C   UNL     1       9.460  13.184  19.848  0.00  0.00    +0.000 A 
ATOM     31  C   UNL     1      10.638  12.919  20.566  0.00  0.00    +0.000 A 
ATOM     32  C   UNL     1      11.651  12.114  20.024  0.00  0.00    +0.000 A 
ATOM     33  C   UNL     1      11.508  11.562  18.752  0.00  0.00    +0.000 A 
ATOM     34  C   UNL     1      10.355  11.816  18.020  0.00  0.00    +0.000 A 
ATOM     35  C   UNL     1       9.355  12.622  18.564  0.00  0.00    +0.000 A 
ATOM     36  F   UNL     1       8.284  12.874  17.792  0.00  0.00    +0.000 F 
ENDBRANCH  26  30
ENDBRANCH  22  23
ENDBRANCH   7  22
TORSDOF 6
ENDMDL
MODEL 6
REMARK VINA RESULT:      -8.2      6.380      8.401
REMARK  Name = 
REMARK  6 active torsions:
REMARK  status: ('A' for Active; 'I' for Inactive)
REMARK    1  A    between atoms: N_3  and  C_4
REMARK    2  A    between atoms: C_4  and  C_5
REMARK    3  A    between atoms: C_14  and  O_15
REMARK    4  A    between atoms: C_14  and  C_16
REMARK    5  A    between atoms: C_16  and  N_17
REMARK    6  A    between atoms: C_20  and  C_21
REMARK                            x       y       z     vdW  Elec       q    Type
REMARK                         _______ _______ _______ _____ _____    ______ ____
ROOT
ATOM      1  O   UNL     1       2.133  11.751  18.537  0.00  0.00    +0.000 OA
ATOM      2  C   UNL     1       1.539  12.785  18.836  0.00  0.00    +0.000 C 
ATOM      3  N   UNL     1       0.343  12.752  19.503  0.00  0.00    +0.000 N 
ATOM      4  N   UNL     1       2.039  14.040  18.550  0.00  0.00    +0.000 N 
ATOM      5  C   UNL     1       3.281  14.157  17.801  0.00  0.00    +0.000 C 
ATOM      6  C   UNL     1       4.357  14.842  18.639  0.00  0.00    +0.000 C 
ATOM      7  C   UNL     1       3.903  16.221  19.172  0.00  0.00    +0.000 C 
ATOM      8  C   UNL     1       2.512  16.063  19.841  0.00  0.00    +0.000 C 
ATOM      9  C   UNL     1       2.385  15.930  21.351  0.00  0.00    +0.000 C 
ATOM     10  C   UNL     1       1.927  17.192  20.676  0.00  0.00    +0.000 C 
ATOM     11  C   UNL     1       1.490  15.319  18.985  0.00  0.00    +0.000 C 
ATOM     12  H   UNL     1      -0.309  13.482  19.275  0.00  0.00    +0.000 HD
ENDROOT
BRANCH   7  13
ATOM     13  O   UNL     1       3.716  17.124  18.069  0.00  0.00    +0.000 OA
ATOM     14  H   UNL     1       3.198  16.661  17.388  0.00  0.00    +0.000 HD
ENDBRANCH   7  13
BRANCH   3  15
ATOM     15  C   UNL     1      -0.273  11.480  19.832  0.00  0.00    +0.000 C 
BRANCH  15  16
ATOM     16  C   UNL     1      -1.376  11.133  18.864  0.00  0.00    +0.000 A 
ATOM     17  C   UNL     1      -2.612  11.794  18.900  0.00  0.00    +0.000 A 
ATOM     18  C   UNL     1      -3.606  11.493  17.962  0.00  0.00    +0.000 A 
ATOM     19  C   UNL     1      -3.372  10.530  16.981  0.00  0.00    +0.000 A 
ATOM     20  C   UNL     1      -2.148   9.867  16.934  0.00  0.00    +0.000 A 
ATOM     21  C   UNL     1      -1.156  10.167  17.869  0.00  0.00    +0.000 A 
ENDBRANCH  15  16
ENDBRANCH   3  15
BRANCH   7  22
ATOM     22  C   UNL     1       5.004  16.839  20.110  0.00  0.00    +0.000 C 
BRANCH  22  23
ATOM     23  N   UNL     1       6.255  16.065  20.153  0.00  0.00    +0.000 N 
ATOM     24  C   UNL     1       7.231  16.242  19.207  0.00  0.00    +0.000 A 
ATOM     25  N   UNL     1       8.261  15.479  19.054  0.00  0.00    +0.000 NA
ATOM     26  C   UNL     1       8.372  14.397  19.902  0.00  0.00    +0.000 A 
ATOM     27  C   UNL     1       7.601  14.251  20.988  0.00  0.00    +0.000 A 
ATOM     28  C   UNL     1       6.459  15.159  21.170  0.00  0.00    +0.000 A 
ATOM     29  O   UNL     1       5.733  15.035  22.151  0.00  0.00    +0.000 OA
BRANCH  26  30
ATOM     30  C   UNL     1       9.364  13.343  19.549  0.00  0.00    +0.000 A 
ATOM     31  C   UNL     1      10.497  13.125  20.349  0.00  0.00    +0.000 A 
ATOM     32  C   UNL     1      11.478  12.194  19.977  0.00  0.00    +0.000 A 
ATOM     33  C   UNL     1      11.348  11.468  18.794  0.00  0.00    +0.000 A 
ATOM     34  C   UNL     1      10.239  11.672  17.983  0.00  0.00    +0.000 A 
ATOM     35  C   UNL     1       9.271  12.602  18.357  0.00  0.00    +0.000 A 
ATOM     36  F   UNL     1       8.245  12.795  17.510  0.00  0.00    +0.000 F 
ENDBRANCH  26  30
ENDBRANCH  22  23
ENDBRANCH   7  22
TORSDOF 6
ENDMDL
MODEL 7
REMARK VINA RESULT:      -8.2      1.895      2.656
REMARK  Name = 
REMARK  6 active torsions:
REMARK  status: ('A' for Active; 'I' for Inactive)
REMARK    1  A    between atoms: N_3  and  C_4
REMARK    2  A    between atoms: C_4  and  C_5
REMARK    3  A    between atoms: C_14  and  O_15
REMARK    4  A    between atoms: C_14  and  C_16
REMARK    5  A    between atoms: C_16  and  N_17
REMARK    6  A    between atoms: C_20  and  C_21
REMARK                            x       y       z     vdW  Elec       q    Type
REMARK                         _______ _______ _______ _____ _____    ______ ____
ROOT
ATOM      1  O   UNL     1      -3.802   9.819  16.941  0.00  0.00    +0.000 OA
ATOM      2  C   UNL     1      -3.476  10.921  17.377  0.00  0.00    +0.000 C 
ATOM      3  N   UNL     1      -4.413  11.874  17.681  0.00  0.00    +0.000 N 
ATOM      4  N   UNL     1      -2.160  11.268  17.617  0.00  0.00    +0.000 N 
ATOM      5  C   UNL     1      -1.104  10.327  17.274  0.00  0.00    +0.000 C 
ATOM      6  C   UNL     1      -0.337   9.896  18.520  0.00  0.00    +0.000 C 
ATOM      7  C   UNL     1       0.230  11.098  19.311  0.00  0.00    +0.000 C 
ATOM      8  C   UNL     1      -0.906  12.132  19.530  0.00  0.00    +0.000 C 
ATOM      9  C   UNL     1      -1.664  12.187  20.848  0.00  0.00    +0.000 C 
ATOM     10  C   UNL     1      -0.713  13.295  20.489  0.00  0.00    +0.000 C 
ATOM     11  C   UNL     1      -1.681  12.484  18.262  0.00  0.00    +0.000 C 
ATOM     12  H   UNL     1      -4.137  12.828  17.526  0.00  0.00    +0.000 HD
ENDROOT
BRANCH   7  13
ATOM     13  O   UNL     1       1.229  11.765  18.520  0.00  0.00    +0.000 OA
ATOM     14  H   UNL     1       2.039  11.830  19.054  0.00  0.00    +0.000 HD
ENDBRANCH   7  13
BRANCH   3  15
ATOM     15  C   UNL     1      -5.821  11.611  17.447  0.00  0.00    +0.000 C 
BRANCH  15  16
ATOM     16  C   UNL     1      -6.553  11.335  18.736  0.00  0.00    +0.000 A 
ATOM     17  C   UNL     1      -6.885  10.027  19.120  0.00  0.00    +0.000 A 
ATOM     18  C   UNL     1      -7.522   9.786  20.342  0.00  0.00    +0.000 A 
ATOM     19  C   UNL     1      -7.831  10.849  21.191  0.00  0.00    +0.000 A 
ATOM     20  C   UNL     1      -7.506  12.152  20.821  0.00  0.00    +0.000 A 
ATOM     21  C   UNL     1      -6.870  12.393  19.601  0.00  0.00    +0.000 A 
ENDBRANCH  15  16
ENDBRANCH   3  15
BRANCH   7  22
ATOM     22  C   UNL     1       0.924  10.610  20.636  0.00  0.00    +0.000 C 
BRANCH  22  23
ATOM     23  N   UNL     1       1.180   9.161  20.676  0.00  0.00    +0.000 N 
ATOM     24  C   UNL     1       2.188   8.599  19.938  0.00  0.00    +0.000 A 
ATOM     25  N   UNL     1       2.359   7.331  19.762  0.00  0.00    +0.000 NA
ATOM     26  C   UNL     1       1.443   6.487  20.351  0.00  0.00    +0.000 A 
ATOM     27  C   UNL     1       0.553   6.910  21.260  0.00  0.00    +0.000 A 
ATOM     28  C   UNL     1       0.405   8.356  21.482  0.00  0.00    +0.000 A 
ATOM     29  O   UNL     1      -0.412   8.765  22.300  0.00  0.00    +0.000 OA
BRANCH  26  30
ATOM     30  C   UNL     1       1.433   5.063  19.911  0.00  0.00    +0.000 A 
ATOM     31  C   UNL     1       1.420   4.020  20.851  0.00  0.00    +0.000 A 
ATOM     32  C   UNL     1       1.498   2.680  20.446  0.00  0.00    +0.000 A 
ATOM     33  C   UNL     1       1.597   2.356  19.093  0.00  0.00    +0.000 A 
ATOM     34  C   UNL     1       1.619   3.372  18.146  0.00  0.00    +0.000 A 
ATOM     35  C   UNL     1       1.546   4.702  18.557  0.00  0.00    +0.000 A 
ATOM     36  F   UNL     1       1.622   5.644  17.601  0.00  0.00    +0.000 F 
ENDBRANCH  26  30
ENDBRANCH  22  23
ENDBRANCH   7  22
TORSDOF 6
ENDMDL
MODEL 8
REMARK VINA RESULT:      -8.1      1.657      2.618
REMARK  Name = 
REMARK  6 active torsions:
REMARK  status: ('A' for Active; 'I' for Inactive)
REMARK    1  A    between atoms: N_3  and  C_4
REMARK    2  A    between atoms: C_4  and  C_5
REMARK    3  A    between atoms: C_14  and  O_15
REMARK    4  A    between atoms: C_14  and  C_16
REMARK    5  A    between atoms: C_16  and  N_17
REMARK    6  A    between atoms: C_20  and  C_21
REMARK                            x       y       z     vdW  Elec       q    Type
REMARK                         _______ _______ _______ _____ _____    ______ ____
ROOT
ATOM      1  O   UNL     1      -4.913  10.415  17.116  0.00  0.00    +0.000 OA
ATOM      2  C   UNL     1      -4.265  11.383  17.509  0.00  0.00    +0.000 C 
ATOM      3  N   UNL     1      -4.885  12.511  17.980  0.00  0.00    +0.000 N 
ATOM      4  N   UNL     1      -2.884  11.397  17.531  0.00  0.00    +0.000 N 
ATOM      5  C   UNL     1      -2.154  10.255  17.001  0.00  0.00    +0.000 C 
ATOM      6  C   UNL     1      -1.326   9.587  18.095  0.00  0.00    +0.000 C 
ATOM      7  C   UNL     1      -0.368  10.576  18.799  0.00  0.00    +0.000 C 
ATOM      8  C   UNL     1      -1.173  11.834  19.221  0.00  0.00    +0.000 C 
ATOM      9  C   UNL     1      -1.676  11.993  20.648  0.00  0.00    +0.000 C 
ATOM     10  C   UNL     1      -0.556  12.864  20.154  0.00  0.00    +0.000 C 
ATOM     11  C   UNL     1      -2.030  12.428  18.106  0.00  0.00    +0.000 C 
ATOM     12  H   UNL     1      -4.416  13.381  17.797  0.00  0.00    +0.000 HD
ENDROOT
BRANCH   7  13
ATOM     13  O   UNL     1       0.624  11.032  17.864  0.00  0.00    +0.000 OA
ATOM     14  H   UNL     1       0.528  10.509  17.048  0.00  0.00    +0.000 HD
ENDBRANCH   7  13
BRANCH   3  15
ATOM     15  C   UNL     1      -6.333  12.600  17.980  0.00  0.00    +0.000 C 
BRANCH  15  16
ATOM     16  C   UNL     1      -6.918  12.096  19.275  0.00  0.00    +0.000 A 
ATOM     17  C   UNL     1      -7.166  10.731  19.481  0.00  0.00    +0.000 A 
ATOM     18  C   UNL     1      -7.663  10.277  20.707  0.00  0.00    +0.000 A 
ATOM     19  C   UNL     1      -7.916  11.182  21.737  0.00  0.00    +0.000 A 
ATOM     20  C   UNL     1      -7.674  12.539  21.546  0.00  0.00    +0.000 A 
ATOM     21  C   UNL     1      -7.178  12.995  20.323  0.00  0.00    +0.000 A 
ENDBRANCH  15  16
ENDBRANCH   3  15
BRANCH   7  22
ATOM     22  C   UNL     1       0.387   9.865  19.982  0.00  0.00    +0.000 C 
BRANCH  22  23
ATOM     23  N   UNL     1       1.426   8.919  19.544  0.00  0.00    +0.000 N 
ATOM     24  C   UNL     1       2.090   9.095  18.358  0.00  0.00    +0.000 A 
ATOM     25  N   UNL     1       2.867   8.223  17.808  0.00  0.00    +0.000 NA
ATOM     26  C   UNL     1       3.020   7.019  18.461  0.00  0.00    +0.000 A 
ATOM     27  C   UNL     1       2.594   6.821  19.717  0.00  0.00    +0.000 A 
ATOM     28  C   UNL     1       1.749   7.847  20.345  0.00  0.00    +0.000 A 
ATOM     29  O   UNL     1       1.339   7.679  21.489  0.00  0.00    +0.000 OA
BRANCH  26  30
ATOM     30  C   UNL     1       3.646   5.898  17.705  0.00  0.00    +0.000 A 
ATOM     31  C   UNL     1       4.730   6.129  16.842  0.00  0.00    +0.000 A 
ATOM     32  C   UNL     1       5.268   5.095  16.063  0.00  0.00    +0.000 A 
ATOM     33  C   UNL     1       4.729   3.811  16.125  0.00  0.00    +0.000 A 
ATOM     34  C   UNL     1       3.651   3.561  16.965  0.00  0.00    +0.000 A 
ATOM     35  C   UNL     1       3.119   4.595  17.734  0.00  0.00    +0.000 A 
ATOM     36  F   UNL     1       2.046   4.307  18.490  0.00  0.00    +0.000 F 
ENDBRANCH  26  30
ENDBRANCH  22  23
ENDBRANCH   7  22
TORSDOF 6
ENDMDL
MODEL 9
REMARK VINA RESULT:      -8.1      3.674     10.408
REMARK  Name = 
REMARK  6 active torsions:
REMARK  status: ('A' for Active; 'I' for Inactive)
REMARK    1  A    between atoms: N_3  and  C_4
REMARK    2  A    between atoms: C_4  and  C_5
REMARK    3  A    between atoms: C_14  and  O_15
REMARK    4  A    between atoms: C_14  and  C_16
REMARK    5  A    between atoms: C_16  and  N_17
REMARK    6  A    between atoms: C_20  and  C_21
REMARK                            x       y       z     vdW  Elec       q    Type
REMARK                         _______ _______ _______ _____ _____    ______ ____
ROOT
ATOM      1  O   UNL     1       3.019   8.960  17.517  0.00  0.00    +0.000 OA
ATOM      2  C   UNL     1       2.233   8.442  18.308  0.00  0.00    +0.000 C 
ATOM      3  N   UNL     1       2.434   7.172  18.784  0.00  0.00    +0.000 N 
ATOM      4  N   UNL     1       1.120   9.101  18.792  0.00  0.00    +0.000 N 
ATOM      5  C   UNL     1       0.813  10.435  18.297  0.00  0.00    +0.000 C 
ATOM      6  C   UNL     1       0.870  11.458  19.427  0.00  0.00    +0.000 C 
ATOM      7  C   UNL     1      -0.051  11.084  20.611  0.00  0.00    +0.000 C 
ATOM      8  C   UNL     1       0.223   9.609  21.009  0.00  0.00    +0.000 C 
ATOM      9  C   UNL     1       1.131   9.276  22.183  0.00  0.00    +0.000 C 
ATOM     10  C   UNL     1      -0.349   9.041  22.298  0.00  0.00    +0.000 C 
ATOM     11  C   UNL     1       0.213   8.635  19.833  0.00  0.00    +0.000 C 
ATOM     12  H   UNL     1       1.605   6.634  18.966  0.00  0.00    +0.000 HD
ENDROOT
BRANCH   7  13
ATOM     13  O   UNL     1      -1.424  11.134  20.186  0.00  0.00    +0.000 OA
ATOM     14  H   UNL     1      -1.897  11.745  20.777  0.00  0.00    +0.000 HD
ENDBRANCH   7  13
BRANCH   3  15
ATOM     15  C   UNL     1       3.566   6.392  18.320  0.00  0.00    +0.000 C 
BRANCH  15  16
ATOM     16  C   UNL     1       3.214   4.932  18.187  0.00  0.00    +0.000 A 
ATOM     17  C   UNL     1       4.207   3.943  18.145  0.00  0.00    +0.000 A 
ATOM     18  C   UNL     1       3.860   2.590  18.071  0.00  0.00    +0.000 A 
ATOM     19  C   UNL     1       2.518   2.214  18.039  0.00  0.00    +0.000 A 
ATOM     20  C   UNL     1       1.522   3.186  18.082  0.00  0.00    +0.000 A 
ATOM     21  C   UNL     1       1.867   4.537  18.156  0.00  0.00    +0.000 A 
ENDBRANCH  15  16
ENDBRANCH   3  15
BRANCH   7  22
ATOM     22  C   UNL     1       0.118  12.113  21.789  0.00  0.00    +0.000 C 
BRANCH  22  23
ATOM     23  N   UNL     1      -1.154  12.607  22.338  0.00  0.00    +0.000 N 
ATOM     24  C   UNL     1      -1.969  11.794  23.082  0.00  0.00    +0.000 A 
ATOM     25  N   UNL     1      -3.178  12.079  23.434  0.00  0.00    +0.000 NA
ATOM     26  C   UNL     1      -3.687  13.287  23.009  0.00  0.00    +0.000 A 
ATOM     27  C   UNL     1      -2.918  14.242  22.465  0.00  0.00    +0.000 A 
ATOM     28  C   UNL     1      -1.529  13.914  22.114  0.00  0.00    +0.000 A 
ATOM     29  O   UNL     1      -0.813  14.769  21.604  0.00  0.00    +0.000 OA
BRANCH  26  30
ATOM     30  C   UNL     1      -5.157  13.498  23.130  0.00  0.00    +0.000 A 
ATOM     31  C   UNL     1      -5.826  14.400  22.287  0.00  0.00    +0.000 A 
ATOM     32  C   UNL     1      -7.192  14.668  22.452  0.00  0.00    +0.000 A 
ATOM     33  C   UNL     1      -7.916  14.043  23.467  0.00  0.00    +0.000 A 
ATOM     34  C   UNL     1      -7.274  13.153  24.318  0.00  0.00    +0.000 A 
ATOM     35  C   UNL     1      -5.914  12.896  24.150  0.00  0.00    +0.000 A 
ATOM     36  F   UNL     1      -5.334  12.064  25.033  0.00  0.00    +0.000 F 
ENDBRANCH  26  30
ENDBRANCH  22  23
ENDBRANCH   7  22
TORSDOF 6
ENDMDL
