MODEL 1
REMARK VINA RESULT:      -8.1      0.000      0.000
REMARK  Name = 
REMARK  11 active torsions:
REMARK  status: ('A' for Active; 'I' for Inactive)
REMARK    1  A    between atoms: C_1  and  C_2
REMARK    2  A    between atoms: C_2  and  C_3
REMARK    3  A    between atoms: C_2  and  N_12
REMARK    4  A    between atoms: C_3  and  O_4
REMARK    5  A    between atoms: C_3  and  C_5
REMARK    6  A    between atoms: C_8  and  O_9
REMARK    7  A    between atoms: C_15  and  O_16
REMARK    8  A    between atoms: C_15  and  C_17
REMARK    9  A    between atoms: C_17  and  C_18
REMARK   10  A    between atoms: C_18  and  C_19
REMARK   11  A    between atoms: C_19  and  C_20
REMARK                            x       y       z     vdW  Elec       q    Type
REMARK                         _______ _______ _______ _____ _____    ______ ____
ROOT
ATOM      1  N   UNL     1       4.749   4.648  17.588  0.00  0.00    +0.000 NA
ATOM      2  C   UNL     1       5.787   4.798  16.561  0.00  0.00    +0.000 C 
ATOM      3  C   UNL     1       6.746   5.939  16.896  0.00  0.00    +0.000 C 
ATOM      4  C   UNL     1       7.364   5.750  18.286  0.00  0.00    +0.000 C 
ATOM      5  C   UNL     1       6.265   5.518  19.323  0.00  0.00    +0.000 C 
ATOM      6  C   UNL     1       5.336   4.398  18.910  0.00  0.00    +0.000 C 
ENDROOT
BRANCH   1   8
ATOM      7  C   UNL     1       3.925   2.286  17.984  0.00  0.00    +0.000 C 
ATOM      8  C   UNL     1       3.742   3.617  17.225  0.00  0.00    +0.000 C 
BRANCH   8   9
ATOM      9  C   UNL     1       2.273   4.155  17.383  0.00  0.00    +0.000 C 
BRANCH   9  10
ATOM     10  C   UNL     1       2.128   5.203  18.461  0.00  0.00    +0.000 A 
ATOM     11  C   UNL     1       1.761   4.815  19.756  0.00  0.00    +0.000 A 
ATOM     12  C   UNL     1       1.623   5.771  20.762  0.00  0.00    +0.000 A 
ATOM     13  C   UNL     1       1.846   7.112  20.465  0.00  0.00    +0.000 A 
ATOM     14  C   UNL     1       2.203   7.514  19.185  0.00  0.00    +0.000 A 
ATOM     15  C   UNL     1       2.344   6.563  18.180  0.00  0.00    +0.000 A 
BRANCH  13  16
ATOM     16  O   UNL     1       1.723   8.084  21.416  0.00  0.00    +0.000 OA
ATOM     17  H   UNL     1       0.865   7.968  21.853  0.00  0.00    +0.000 HD
ENDBRANCH  13  16
ENDBRANCH   9  10
BRANCH   9  18
ATOM     18  O   UNL     1       1.341   3.110  17.685  0.00  0.00    +0.000 OA
ATOM     19  H   UNL     1       0.750   3.026  16.920  0.00  0.00    +0.000 HD
ENDBRANCH   9  18
ENDBRANCH   8   9
ENDBRANCH   1   8
BRANCH   4  20
ATOM     20  O   UNL     1       8.209   4.590  18.263  0.00  0.00    +0.000 OA
ATOM     21  H   UNL     1       9.082   4.856  17.930  0.00  0.00    +0.000 HD
ENDBRANCH   4  20
BRANCH   4  22
ATOM     22  C   UNL     1       8.210   6.973  18.669  0.00  0.00    +0.000 C 
BRANCH  22  23
ATOM     23  C   UNL     1       8.230   8.021  17.559  0.00  0.00    +0.000 C 
BRANCH  23  24
ATOM     24  C   UNL     1       7.768   9.384  18.061  0.00  0.00    +0.000 C 
BRANCH  24  25
ATOM     25  C   UNL     1       8.970  10.149  18.543  0.00  0.00    +0.000 A 
ATOM     26  C   UNL     1       9.178  10.317  19.916  0.00  0.00    +0.000 A 
ATOM     27  C   UNL     1      10.198  11.138  20.379  0.00  0.00    +0.000 A 
ATOM     28  C   UNL     1      11.032  11.790  19.473  0.00  0.00    +0.000 A 
ATOM     29  C   UNL     1      10.844  11.620  18.100  0.00  0.00    +0.000 A 
ATOM     30  C   UNL     1       9.813  10.805  17.636  0.00  0.00    +0.000 A 
ENDBRANCH  24  25
ENDBRANCH  23  24
ENDBRANCH  22  23
ENDBRANCH   4  22
TORSDOF 10
ENDMDL
MODEL 2
REMARK VINA RESULT:      -8.0      1.820      2.479
REMARK  Name = 
REMARK  11 active torsions:
REMARK  status: ('A' for Active; 'I' for Inactive)
REMARK    1  A    between atoms: C_1  and  C_2
REMARK    2  A    between atoms: C_2  and  C_3
REMARK    3  A    between atoms: C_2  and  N_12
REMARK    4  A    between atoms: C_3  and  O_4
REMARK    5  A    between atoms: C_3  and  C_5
REMARK    6  A    between atoms: C_8  and  O_9
REMARK    7  A    between atoms: C_15  and  O_16
REMARK    8  A    between atoms: C_15  and  C_17
REMARK    9  A    between atoms: C_17  and  C_18
REMARK   10  A    between atoms: C_18  and  C_19
REMARK   11  A    between atoms: C_19  and  C_20
REMARK                            x       y       z     vdW  Elec       q    Type
REMARK                         _______ _______ _______ _____ _____    ______ ____
ROOT
ATOM      1  N   UNL     1       4.728   5.164  17.653  0.00  0.00    +0.000 NA
ATOM      2  C   UNL     1       4.776   6.507  17.063  0.00  0.00    +0.000 C 
ATOM      3  C   UNL     1       5.866   7.363  17.706  0.00  0.00    +0.000 C 
ATOM      4  C   UNL     1       7.231   6.671  17.622  0.00  0.00    +0.000 C 
ATOM      5  C   UNL     1       7.134   5.247  18.171  0.00  0.00    +0.000 C 
ATOM      6  C   UNL     1       6.015   4.472  17.513  0.00  0.00    +0.000 C 
ENDROOT
BRANCH   1   8
ATOM      7  C   UNL     1       3.824   2.832  17.250  0.00  0.00    +0.000 C 
ATOM      8  C   UNL     1       3.602   4.354  17.119  0.00  0.00    +0.000 C 
BRANCH   8   9
ATOM      9  C   UNL     1       2.227   4.777  17.752  0.00  0.00    +0.000 C 
BRANCH   9  10
ATOM     10  C   UNL     1       1.937   4.099  19.070  0.00  0.00    +0.000 A 
ATOM     11  C   UNL     1       1.056   3.010  19.107  0.00  0.00    +0.000 A 
ATOM     12  C   UNL     1       0.778   2.374  20.317  0.00  0.00    +0.000 A 
ATOM     13  C   UNL     1       1.378   2.835  21.485  0.00  0.00    +0.000 A 
ATOM     14  C   UNL     1       2.247   3.918  21.466  0.00  0.00    +0.000 A 
ATOM     15  C   UNL     1       2.528   4.553  20.261  0.00  0.00    +0.000 A 
BRANCH  13  16
ATOM     16  O   UNL     1       1.136   2.246  22.692  0.00  0.00    +0.000 OA
ATOM     17  H   UNL     1       0.263   2.537  22.998  0.00  0.00    +0.000 HD
ENDBRANCH  13  16
ENDBRANCH   9  10
BRANCH   9  18
ATOM     18  O   UNL     1       1.121   4.499  16.885  0.00  0.00    +0.000 OA
ATOM     19  H   UNL     1       1.258   5.017  16.075  0.00  0.00    +0.000 HD
ENDBRANCH   9  18
ENDBRANCH   8   9
ENDBRANCH   1   8
BRANCH   4  20
ATOM     20  O   UNL     1       7.627   6.593  16.245  0.00  0.00    +0.000 OA
ATOM     21  H   UNL     1       7.103   7.237  15.741  0.00  0.00    +0.000 HD
ENDBRANCH   4  20
BRANCH   4  22
ATOM     22  C   UNL     1       8.287   7.471  18.398  0.00  0.00    +0.000 C 
BRANCH  22  23
ATOM     23  C   UNL     1       8.278   8.948  18.013  0.00  0.00    +0.000 C 
BRANCH  23  24
ATOM     24  C   UNL     1       9.027   9.801  19.031  0.00  0.00    +0.000 C 
BRANCH  24  25
ATOM     25  C   UNL     1       9.545  11.031  18.337  0.00  0.00    +0.000 A 
ATOM     26  C   UNL     1      10.925  11.220  18.206  0.00  0.00    +0.000 A 
ATOM     27  C   UNL     1      11.428  12.412  17.698  0.00  0.00    +0.000 A 
ATOM     28  C   UNL     1      10.555  13.422  17.302  0.00  0.00    +0.000 A 
ATOM     29  C   UNL     1       9.175  13.240  17.414  0.00  0.00    +0.000 A 
ATOM     30  C   UNL     1       8.672  12.049  17.935  0.00  0.00    +0.000 A 
ENDBRANCH  24  25
ENDBRANCH  23  24
ENDBRANCH  22  23
ENDBRANCH   4  22
TORSDOF 10
ENDMDL
MODEL 3
REMARK VINA RESULT:      -7.6      0.557      1.335
REMARK  Name = 
REMARK  11 active torsions:
REMARK  status: ('A' for Active; 'I' for Inactive)
REMARK    1  A    between atoms: C_1  and  C_2
REMARK    2  A    between atoms: C_2  and  C_3
REMARK    3  A    between atoms: C_2  and  N_12
REMARK    4  A    between atoms: C_3  and  O_4
REMARK    5  A    between atoms: C_3  and  C_5
REMARK    6  A    between atoms: C_8  and  O_9
REMARK    7  A    between atoms: C_15  and  O_16
REMARK    8  A    between atoms: C_15  and  C_17
REMARK    9  A    between atoms: C_17  and  C_18
REMARK   10  A    between atoms: C_18  and  C_19
REMARK   11  A    between atoms: C_19  and  C_20
REMARK                            x       y       z     vdW  Elec       q    Type
REMARK                         _______ _______ _______ _____ _____    ______ ____
ROOT
ATOM      1  N   UNL     1       4.531   4.633  17.635  0.00  0.00    +0.000 NA
ATOM      2  C   UNL     1       5.370   5.048  16.503  0.00  0.00    +0.000 C 
ATOM      3  C   UNL     1       6.335   6.163  16.899  0.00  0.00    +0.000 C 
ATOM      4  C   UNL     1       7.192   5.749  18.102  0.00  0.00    +0.000 C 
ATOM      5  C   UNL     1       6.298   5.248  19.237  0.00  0.00    +0.000 C 
ATOM      6  C   UNL     1       5.348   4.171  18.764  0.00  0.00    +0.000 C 
ENDROOT
BRANCH   1   8
ATOM      7  C   UNL     1       3.738   2.240  17.878  0.00  0.00    +0.000 C 
ATOM      8  C   UNL     1       3.510   3.627  17.241  0.00  0.00    +0.000 C 
BRANCH   8   9
ATOM      9  C   UNL     1       2.050   4.140  17.518  0.00  0.00    +0.000 C 
BRANCH   9  10
ATOM     10  C   UNL     1       1.981   5.220  18.570  0.00  0.00    +0.000 A 
ATOM     11  C   UNL     1       2.258   6.547  18.215  0.00  0.00    +0.000 A 
ATOM     12  C   UNL     1       2.198   7.557  19.176  0.00  0.00    +0.000 A 
ATOM     13  C   UNL     1       1.868   7.233  20.488  0.00  0.00    +0.000 A 
ATOM     14  C   UNL     1       1.598   5.922  20.857  0.00  0.00    +0.000 A 
ATOM     15  C   UNL     1       1.654   4.913  19.902  0.00  0.00    +0.000 A 
BRANCH  13  16
ATOM     16  O   UNL     1       1.798   8.186  21.463  0.00  0.00    +0.000 OA
ATOM     17  H   UNL     1       0.862   8.329  21.676  0.00  0.00    +0.000 HD
ENDBRANCH  13  16
ENDBRANCH   9  10
BRANCH   9  18
ATOM     18  O   UNL     1       1.176   3.086  17.939  0.00  0.00    +0.000 OA
ATOM     19  H   UNL     1       0.438   3.502  18.416  0.00  0.00    +0.000 HD
ENDBRANCH   9  18
ENDBRANCH   8   9
ENDBRANCH   1   8
BRANCH   4  20
ATOM     20  O   UNL     1       8.056   4.674  17.706  0.00  0.00    +0.000 OA
ATOM     21  H   UNL     1       7.533   4.034  17.196  0.00  0.00    +0.000 HD
ENDBRANCH   4  20
BRANCH   4  22
ATOM     22  C   UNL     1       8.051   6.927  18.580  0.00  0.00    +0.000 C 
BRANCH  22  23
ATOM     23  C   UNL     1       8.208   7.993  17.498  0.00  0.00    +0.000 C 
BRANCH  23  24
ATOM     24  C   UNL     1       7.468   9.276  17.858  0.00  0.00    +0.000 C 
BRANCH  24  25
ATOM     25  C   UNL     1       8.477  10.309  18.281  0.00  0.00    +0.000 A 
ATOM     26  C   UNL     1       8.568  11.514  17.577  0.00  0.00    +0.000 A 
ATOM     27  C   UNL     1       9.584  12.419  17.858  0.00  0.00    +0.000 A 
ATOM     28  C   UNL     1      10.512  12.134  18.857  0.00  0.00    +0.000 A 
ATOM     29  C   UNL     1      10.424  10.941  19.576  0.00  0.00    +0.000 A 
ATOM     30  C   UNL     1       9.411  10.028  19.286  0.00  0.00    +0.000 A 
ENDBRANCH  24  25
ENDBRANCH  23  24
ENDBRANCH  22  23
ENDBRANCH   4  22
TORSDOF 10
ENDMDL
MODEL 4
REMARK VINA RESULT:      -7.5      1.005      1.680
REMARK  Name = 
REMARK  11 active torsions:
REMARK  status: ('A' for Active; 'I' for Inactive)
REMARK    1  A    between atoms: C_1  and  C_2
REMARK    2  A    between atoms: C_2  and  C_3
REMARK    3  A    between atoms: C_2  and  N_12
REMARK    4  A    between atoms: C_3  and  O_4
REMARK    5  A    between atoms: C_3  and  C_5
REMARK    6  A    between atoms: C_8  and  O_9
REMARK    7  A    between atoms: C_15  and  O_16
REMARK    8  A    between atoms: C_15  and  C_17
REMARK    9  A    between atoms: C_17  and  C_18
REMARK   10  A    between atoms: C_18  and  C_19
REMARK   11  A    between atoms: C_19  and  C_20
REMARK                            x       y       z     vdW  Elec       q    Type
REMARK                         _______ _______ _______ _____ _____    ______ ____
ROOT
ATOM      1  N   UNL     1       5.225   4.110  17.734  0.00  0.00    +0.000 NA
ATOM      2  C   UNL     1       5.474   4.959  18.906  0.00  0.00    +0.000 C 
ATOM      3  C   UNL     1       6.723   5.818  18.722  0.00  0.00    +0.000 C 
ATOM      4  C   UNL     1       6.632   6.654  17.440  0.00  0.00    +0.000 C 
ATOM      5  C   UNL     1       6.296   5.757  16.249  0.00  0.00    +0.000 C 
ATOM      6  C   UNL     1       5.069   4.913  16.516  0.00  0.00    +0.000 C 
ENDROOT
BRANCH   1   8
ATOM      7  C   UNL     1       4.076   2.510  19.327  0.00  0.00    +0.000 C 
ATOM      8  C   UNL     1       4.078   3.187  17.940  0.00  0.00    +0.000 C 
BRANCH   8   9
ATOM      9  C   UNL     1       2.702   3.894  17.658  0.00  0.00    +0.000 C 
BRANCH   9  10
ATOM     10  C   UNL     1       2.377   4.992  18.642  0.00  0.00    +0.000 A 
ATOM     11  C   UNL     1       2.549   6.330  18.263  0.00  0.00    +0.000 A 
ATOM     12  C   UNL     1       2.253   7.357  19.160  0.00  0.00    +0.000 A 
ATOM     13  C   UNL     1       1.793   7.038  20.434  0.00  0.00    +0.000 A 
ATOM     14  C   UNL     1       1.625   5.717  20.827  0.00  0.00    +0.000 A 
ATOM     15  C   UNL     1       1.917   4.692  19.934  0.00  0.00    +0.000 A 
BRANCH  13  16
ATOM     16  O   UNL     1       1.492   8.007  21.347  0.00  0.00    +0.000 OA
ATOM     17  H   UNL     1       0.570   7.882  21.623  0.00  0.00    +0.000 HD
ENDBRANCH  13  16
ENDBRANCH   9  10
BRANCH   9  18
ATOM     18  O   UNL     1       1.605   2.974  17.677  0.00  0.00    +0.000 OA
ATOM     19  H   UNL     1       1.457   2.727  18.605  0.00  0.00    +0.000 HD
ENDBRANCH   9  18
ENDBRANCH   8   9
ENDBRANCH   1   8
BRANCH   4  20
ATOM     20  O   UNL     1       5.577   7.615  17.588  0.00  0.00    +0.000 OA
ATOM     21  H   UNL     1       5.378   7.986  16.712  0.00  0.00    +0.000 HD
ENDBRANCH   4  20
BRANCH   4  22
ATOM     22  C   UNL     1       7.951   7.399  17.191  0.00  0.00    +0.000 C 
BRANCH  22  23
ATOM     23  C   UNL     1       8.315   8.318  18.354  0.00  0.00    +0.000 C 
BRANCH  23  24
ATOM     24  C   UNL     1       8.232   9.788  17.960  0.00  0.00    +0.000 C 
BRANCH  24  25
ATOM     25  C   UNL     1       9.363  10.526  18.622  0.00  0.00    +0.000 A 
ATOM     26  C   UNL     1       9.343  10.722  20.007  0.00  0.00    +0.000 A 
ATOM     27  C   UNL     1      10.301  11.522  20.619  0.00  0.00    +0.000 A 
ATOM     28  C   UNL     1      11.298  12.123  19.854  0.00  0.00    +0.000 A 
ATOM     29  C   UNL     1      11.337  11.924  18.473  0.00  0.00    +0.000 A 
ATOM     30  C   UNL     1      10.369  11.132  17.858  0.00  0.00    +0.000 A 
ENDBRANCH  24  25
ENDBRANCH  23  24
ENDBRANCH  22  23
ENDBRANCH   4  22
TORSDOF 10
ENDMDL
MODEL 5
REMARK VINA RESULT:      -7.3      5.648      9.560
REMARK  Name = 
REMARK  11 active torsions:
REMARK  status: ('A' for Active; 'I' for Inactive)
REMARK    1  A    between atoms: C_1  and  C_2
REMARK    2  A    between atoms: C_2  and  C_3
REMARK    3  A    between atoms: C_2  and  N_12
REMARK    4  A    between atoms: C_3  and  O_4
REMARK    5  A    between atoms: C_3  and  C_5
REMARK    6  A    between atoms: C_8  and  O_9
REMARK    7  A    between atoms: C_15  and  O_16
REMARK    8  A    between atoms: C_15  and  C_17
REMARK    9  A    between atoms: C_17  and  C_18
REMARK   10  A    between atoms: C_18  and  C_19
REMARK   11  A    between atoms: C_19  and  C_20
REMARK                            x       y       z     vdW  Elec       q    Type
REMARK                         _______ _______ _______ _____ _____    ______ ____
ROOT
ATOM      1  N   UNL     1      -0.480  10.822  20.120  0.00  0.00    +0.000 NA
ATOM      2  C   UNL     1       0.962  10.713  20.375  0.00  0.00    +0.000 C 
ATOM      3  C   UNL     1       1.563   9.492  19.683  0.00  0.00    +0.000 C 
ATOM      4  C   UNL     1       1.266   9.509  18.178  0.00  0.00    +0.000 C 
ATOM      5  C   UNL     1      -0.232   9.702  17.941  0.00  0.00    +0.000 C 
ATOM      6  C   UNL     1      -0.764  10.908  18.682  0.00  0.00    +0.000 C 
ENDROOT
BRANCH   1   8
ATOM      7  C   UNL     1      -2.300  12.584  20.143  0.00  0.00    +0.000 C 
ATOM      8  C   UNL     1      -1.104  11.940  20.875  0.00  0.00    +0.000 C 
BRANCH   8   9
ATOM      9  C   UNL     1      -1.504  11.507  22.333  0.00  0.00    +0.000 C 
BRANCH   9  10
ATOM     10  C   UNL     1      -2.144  12.615  23.135  0.00  0.00    +0.000 A 
ATOM     11  C   UNL     1      -1.391  13.749  23.468  0.00  0.00    +0.000 A 
ATOM     12  C   UNL     1      -1.968  14.780  24.209  0.00  0.00    +0.000 A 
ATOM     13  C   UNL     1      -3.294  14.669  24.619  0.00  0.00    +0.000 A 
ATOM     14  C   UNL     1      -4.050  13.548  24.302  0.00  0.00    +0.000 A 
ATOM     15  C   UNL     1      -3.479  12.519  23.562  0.00  0.00    +0.000 A 
BRANCH  13  16
ATOM     16  O   UNL     1      -3.902  15.651  25.346  0.00  0.00    +0.000 OA
ATOM     17  H   UNL     1      -3.605  15.570  26.266  0.00  0.00    +0.000 HD
ENDBRANCH  13  16
ENDBRANCH   9  10
BRANCH   9  18
ATOM     18  O   UNL     1      -0.381  11.037  23.087  0.00  0.00    +0.000 OA
ATOM     19  H   UNL     1       0.308  11.719  23.027  0.00  0.00    +0.000 HD
ENDBRANCH   9  18
ENDBRANCH   8   9
ENDBRANCH   1   8
BRANCH   4  20
ATOM     20  O   UNL     1       1.959  10.615  17.582  0.00  0.00    +0.000 OA
ATOM     21  H   UNL     1       2.345  10.315  16.742  0.00  0.00    +0.000 HD
ENDBRANCH   4  20
BRANCH   4  22
ATOM     22  C   UNL     1       1.747   8.208  17.521  0.00  0.00    +0.000 C 
BRANCH  22  23
ATOM     23  C   UNL     1       2.752   7.465  18.398  0.00  0.00    +0.000 C 
BRANCH  23  24
ATOM     24  C   UNL     1       3.114   6.105  17.813  0.00  0.00    +0.000 C 
BRANCH  24  25
ATOM     25  C   UNL     1       2.390   5.040  18.591  0.00  0.00    +0.000 A 
ATOM     26  C   UNL     1       1.900   3.912  17.925  0.00  0.00    +0.000 A 
ATOM     27  C   UNL     1       1.106   2.989  18.594  0.00  0.00    +0.000 A 
ATOM     28  C   UNL     1       0.805   3.177  19.941  0.00  0.00    +0.000 A 
ATOM     29  C   UNL     1       1.299   4.292  20.620  0.00  0.00    +0.000 A 
ATOM     30  C   UNL     1       2.086   5.224  19.946  0.00  0.00    +0.000 A 
ENDBRANCH  24  25
ENDBRANCH  23  24
ENDBRANCH  22  23
ENDBRANCH   4  22
TORSDOF 10
ENDMDL
MODEL 6
REMARK VINA RESULT:      -7.3      5.672      9.564
REMARK  Name = 
REMARK  11 active torsions:
REMARK  status: ('A' for Active; 'I' for Inactive)
REMARK    1  A    between atoms: C_1  and  C_2
REMARK    2  A    between atoms: C_2  and  C_3
REMARK    3  A    between atoms: C_2  and  N_12
REMARK    4  A    between atoms: C_3  and  O_4
REMARK    5  A    between atoms: C_3  and  C_5
REMARK    6  A    between atoms: C_8  and  O_9
REMARK    7  A    between atoms: C_15  and  O_16
REMARK    8  A    between atoms: C_15  and  C_17
REMARK    9  A    between atoms: C_17  and  C_18
REMARK   10  A    between atoms: C_18  and  C_19
REMARK   11  A    between atoms: C_19  and  C_20
REMARK                            x       y       z     vdW  Elec       q    Type
REMARK                         _______ _______ _______ _____ _____    ______ ____
ROOT
ATOM      1  N   UNL     1      -0.437  10.877  20.142  0.00  0.00    +0.000 NA
ATOM      2  C   UNL     1       1.015  10.904  20.361  0.00  0.00    +0.000 C 
ATOM      3  C   UNL     1       1.705   9.717  19.692  0.00  0.00    +0.000 C 
ATOM      4  C   UNL     1       1.371   9.657  18.197  0.00  0.00    +0.000 C 
ATOM      5  C   UNL     1      -0.143   9.709  17.993  0.00  0.00    +0.000 C 
ATOM      6  C   UNL     1      -0.762  10.888  18.710  0.00  0.00    +0.000 C 
ENDROOT
BRANCH   1   8
ATOM      7  C   UNL     1      -2.365  12.519  20.126  0.00  0.00    +0.000 C 
ATOM      8  C   UNL     1      -1.139  11.961  20.878  0.00  0.00    +0.000 C 
BRANCH   8   9
ATOM      9  C   UNL     1      -1.527  11.519  22.336  0.00  0.00    +0.000 C 
BRANCH   9  10
ATOM     10  C   UNL     1      -2.159  12.622  23.151  0.00  0.00    +0.000 A 
ATOM     11  C   UNL     1      -3.471  12.470  23.618  0.00  0.00    +0.000 A 
ATOM     12  C   UNL     1      -4.069  13.480  24.371  0.00  0.00    +0.000 A 
ATOM     13  C   UNL     1      -3.352  14.641  24.648  0.00  0.00    +0.000 A 
ATOM     14  C   UNL     1      -2.054  14.810  24.186  0.00  0.00    +0.000 A 
ATOM     15  C   UNL     1      -1.454  13.804  23.436  0.00  0.00    +0.000 A 
BRANCH  13  16
ATOM     16  O   UNL     1      -3.895  15.657  25.381  0.00  0.00    +0.000 OA
ATOM     17  H   UNL     1      -3.852  16.466  24.848  0.00  0.00    +0.000 HD
ENDBRANCH  13  16
ENDBRANCH   9  10
BRANCH   9  18
ATOM     18  O   UNL     1      -0.398  11.042  23.077  0.00  0.00    +0.000 OA
ATOM     19  H   UNL     1       0.346  11.631  22.872  0.00  0.00    +0.000 HD
ENDBRANCH   9  18
ENDBRANCH   8   9
ENDBRANCH   1   8
BRANCH   4  20
ATOM     20  O   UNL     1       1.949  10.798  17.547  0.00  0.00    +0.000 OA
ATOM     21  H   UNL     1       1.835  10.692  16.587  0.00  0.00    +0.000 HD
ENDBRANCH   4  20
BRANCH   4  22
ATOM     22  C   UNL     1       1.950   8.381  17.568  0.00  0.00    +0.000 C 
BRANCH  22  23
ATOM     23  C   UNL     1       2.511   7.431  18.623  0.00  0.00    +0.000 C 
BRANCH  23  24
ATOM     24  C   UNL     1       2.930   6.097  18.016  0.00  0.00    +0.000 C 
BRANCH  24  25
ATOM     25  C   UNL     1       2.132   5.002  18.668  0.00  0.00    +0.000 A 
ATOM     26  C   UNL     1       1.904   5.041  20.048  0.00  0.00    +0.000 A 
ATOM     27  C   UNL     1       1.295   3.971  20.691  0.00  0.00    +0.000 A 
ATOM     28  C   UNL     1       0.893   2.856  19.960  0.00  0.00    +0.000 A 
ATOM     29  C   UNL     1       1.102   2.811  18.580  0.00  0.00    +0.000 A 
ATOM     30  C   UNL     1       1.724   3.879  17.936  0.00  0.00    +0.000 A 
ENDBRANCH  24  25
ENDBRANCH  23  24
ENDBRANCH  22  23
ENDBRANCH   4  22
TORSDOF 10
ENDMDL
MODEL 7
REMARK VINA RESULT:      -7.3      1.089      1.678
REMARK  Name = 
REMARK  11 active torsions:
REMARK  status: ('A' for Active; 'I' for Inactive)
REMARK    1  A    between atoms: C_1  and  C_2
REMARK    2  A    between atoms: C_2  and  C_3
REMARK    3  A    between atoms: C_2  and  N_12
REMARK    4  A    between atoms: C_3  and  O_4
REMARK    5  A    between atoms: C_3  and  C_5
REMARK    6  A    between atoms: C_8  and  O_9
REMARK    7  A    between atoms: C_15  and  O_16
REMARK    8  A    between atoms: C_15  and  C_17
REMARK    9  A    between atoms: C_17  and  C_18
REMARK   10  A    between atoms: C_18  and  C_19
REMARK   11  A    between atoms: C_19  and  C_20
REMARK                            x       y       z     vdW  Elec       q    Type
REMARK                         _______ _______ _______ _____ _____    ______ ____
ROOT
ATOM      1  N   UNL     1       4.853   5.016  17.720  0.00  0.00    +0.000 NA
ATOM      2  C   UNL     1       4.923   6.206  16.863  0.00  0.00    +0.000 C 
ATOM      3  C   UNL     1       5.894   7.243  17.422  0.00  0.00    +0.000 C 
ATOM      4  C   UNL     1       7.284   6.635  17.641  0.00  0.00    +0.000 C 
ATOM      5  C   UNL     1       7.174   5.355  18.470  0.00  0.00    +0.000 C 
ATOM      6  C   UNL     1       6.172   4.391  17.876  0.00  0.00    +0.000 C 
ENDROOT
BRANCH   1   8
ATOM      7  C   UNL     1       3.917   2.674  17.959  0.00  0.00    +0.000 C 
ATOM      8  C   UNL     1       3.831   4.043  17.252  0.00  0.00    +0.000 C 
BRANCH   8   9
ATOM      9  C   UNL     1       2.377   4.634  17.347  0.00  0.00    +0.000 C 
BRANCH   9  10
ATOM     10  C   UNL     1       2.185   5.576  18.511  0.00  0.00    +0.000 A 
ATOM     11  C   UNL     1       2.247   6.959  18.296  0.00  0.00    +0.000 A 
ATOM     12  C   UNL     1       2.072   7.843  19.362  0.00  0.00    +0.000 A 
ATOM     13  C   UNL     1       1.842   7.337  20.638  0.00  0.00    +0.000 A 
ATOM     14  C   UNL     1       1.785   5.969  20.868  0.00  0.00    +0.000 A 
ATOM     15  C   UNL     1       1.957   5.086  19.808  0.00  0.00    +0.000 A 
BRANCH  13  16
ATOM     16  O   UNL     1       1.666   8.162  21.711  0.00  0.00    +0.000 OA
ATOM     17  H   UNL     1       2.154   8.983  21.542  0.00  0.00    +0.000 HD
ENDBRANCH  13  16
ENDBRANCH   9  10
BRANCH   9  18
ATOM     18  O   UNL     1       1.382   3.611  17.466  0.00  0.00    +0.000 OA
ATOM     19  H   UNL     1       1.242   3.246  16.577  0.00  0.00    +0.000 HD
ENDBRANCH   9  18
ENDBRANCH   8   9
ENDBRANCH   1   8
BRANCH   4  20
ATOM     20  O   UNL     1       7.847   6.294  16.366  0.00  0.00    +0.000 OA
ATOM     21  H   UNL     1       7.414   5.485  16.048  0.00  0.00    +0.000 HD
ENDBRANCH   4  20
BRANCH   4  22
ATOM     22  C   UNL     1       8.208   7.644  18.338  0.00  0.00    +0.000 C 
BRANCH  22  23
ATOM     23  C   UNL     1       8.106   9.034  17.714  0.00  0.00    +0.000 C 
BRANCH  23  24
ATOM     24  C   UNL     1       8.339  10.133  18.745  0.00  0.00    +0.000 C 
BRANCH  24  25
ATOM     25  C   UNL     1       9.280  11.149  18.157  0.00  0.00    +0.000 A 
ATOM     26  C   UNL     1      10.654  10.890  18.143  0.00  0.00    +0.000 A 
ATOM     27  C   UNL     1      11.551  11.871  17.737  0.00  0.00    +0.000 A 
ATOM     28  C   UNL     1      11.082  13.117  17.329  0.00  0.00    +0.000 A 
ATOM     29  C   UNL     1       9.712  13.383  17.325  0.00  0.00    +0.000 A 
ATOM     30  C   UNL     1       8.813  12.403  17.743  0.00  0.00    +0.000 A 
ENDBRANCH  24  25
ENDBRANCH  23  24
ENDBRANCH  22  23
ENDBRANCH   4  22
TORSDOF 10
ENDMDL
MODEL 8
REMARK VINA RESULT:      -7.2      1.132      1.702
REMARK  Name = 
REMARK  11 active torsions:
REMARK  status: ('A' for Active; 'I' for Inactive)
REMARK    1  A    between atoms: C_1  and  C_2
REMARK    2  A    between atoms: C_2  and  C_3
REMARK    3  A    between atoms: C_2  and  N_12
REMARK    4  A    between atoms: C_3  and  O_4
REMARK    5  A    between atoms: C_3  and  C_5
REMARK    6  A    between atoms: C_8  and  O_9
REMARK    7  A    between atoms: C_15  and  O_16
REMARK    8  A    between atoms: C_15  and  C_17
REMARK    9  A    between atoms: C_17  and  C_18
REMARK   10  A    between atoms: C_18  and  C_19
REMARK   11  A    between atoms: C_19  and  C_20
REMARK                            x       y       z     vdW  Elec       q    Type
REMARK                         _______ _______ _______ _____ _____    ______ ____
ROOT
ATOM      1  N   UNL     1       5.068   3.956  17.714  0.00  0.00    +0.000 NA
ATOM      2  C   UNL     1       5.343   4.810  18.877  0.00  0.00    +0.000 C 
ATOM      3  C   UNL     1       6.599   5.653  18.669  0.00  0.00    +0.000 C 
ATOM      4  C   UNL     1       6.500   6.482  17.384  0.00  0.00    +0.000 C 
ATOM      5  C   UNL     1       6.137   5.581  16.203  0.00  0.00    +0.000 C 
ATOM      6  C   UNL     1       4.905   4.753  16.493  0.00  0.00    +0.000 C 
ENDROOT
BRANCH   1   8
ATOM      7  C   UNL     1       3.935   2.364  19.325  0.00  0.00    +0.000 C 
ATOM      8  C   UNL     1       3.914   3.047  17.942  0.00  0.00    +0.000 C 
BRANCH   8   9
ATOM      9  C   UNL     1       2.542   3.774  17.694  0.00  0.00    +0.000 C 
BRANCH   9  10
ATOM     10  C   UNL     1       2.275   4.901  18.663  0.00  0.00    +0.000 A 
ATOM     11  C   UNL     1       1.853   4.605  19.965  0.00  0.00    +0.000 A 
ATOM     12  C   UNL     1       1.601   5.636  20.872  0.00  0.00    +0.000 A 
ATOM     13  C   UNL     1       1.767   6.957  20.467  0.00  0.00    +0.000 A 
ATOM     14  C   UNL     1       2.177   7.266  19.177  0.00  0.00    +0.000 A 
ATOM     15  C   UNL     1       2.431   6.241  18.272  0.00  0.00    +0.000 A 
BRANCH  13  16
ATOM     16  O   UNL     1       1.532   7.999  21.317  0.00  0.00    +0.000 OA
ATOM     17  H   UNL     1       2.326   8.557  21.334  0.00  0.00    +0.000 HD
ENDBRANCH  13  16
ENDBRANCH   9  10
BRANCH   9  18
ATOM     18  O   UNL     1       1.430   2.876  17.777  0.00  0.00    +0.000 OA
ATOM     19  H   UNL     1       0.709   3.266  17.256  0.00  0.00    +0.000 HD
ENDBRANCH   9  18
ENDBRANCH   8   9
ENDBRANCH   1   8
BRANCH   4  20
ATOM     20  O   UNL     1       5.458   7.456  17.539  0.00  0.00    +0.000 OA
ATOM     21  H   UNL     1       4.826   7.345  16.810  0.00  0.00    +0.000 HD
ENDBRANCH   4  20
BRANCH   4  22
ATOM     22  C   UNL     1       7.824   7.210  17.111  0.00  0.00    +0.000 C 
BRANCH  22  23
ATOM     23  C   UNL     1       7.802   8.644  17.635  0.00  0.00    +0.000 C 
BRANCH  23  24
ATOM     24  C   UNL     1       8.718   8.818  18.841  0.00  0.00    +0.000 C 
BRANCH  24  25
ATOM     25  C   UNL     1       9.117  10.265  18.935  0.00  0.00    +0.000 A 
ATOM     26  C   UNL     1       8.801  11.138  17.889  0.00  0.00    +0.000 A 
ATOM     27  C   UNL     1       9.283  12.441  17.888  0.00  0.00    +0.000 A 
ATOM     28  C   UNL     1      10.076  12.890  18.942  0.00  0.00    +0.000 A 
ATOM     29  C   UNL     1      10.388  12.033  19.999  0.00  0.00    +0.000 A 
ATOM     30  C   UNL     1       9.913  10.722  19.993  0.00  0.00    +0.000 A 
ENDBRANCH  24  25
ENDBRANCH  23  24
ENDBRANCH  22  23
ENDBRANCH   4  22
TORSDOF 10
ENDMDL
MODEL 9
REMARK VINA RESULT:      -7.2      1.615      2.185
REMARK  Name = 
REMARK  11 active torsions:
REMARK  status: ('A' for Active; 'I' for Inactive)
REMARK    1  A    between atoms: C_1  and  C_2
REMARK    2  A    between atoms: C_2  and  C_3
REMARK    3  A    between atoms: C_2  and  N_12
REMARK    4  A    between atoms: C_3  and  O_4
REMARK    5  A    between atoms: C_3  and  C_5
REMARK    6  A    between atoms: C_8  and  O_9
REMARK    7  A    between atoms: C_15  and  O_16
REMARK    8  A    between atoms: C_15  and  C_17
REMARK    9  A    between atoms: C_17  and  C_18
REMARK   10  A    between atoms: C_18  and  C_19
REMARK   11  A    between atoms: C_19  and  C_20
REMARK                            x       y       z     vdW  Elec       q    Type
REMARK                         _______ _______ _______ _____ _____    ______ ____
ROOT
ATOM      1  N   UNL     1       4.491   5.870  18.493  0.00  0.00    +0.000 NA
ATOM      2  C   UNL     1       4.847   6.624  17.284  0.00  0.00    +0.000 C 
ATOM      3  C   UNL     1       6.113   7.451  17.491  0.00  0.00    +0.000 C 
ATOM      4  C   UNL     1       7.277   6.569  17.957  0.00  0.00    +0.000 C 
ATOM      5  C   UNL     1       6.855   5.738  19.169  0.00  0.00    +0.000 C 
ATOM      6  C   UNL     1       5.578   4.973  18.902  0.00  0.00    +0.000 C 
ENDROOT
BRANCH   1   8
ATOM      7  C   UNL     1       3.365   3.618  18.222  0.00  0.00    +0.000 C 
ATOM      8  C   UNL     1       3.200   5.147  18.347  0.00  0.00    +0.000 C 
BRANCH   8   9
ATOM      9  C   UNL     1       2.194   5.512  19.498  0.00  0.00    +0.000 C 
BRANCH   9  10
ATOM     10  C   UNL     1       1.834   6.978  19.541  0.00  0.00    +0.000 A 
ATOM     11  C   UNL     1       1.439   7.556  20.754  0.00  0.00    +0.000 A 
ATOM     12  C   UNL     1       1.103   8.909  20.810  0.00  0.00    +0.000 A 
ATOM     13  C   UNL     1       1.156   9.674  19.649  0.00  0.00    +0.000 A 
ATOM     14  C   UNL     1       1.538   9.114  18.437  0.00  0.00    +0.000 A 
ATOM     15  C   UNL     1       1.876   7.766  18.379  0.00  0.00    +0.000 A 
BRANCH  13  16
ATOM     16  O   UNL     1       0.836  11.001  19.653  0.00  0.00    +0.000 OA
ATOM     17  H   UNL     1       1.476  11.466  19.091  0.00  0.00    +0.000 HD
ENDBRANCH  13  16
ENDBRANCH   9  10
BRANCH   9  18
ATOM     18  O   UNL     1       2.700   5.166  20.792  0.00  0.00    +0.000 OA
ATOM     19  H   UNL     1       3.664   5.277  20.760  0.00  0.00    +0.000 HD
ENDBRANCH   9  18
ENDBRANCH   8   9
ENDBRANCH   1   8
BRANCH   4  20
ATOM     20  O   UNL     1       7.629   5.668  16.897  0.00  0.00    +0.000 OA
ATOM     21  H   UNL     1       7.591   4.760  17.244  0.00  0.00    +0.000 HD
ENDBRANCH   4  20
BRANCH   4  22
ATOM     22  C   UNL     1       8.500   7.431  18.302  0.00  0.00    +0.000 C 
BRANCH  22  23
ATOM     23  C   UNL     1       8.244   8.913  18.040  0.00  0.00    +0.000 C 
BRANCH  23  24
ATOM     24  C   UNL     1       8.943   9.796  19.067  0.00  0.00    +0.000 C 
BRANCH  24  25
ATOM     25  C   UNL     1       9.511  10.996  18.359  0.00  0.00    +0.000 A 
ATOM     26  C   UNL     1      10.898  11.139  18.247  0.00  0.00    +0.000 A 
ATOM     27  C   UNL     1      11.447  12.304  17.726  0.00  0.00    +0.000 A 
ATOM     28  C   UNL     1      10.613  13.334  17.298  0.00  0.00    +0.000 A 
ATOM     29  C   UNL     1       9.227  13.198  17.391  0.00  0.00    +0.000 A 
ATOM     30  C   UNL     1       8.677  12.034  17.925  0.00  0.00    +0.000 A 
ENDBRANCH  24  25
ENDBRANCH  23  24
ENDBRANCH  22  23
ENDBRANCH   4  22
TORSDOF 10
ENDMDL
