MODEL 1
REMARK VINA RESULT:      -6.9      0.000      0.000
REMARK  Name = 
REMARK  3 active torsions:
REMARK  status: ('A' for Active; 'I' for Inactive)
REMARK    1  A    between atoms: C_2  and  O_3
REMARK    2  A    between atoms: C_2  and  C_4
REMARK    3  A    between atoms: C_7  and  C_8
REMARK                            x       y       z     vdW  Elec       q    Type
REMARK                         _______ _______ _______ _____ _____    ______ ____
ROOT
ATOM      1  C   UNL     1       2.354   3.416  19.878  0.00  0.00    +0.000 A 
ATOM      2  C   UNL     1       1.503   4.000  18.964  0.00  0.00    +0.000 A 
ATOM      3  C   UNL     1       2.301   4.406  17.870  0.00  0.00    +0.000 A 
ATOM      4  C   UNL     1       3.604   4.050  18.166  0.00  0.00    +0.000 A 
ATOM      5  O   UNL     1       3.639   3.446  19.395  0.00  0.00    +0.000 OA
ENDROOT
BRANCH   4   6
ATOM      6  C   UNL     1       4.880   4.207  17.467  0.00  0.00    +0.000 A 
ATOM      7  C   UNL     1       6.049   4.594  18.141  0.00  0.00    +0.000 A 
ATOM      8  C   UNL     1       7.254   4.771  17.452  0.00  0.00    +0.000 A 
ATOM      9  C   UNL     1       7.309   4.561  16.075  0.00  0.00    +0.000 A 
ATOM     10  C   UNL     1       6.160   4.165  15.398  0.00  0.00    +0.000 A 
ATOM     11 CL   UNL     1       6.220   3.904  13.698  0.00  0.00    +0.000 Cl
ATOM     12  C   UNL     1       4.957   3.985  16.082  0.00  0.00    +0.000 A 
ENDBRANCH   4   6
BRANCH   1  14
ATOM     13  O   UNL     1       2.943   2.439  21.965  0.00  0.00    +0.000 OA
ATOM     14  C   UNL     1       2.099   2.833  21.173  0.00  0.00    +0.000 C 
BRANCH  14  15
ATOM     15  O   UNL     1       0.766   2.762  21.427  0.00  0.00    +0.000 OA
ATOM     16  H   UNL     1       0.535   1.859  21.731  0.00  0.00    +0.000 HD
ENDBRANCH  14  15
ENDBRANCH   1  14
TORSDOF 3
ENDMDL
MODEL 2
REMARK VINA RESULT:      -6.9      3.553      6.291
REMARK  Name = 
REMARK  3 active torsions:
REMARK  status: ('A' for Active; 'I' for Inactive)
REMARK    1  A    between atoms: C_2  and  O_3
REMARK    2  A    between atoms: C_2  and  C_4
REMARK    3  A    between atoms: C_7  and  C_8
REMARK                            x       y       z     vdW  Elec       q    Type
REMARK                         _______ _______ _______ _____ _____    ______ ____
ROOT
ATOM      1  C   UNL     1       6.477   4.516  15.982  0.00  0.00    +0.000 A 
ATOM      2  C   UNL     1       7.203   4.745  17.131  0.00  0.00    +0.000 A 
ATOM      3  C   UNL     1       6.311   4.572  18.215  0.00  0.00    +0.000 A 
ATOM      4  C   UNL     1       5.080   4.245  17.677  0.00  0.00    +0.000 A 
ATOM      5  O   UNL     1       5.179   4.211  16.310  0.00  0.00    +0.000 OA
ENDROOT
BRANCH   4   6
ATOM      6  C   UNL     1       3.765   3.966  18.254  0.00  0.00    +0.000 A 
ATOM      7  C   UNL     1       2.587   4.083  17.499  0.00  0.00    +0.000 A 
ATOM      8  C   UNL     1       1.334   3.844  18.076  0.00  0.00    +0.000 A 
ATOM      9  C   UNL     1       1.240   3.480  19.418  0.00  0.00    +0.000 A 
ATOM     10  C   UNL     1       2.401   3.347  20.172  0.00  0.00    +0.000 A 
ATOM     11 CL   UNL     1       2.295   2.898  21.831  0.00  0.00    +0.000 Cl
ATOM     12  C   UNL     1       3.653   3.583  19.601  0.00  0.00    +0.000 A 
ENDBRANCH   4   6
BRANCH   1  14
ATOM     13  O   UNL     1       6.417   3.853  13.699  0.00  0.00    +0.000 OA
ATOM     14  C   UNL     1       6.863   4.558  14.593  0.00  0.00    +0.000 C 
BRANCH  14  15
ATOM     15  O   UNL     1       7.817   5.501  14.375  0.00  0.00    +0.000 OA
ATOM     16  H   UNL     1       8.696   5.074  14.312  0.00  0.00    +0.000 HD
ENDBRANCH  14  15
ENDBRANCH   1  14
TORSDOF 3
ENDMDL
MODEL 3
REMARK VINA RESULT:      -6.8      3.475      6.033
REMARK  Name = 
REMARK  3 active torsions:
REMARK  status: ('A' for Active; 'I' for Inactive)
REMARK    1  A    between atoms: C_2  and  O_3
REMARK    2  A    between atoms: C_2  and  C_4
REMARK    3  A    between atoms: C_7  and  C_8
REMARK                            x       y       z     vdW  Elec       q    Type
REMARK                         _______ _______ _______ _____ _____    ______ ____
ROOT
ATOM      1  C   UNL     1       6.032   5.397  16.818  0.00  0.00    +0.000 A 
ATOM      2  C   UNL     1       5.441   6.641  16.760  0.00  0.00    +0.000 A 
ATOM      3  C   UNL     1       4.169   6.513  17.364  0.00  0.00    +0.000 A 
ATOM      4  C   UNL     1       4.042   5.196  17.764  0.00  0.00    +0.000 A 
ATOM      5  O   UNL     1       5.180   4.511  17.430  0.00  0.00    +0.000 OA
ENDROOT
BRANCH   4   6
ATOM      6  C   UNL     1       2.977   4.435  18.419  0.00  0.00    +0.000 A 
ATOM      7  C   UNL     1       1.832   4.016  17.722  0.00  0.00    +0.000 A 
ATOM      8  C   UNL     1       0.808   3.318  18.371  0.00  0.00    +0.000 A 
ATOM      9  C   UNL     1       0.914   3.023  19.729  0.00  0.00    +0.000 A 
ATOM     10  C   UNL     1       2.050   3.420  20.427  0.00  0.00    +0.000 A 
ATOM     11 CL   UNL     1       2.190   3.061  22.105  0.00  0.00    +0.000 Cl
ATOM     12  C   UNL     1       3.075   4.116  19.783  0.00  0.00    +0.000 A 
ENDBRANCH   4   6
BRANCH   1  14
ATOM     13  O   UNL     1       8.099   4.231  16.976  0.00  0.00    +0.000 OA
ATOM     14  C   UNL     1       7.318   4.936  16.353  0.00  0.00    +0.000 C 
BRANCH  14  15
ATOM     15  O   UNL     1       7.579   5.389  15.100  0.00  0.00    +0.000 OA
ATOM     16  H   UNL     1       6.924   5.021  14.472  0.00  0.00    +0.000 HD
ENDBRANCH  14  15
ENDBRANCH   1  14
TORSDOF 3
ENDMDL
MODEL 4
REMARK VINA RESULT:      -6.8      1.303      1.382
REMARK  Name = 
REMARK  3 active torsions:
REMARK  status: ('A' for Active; 'I' for Inactive)
REMARK    1  A    between atoms: C_2  and  O_3
REMARK    2  A    between atoms: C_2  and  C_4
REMARK    3  A    between atoms: C_7  and  C_8
REMARK                            x       y       z     vdW  Elec       q    Type
REMARK                         _______ _______ _______ _____ _____    ______ ____
ROOT
ATOM      1  C   UNL     1       2.155   4.228  20.474  0.00  0.00    +0.000 A 
ATOM      2  C   UNL     1       1.977   5.595  20.435  0.00  0.00    +0.000 A 
ATOM      3  C   UNL     1       3.053   6.122  19.683  0.00  0.00    +0.000 A 
ATOM      4  C   UNL     1       3.839   5.051  19.297  0.00  0.00    +0.000 A 
ATOM      5  O   UNL     1       3.292   3.892  19.781  0.00  0.00    +0.000 OA
ENDROOT
BRANCH   4   6
ATOM      6  C   UNL     1       5.081   4.931  18.534  0.00  0.00    +0.000 A 
ATOM      7  C   UNL     1       6.323   5.289  19.083  0.00  0.00    +0.000 A 
ATOM      8  C   UNL     1       7.498   5.198  18.328  0.00  0.00    +0.000 A 
ATOM      9  C   UNL     1       7.450   4.744  17.011  0.00  0.00    +0.000 A 
ATOM     10  C   UNL     1       6.227   4.374  16.461  0.00  0.00    +0.000 A 
ATOM     11 CL   UNL     1       6.158   3.813  14.835  0.00  0.00    +0.000 Cl
ATOM     12  C   UNL     1       5.053   4.461  17.211  0.00  0.00    +0.000 A 
ENDBRANCH   4   6
BRANCH   1  14
ATOM     13  O   UNL     1       1.602   2.673  22.186  0.00  0.00    +0.000 OA
ATOM     14  C   UNL     1       1.375   3.189  21.101  0.00  0.00    +0.000 C 
BRANCH  14  15
ATOM     15  O   UNL     1       0.322   2.826  20.324  0.00  0.00    +0.000 OA
ATOM     16  H   UNL     1      -0.425   3.443  20.471  0.00  0.00    +0.000 HD
ENDBRANCH  14  15
ENDBRANCH   1  14
TORSDOF 3
ENDMDL
MODEL 5
REMARK VINA RESULT:      -6.8      3.334      5.844
REMARK  Name = 
REMARK  3 active torsions:
REMARK  status: ('A' for Active; 'I' for Inactive)
REMARK    1  A    between atoms: C_2  and  O_3
REMARK    2  A    between atoms: C_2  and  C_4
REMARK    3  A    between atoms: C_7  and  C_8
REMARK                            x       y       z     vdW  Elec       q    Type
REMARK                         _______ _______ _______ _____ _____    ______ ____
ROOT
ATOM      1  C   UNL     1       5.975   5.589  16.559  0.00  0.00    +0.000 A 
ATOM      2  C   UNL     1       5.460   6.852  16.362  0.00  0.00    +0.000 A 
ATOM      3  C   UNL     1       4.273   6.930  17.127  0.00  0.00    +0.000 A 
ATOM      4  C   UNL     1       4.118   5.710  17.758  0.00  0.00    +0.000 A 
ATOM      5  O   UNL     1       5.157   4.887  17.411  0.00  0.00    +0.000 OA
ENDROOT
BRANCH   4   6
ATOM      6  C   UNL     1       3.104   5.156  18.655  0.00  0.00    +0.000 A 
ATOM      7  C   UNL     1       2.849   5.714  19.917  0.00  0.00    +0.000 A 
ATOM      8  C   UNL     1       1.898   5.152  20.776  0.00  0.00    +0.000 A 
ATOM      9  C   UNL     1       1.183   4.022  20.384  0.00  0.00    +0.000 A 
ATOM     10  C   UNL     1       1.416   3.467  19.130  0.00  0.00    +0.000 A 
ATOM     11 CL   UNL     1       0.538   2.072  18.637  0.00  0.00    +0.000 Cl
ATOM     12  C   UNL     1       2.363   4.026  18.269  0.00  0.00    +0.000 A 
ENDBRANCH   4   6
BRANCH   1  14
ATOM     13  O   UNL     1       7.606   5.095  14.901  0.00  0.00    +0.000 OA
ATOM     14  C   UNL     1       7.156   4.952  16.028  0.00  0.00    +0.000 C 
BRANCH  14  15
ATOM     15  O   UNL     1       7.735   4.142  16.951  0.00  0.00    +0.000 OA
ATOM     16  H   UNL     1       7.906   3.261  16.557  0.00  0.00    +0.000 HD
ENDBRANCH  14  15
ENDBRANCH   1  14
TORSDOF 3
ENDMDL
MODEL 6
REMARK VINA RESULT:      -6.8      1.270      1.675
REMARK  Name = 
REMARK  3 active torsions:
REMARK  status: ('A' for Active; 'I' for Inactive)
REMARK    1  A    between atoms: C_2  and  O_3
REMARK    2  A    between atoms: C_2  and  C_4
REMARK    3  A    between atoms: C_7  and  C_8
REMARK                            x       y       z     vdW  Elec       q    Type
REMARK                         _______ _______ _______ _____ _____    ______ ____
ROOT
ATOM      1  C   UNL     1       2.053   3.082  20.170  0.00  0.00    +0.000 A 
ATOM      2  C   UNL     1       0.964   3.088  19.325  0.00  0.00    +0.000 A 
ATOM      3  C   UNL     1       1.382   3.723  18.131  0.00  0.00    +0.000 A 
ATOM      4  C   UNL     1       2.708   4.074  18.304  0.00  0.00    +0.000 A 
ATOM      5  O   UNL     1       3.120   3.684  19.551  0.00  0.00    +0.000 OA
ENDROOT
BRANCH   4   6
ATOM      6  C   UNL     1       3.689   4.762  17.465  0.00  0.00    +0.000 A 
ATOM      7  C   UNL     1       3.907   6.145  17.564  0.00  0.00    +0.000 A 
ATOM      8  C   UNL     1       4.826   6.793  16.731  0.00  0.00    +0.000 A 
ATOM      9  C   UNL     1       5.547   6.065  15.786  0.00  0.00    +0.000 A 
ATOM     10  C   UNL     1       5.350   4.692  15.688  0.00  0.00    +0.000 A 
ATOM     11 CL   UNL     1       6.236   3.785  14.523  0.00  0.00    +0.000 Cl
ATOM     12  C   UNL     1       4.436   4.042  16.517  0.00  0.00    +0.000 A 
ENDBRANCH   4   6
BRANCH   1  14
ATOM     13  O   UNL     1       1.333   2.513  22.364  0.00  0.00    +0.000 OA
ATOM     14  C   UNL     1       2.208   2.576  21.512  0.00  0.00    +0.000 C 
BRANCH  14  15
ATOM     15  O   UNL     1       3.482   2.165  21.740  0.00  0.00    +0.000 OA
ATOM     16  H   UNL     1       3.478   1.390  22.339  0.00  0.00    +0.000 HD
ENDBRANCH  14  15
ENDBRANCH   1  14
TORSDOF 3
ENDMDL
MODEL 7
REMARK VINA RESULT:      -6.8      1.539      1.933
REMARK  Name = 
REMARK  3 active torsions:
REMARK  status: ('A' for Active; 'I' for Inactive)
REMARK    1  A    between atoms: C_2  and  O_3
REMARK    2  A    between atoms: C_2  and  C_4
REMARK    3  A    between atoms: C_7  and  C_8
REMARK                            x       y       z     vdW  Elec       q    Type
REMARK                         _______ _______ _______ _____ _____    ______ ____
ROOT
ATOM      1  C   UNL     1       2.264   3.471  19.852  0.00  0.00    +0.000 A 
ATOM      2  C   UNL     1       1.332   3.891  18.927  0.00  0.00    +0.000 A 
ATOM      3  C   UNL     1       2.057   4.406  17.827  0.00  0.00    +0.000 A 
ATOM      4  C   UNL     1       3.399   4.276  18.132  0.00  0.00    +0.000 A 
ATOM      5  O   UNL     1       3.528   3.705  19.371  0.00  0.00    +0.000 OA
ENDROOT
BRANCH   4   6
ATOM      6  C   UNL     1       4.634   4.632  17.433  0.00  0.00    +0.000 A 
ATOM      7  C   UNL     1       4.996   4.029  16.218  0.00  0.00    +0.000 A 
ATOM      8  C   UNL     1       6.197   4.357  15.579  0.00  0.00    +0.000 A 
ATOM      9  C   UNL     1       7.056   5.297  16.145  0.00  0.00    +0.000 A 
ATOM     10  C   UNL     1       6.702   5.911  17.342  0.00  0.00    +0.000 A 
ATOM     11 CL   UNL     1       7.758   7.073  18.048  0.00  0.00    +0.000 Cl
ATOM     12  C   UNL     1       5.505   5.588  17.981  0.00  0.00    +0.000 A 
ENDBRANCH   4   6
BRANCH   1  14
ATOM     13  O   UNL     1       3.003   2.499  21.892  0.00  0.00    +0.000 OA
ATOM     14  C   UNL     1       2.103   2.874  21.155  0.00  0.00    +0.000 C 
BRANCH  14  15
ATOM     15  O   UNL     1       0.791   2.765  21.489  0.00  0.00    +0.000 OA
ATOM     16  H   UNL     1       0.246   3.290  20.866  0.00  0.00    +0.000 HD
ENDBRANCH  14  15
ENDBRANCH   1  14
TORSDOF 3
ENDMDL
MODEL 8
REMARK VINA RESULT:      -6.7      3.570      6.127
REMARK  Name = 
REMARK  3 active torsions:
REMARK  status: ('A' for Active; 'I' for Inactive)
REMARK    1  A    between atoms: C_2  and  O_3
REMARK    2  A    between atoms: C_2  and  C_4
REMARK    3  A    between atoms: C_7  and  C_8
REMARK                            x       y       z     vdW  Elec       q    Type
REMARK                         _______ _______ _______ _____ _____    ______ ____
ROOT
ATOM      1  C   UNL     1       5.675   5.287  15.985  0.00  0.00    +0.000 A 
ATOM      2  C   UNL     1       5.440   6.562  16.452  0.00  0.00    +0.000 A 
ATOM      3  C   UNL     1       4.376   6.464  17.379  0.00  0.00    +0.000 A 
ATOM      4  C   UNL     1       4.011   5.132  17.436  0.00  0.00    +0.000 A 
ATOM      5  O   UNL     1       4.804   4.410  16.583  0.00  0.00    +0.000 OA
ENDROOT
BRANCH   4   6
ATOM      6  C   UNL     1       2.985   4.394  18.173  0.00  0.00    +0.000 A 
ATOM      7  C   UNL     1       1.780   4.001  17.570  0.00  0.00    +0.000 A 
ATOM      8  C   UNL     1       0.796   3.324  18.299  0.00  0.00    +0.000 A 
ATOM      9  C   UNL     1       1.003   3.027  19.645  0.00  0.00    +0.000 A 
ATOM     10  C   UNL     1       2.198   3.400  20.251  0.00  0.00    +0.000 A 
ATOM     11 CL   UNL     1       2.462   3.039  21.913  0.00  0.00    +0.000 Cl
ATOM     12  C   UNL     1       3.183   4.074  19.527  0.00  0.00    +0.000 A 
ENDBRANCH   4   6
BRANCH   1  14
ATOM     13  O   UNL     1       7.608   5.391  14.603  0.00  0.00    +0.000 OA
ATOM     14  C   UNL     1       6.631   4.790  15.025  0.00  0.00    +0.000 C 
BRANCH  14  15
ATOM     15  O   UNL     1       6.314   3.532  14.621  0.00  0.00    +0.000 OA
ATOM     16  H   UNL     1       6.528   2.893  15.332  0.00  0.00    +0.000 HD
ENDBRANCH  14  15
ENDBRANCH   1  14
TORSDOF 3
ENDMDL
MODEL 9
REMARK VINA RESULT:      -6.7      3.607      6.238
REMARK  Name = 
REMARK  3 active torsions:
REMARK  status: ('A' for Active; 'I' for Inactive)
REMARK    1  A    between atoms: C_2  and  O_3
REMARK    2  A    between atoms: C_2  and  C_4
REMARK    3  A    between atoms: C_7  and  C_8
REMARK                            x       y       z     vdW  Elec       q    Type
REMARK                         _______ _______ _______ _____ _____    ______ ____
ROOT
ATOM      1  C   UNL     1       6.563   4.518  15.885  0.00  0.00    +0.000 A 
ATOM      2  C   UNL     1       7.268   4.752  17.046  0.00  0.00    +0.000 A 
ATOM      3  C   UNL     1       6.363   4.555  18.115  0.00  0.00    +0.000 A 
ATOM      4  C   UNL     1       5.147   4.209  17.556  0.00  0.00    +0.000 A 
ATOM      5  O   UNL     1       5.266   4.187  16.192  0.00  0.00    +0.000 OA
ENDROOT
BRANCH   4   6
ATOM      6  C   UNL     1       3.829   3.902  18.112  0.00  0.00    +0.000 A 
ATOM      7  C   UNL     1       3.082   2.797  17.676  0.00  0.00    +0.000 A 
ATOM      8  C   UNL     1       1.808   2.536  18.194  0.00  0.00    +0.000 A 
ATOM      9  C   UNL     1       1.262   3.377  19.162  0.00  0.00    +0.000 A 
ATOM     10  C   UNL     1       1.998   4.468  19.613  0.00  0.00    +0.000 A 
ATOM     11 CL   UNL     1       1.331   5.512  20.808  0.00  0.00    +0.000 Cl
ATOM     12  C   UNL     1       3.269   4.730  19.099  0.00  0.00    +0.000 A 
ENDBRANCH   4   6
BRANCH   1  14
ATOM     13  O   UNL     1       7.701   5.419  14.000  0.00  0.00    +0.000 OA
ATOM     14  C   UNL     1       6.969   4.577  14.502  0.00  0.00    +0.000 C 
BRANCH  14  15
ATOM     15  O   UNL     1       6.427   3.558  13.785  0.00  0.00    +0.000 OA
ATOM     16  H   UNL     1       5.632   3.217  14.245  0.00  0.00    +0.000 HD
ENDBRANCH  14  15
ENDBRANCH   1  14
TORSDOF 3
ENDMDL
