MODEL 1
REMARK VINA RESULT:      -8.0      0.000      0.000
REMARK  Name = 
REMARK  4 active torsions:
REMARK  status: ('A' for Active; 'I' for Inactive)
REMARK    1  A    between atoms: C_4  and  C_5
REMARK    2  A    between atoms: C_9  and  O_10
REMARK    3  A    between atoms: O_10  and  C_11
REMARK    4  A    between atoms: C_11  and  C_12
REMARK                            x       y       z     vdW  Elec       q    Type
REMARK                         _______ _______ _______ _____ _____    ______ ____
ROOT
ATOM      1  C   UNL     1       1.955   6.014  20.217  0.00  0.00    +0.000 A 
ATOM      2  C   UNL     1       1.187   4.867  20.449  0.00  0.00    +0.000 A 
ATOM      3  C   UNL     1       1.274   3.776  19.586  0.00  0.00    +0.000 A 
ATOM      4  C   UNL     1       2.113   3.835  18.472  0.00  0.00    +0.000 A 
ATOM      5  C   UNL     1       2.840   4.995  18.199  0.00  0.00    +0.000 A 
ATOM      6  C   UNL     1       2.789   6.070  19.093  0.00  0.00    +0.000 A 
ENDROOT
BRANCH   1  10
ATOM      7  O   UNL     1       1.622   9.589  22.820  0.00  0.00    +0.000 OA
ATOM      8  C   UNL     1       1.177   9.485  21.694  0.00  0.00    +0.000 C 
ATOM      9  C   UNL     1       1.265   8.309  20.779  0.00  0.00    +0.000 C 
ATOM     10  C   UNL     1       1.851   7.156  21.128  0.00  0.00    +0.000 C 
ATOM     11  N   UNL     1       0.697   8.624  19.568  0.00  0.00    +0.000 NA
ATOM     12  C   UNL     1       0.314   9.853  19.718  0.00  0.00    +0.000 C 
ATOM     13  S   UNL     1      -0.462  10.730  18.450  0.00  0.00    +0.000 S 
ATOM     14  C   UNL     1      -0.138  12.426  18.970  0.00  0.00    +0.000 C 
ATOM     15  C   UNL     1      -0.537  12.613  20.424  0.00  0.00    +0.000 C 
ATOM     16  C   UNL     1       0.348  11.788  21.346  0.00  0.00    +0.000 C 
ATOM     17  N   UNL     1       0.527  10.414  20.929  0.00  0.00    +0.000 N 
ENDBRANCH   1  10
BRANCH   5  18
ATOM     18  O   UNL     1       3.619   5.172  17.084  0.00  0.00    +0.000 OA
BRANCH  18  19
ATOM     19  C   UNL     1       4.868   4.476  17.118  0.00  0.00    +0.000 C 
BRANCH  19  20
ATOM     20  C   UNL     1       5.954   5.412  17.581  0.00  0.00    +0.000 A 
ATOM     21  C   UNL     1       6.805   5.062  18.640  0.00  0.00    +0.000 A 
ATOM     22  C   UNL     1       7.806   5.943  19.054  0.00  0.00    +0.000 A 
ATOM     23  C   UNL     1       7.952   7.169  18.413  0.00  0.00    +0.000 A 
ATOM     24  F   UNL     1       8.907   8.014  18.818  0.00  0.00    +0.000 F 
ATOM     25  C   UNL     1       7.118   7.531  17.362  0.00  0.00    +0.000 A 
ATOM     26  C   UNL     1       6.117   6.655  16.948  0.00  0.00    +0.000 A 
ENDBRANCH  19  20
ENDBRANCH  18  19
ENDBRANCH   5  18
TORSDOF 4
ENDMDL
MODEL 2
REMARK VINA RESULT:      -7.9      1.969      2.751
REMARK  Name = 
REMARK  4 active torsions:
REMARK  status: ('A' for Active; 'I' for Inactive)
REMARK    1  A    between atoms: C_4  and  C_5
REMARK    2  A    between atoms: C_9  and  O_10
REMARK    3  A    between atoms: O_10  and  C_11
REMARK    4  A    between atoms: C_11  and  C_12
REMARK                            x       y       z     vdW  Elec       q    Type
REMARK                         _______ _______ _______ _____ _____    ______ ____
ROOT
ATOM      1  C   UNL     1       1.783   7.706  20.170  0.00  0.00    +0.000 A 
ATOM      2  C   UNL     1       2.025   8.510  19.049  0.00  0.00    +0.000 A 
ATOM      3  C   UNL     1       2.501   7.944  17.868  0.00  0.00    +0.000 A 
ATOM      4  C   UNL     1       2.759   6.574  17.807  0.00  0.00    +0.000 A 
ATOM      5  C   UNL     1       2.576   5.773  18.935  0.00  0.00    +0.000 A 
ATOM      6  C   UNL     1       2.052   6.333  20.105  0.00  0.00    +0.000 A 
ENDROOT
BRANCH   1  10
ATOM      7  O   UNL     1       0.250   9.708  23.818  0.00  0.00    +0.000 OA
ATOM      8  C   UNL     1      -0.062   9.976  22.676  0.00  0.00    +0.000 C 
ATOM      9  C   UNL     1       0.425   9.337  21.418  0.00  0.00    +0.000 C 
ATOM     10  C   UNL     1       1.289   8.313  21.407  0.00  0.00    +0.000 C 
ATOM     11  N   UNL     1      -0.118   9.982  20.333  0.00  0.00    +0.000 NA
ATOM     12  C   UNL     1      -0.847  10.914  20.862  0.00  0.00    +0.000 C 
ATOM     13  S   UNL     1      -1.746  12.029  19.898  0.00  0.00    +0.000 S 
ATOM     14  C   UNL     1      -1.959  13.384  21.068  0.00  0.00    +0.000 C 
ATOM     15  C   UNL     1      -2.501  12.858  22.386  0.00  0.00    +0.000 C 
ATOM     16  C   UNL     1      -1.488  11.956  23.075  0.00  0.00    +0.000 C 
ATOM     17  N   UNL     1      -0.893  10.959  22.212  0.00  0.00    +0.000 N 
ENDBRANCH   1  10
BRANCH   5  18
ATOM     18  O   UNL     1       2.886   4.437  18.991  0.00  0.00    +0.000 OA
BRANCH  18  19
ATOM     19  C   UNL     1       4.239   4.160  19.364  0.00  0.00    +0.000 C 
BRANCH  19  20
ATOM     20  C   UNL     1       5.129   4.270  18.154  0.00  0.00    +0.000 A 
ATOM     21  C   UNL     1       4.730   3.751  16.914  0.00  0.00    +0.000 A 
ATOM     22  C   UNL     1       5.569   3.864  15.805  0.00  0.00    +0.000 A 
ATOM     23  C   UNL     1       6.804   4.492  15.937  0.00  0.00    +0.000 A 
ATOM     24  F   UNL     1       7.609   4.592  14.872  0.00  0.00    +0.000 F 
ATOM     25  C   UNL     1       7.214   5.014  17.157  0.00  0.00    +0.000 A 
ATOM     26  C   UNL     1       6.380   4.900  18.267  0.00  0.00    +0.000 A 
ENDBRANCH  19  20
ENDBRANCH  18  19
ENDBRANCH   5  18
TORSDOF 4
ENDMDL
MODEL 3
REMARK VINA RESULT:      -7.9      1.216      1.585
REMARK  Name = 
REMARK  4 active torsions:
REMARK  status: ('A' for Active; 'I' for Inactive)
REMARK    1  A    between atoms: C_4  and  C_5
REMARK    2  A    between atoms: C_9  and  O_10
REMARK    3  A    between atoms: O_10  and  C_11
REMARK    4  A    between atoms: C_11  and  C_12
REMARK                            x       y       z     vdW  Elec       q    Type
REMARK                         _______ _______ _______ _____ _____    ______ ____
ROOT
ATOM      1  C   UNL     1       1.836   5.062  20.438  0.00  0.00    +0.000 A 
ATOM      2  C   UNL     1       0.842   4.125  20.132  0.00  0.00    +0.000 A 
ATOM      3  C   UNL     1       1.162   2.969  19.421  0.00  0.00    +0.000 A 
ATOM      4  C   UNL     1       2.472   2.756  18.992  0.00  0.00    +0.000 A 
ATOM      5  C   UNL     1       3.459   3.711  19.243  0.00  0.00    +0.000 A 
ATOM      6  C   UNL     1       3.148   4.846  19.997  0.00  0.00    +0.000 A 
ENDROOT
BRANCH   1  10
ATOM      7  O   UNL     1       0.873   8.842  22.548  0.00  0.00    +0.000 OA
ATOM      8  C   UNL     1       1.089   8.728  21.358  0.00  0.00    +0.000 C 
ATOM      9  C   UNL     1       1.420   7.483  20.603  0.00  0.00    +0.000 C 
ATOM     10  C   UNL     1       1.487   6.276  21.179  0.00  0.00    +0.000 C 
ATOM     11  N   UNL     1       1.664   7.794  19.287  0.00  0.00    +0.000 NA
ATOM     12  C   UNL     1       1.511   9.081  19.241  0.00  0.00    +0.000 C 
ATOM     13  S   UNL     1       1.725   9.975  17.780  0.00  0.00    +0.000 S 
ATOM     14  C   UNL     1       2.047  11.622  18.442  0.00  0.00    +0.000 C 
ATOM     15  C   UNL     1       0.978  11.997  19.453  0.00  0.00    +0.000 C 
ATOM     16  C   UNL     1       1.047  11.105  20.683  0.00  0.00    +0.000 C 
ATOM     17  N   UNL     1       1.148   9.692  20.390  0.00  0.00    +0.000 N 
ENDBRANCH   1  10
BRANCH   5  18
ATOM     18  O   UNL     1       4.750   3.624  18.784  0.00  0.00    +0.000 OA
BRANCH  18  19
ATOM     19  C   UNL     1       4.998   4.346  17.575  0.00  0.00    +0.000 C 
BRANCH  19  20
ATOM     20  C   UNL     1       6.028   5.415  17.827  0.00  0.00    +0.000 A 
ATOM     21  C   UNL     1       6.043   6.597  17.071  0.00  0.00    +0.000 A 
ATOM     22  C   UNL     1       7.006   7.575  17.321  0.00  0.00    +0.000 A 
ATOM     23  C   UNL     1       7.951   7.371  18.321  0.00  0.00    +0.000 A 
ATOM     24  F   UNL     1       8.878   8.309  18.553  0.00  0.00    +0.000 F 
ATOM     25  C   UNL     1       7.950   6.208  19.081  0.00  0.00    +0.000 A 
ATOM     26  C   UNL     1       6.992   5.227  18.832  0.00  0.00    +0.000 A 
ENDBRANCH  19  20
ENDBRANCH  18  19
ENDBRANCH   5  18
TORSDOF 4
ENDMDL
MODEL 4
REMARK VINA RESULT:      -7.8      2.479      3.031
REMARK  Name = 
REMARK  4 active torsions:
REMARK  status: ('A' for Active; 'I' for Inactive)
REMARK    1  A    between atoms: C_4  and  C_5
REMARK    2  A    between atoms: C_9  and  O_10
REMARK    3  A    between atoms: O_10  and  C_11
REMARK    4  A    between atoms: C_11  and  C_12
REMARK                            x       y       z     vdW  Elec       q    Type
REMARK                         _______ _______ _______ _____ _____    ______ ____
ROOT
ATOM      1  C   UNL     1       2.418   6.222  19.669  0.00  0.00    +0.000 A 
ATOM      2  C   UNL     1       1.557   5.536  20.533  0.00  0.00    +0.000 A 
ATOM      3  C   UNL     1       1.843   4.227  20.918  0.00  0.00    +0.000 A 
ATOM      4  C   UNL     1       2.980   3.589  20.422  0.00  0.00    +0.000 A 
ATOM      5  C   UNL     1       3.815   4.243  19.515  0.00  0.00    +0.000 A 
ATOM      6  C   UNL     1       3.553   5.572  19.168  0.00  0.00    +0.000 A 
ENDROOT
BRANCH   1  10
ATOM      7  O   UNL     1       1.329  10.383  18.587  0.00  0.00    +0.000 OA
ATOM      8  C   UNL     1       1.165   9.865  19.674  0.00  0.00    +0.000 C 
ATOM      9  C   UNL     1       1.511   8.472  20.086  0.00  0.00    +0.000 C 
ATOM     10  C   UNL     1       2.104   7.594  19.266  0.00  0.00    +0.000 C 
ATOM     11  N   UNL     1       1.097   8.258  21.378  0.00  0.00    +0.000 NA
ATOM     12  C   UNL     1       0.552   9.385  21.718  0.00  0.00    +0.000 C 
ATOM     13  S   UNL     1      -0.147   9.629  23.277  0.00  0.00    +0.000 S 
ATOM     14  C   UNL     1      -1.261  11.004  22.931  0.00  0.00    +0.000 C 
ATOM     15  C   UNL     1      -0.514  12.115  22.213  0.00  0.00    +0.000 C 
ATOM     16  C   UNL     1      -0.066  11.670  20.829  0.00  0.00    +0.000 C 
ATOM     17  N   UNL     1       0.578  10.375  20.799  0.00  0.00    +0.000 N 
ENDBRANCH   1  10
BRANCH   5  18
ATOM     18  O   UNL     1       4.902   3.663  18.912  0.00  0.00    +0.000 OA
BRANCH  18  19
ATOM     19  C   UNL     1       5.925   4.584  18.523  0.00  0.00    +0.000 C 
BRANCH  19  20
ATOM     20  C   UNL     1       6.119   4.522  17.030  0.00  0.00    +0.000 A 
ATOM     21  C   UNL     1       5.187   3.874  16.207  0.00  0.00    +0.000 A 
ATOM     22  C   UNL     1       5.386   3.827  14.826  0.00  0.00    +0.000 A 
ATOM     23  C   UNL     1       6.513   4.425  14.273  0.00  0.00    +0.000 A 
ATOM     24  F   UNL     1       6.704   4.372  12.949  0.00  0.00    +0.000 F 
ATOM     25  C   UNL     1       7.446   5.073  15.073  0.00  0.00    +0.000 A 
ATOM     26  C   UNL     1       7.252   5.119  16.452  0.00  0.00    +0.000 A 
ENDBRANCH  19  20
ENDBRANCH  18  19
ENDBRANCH   5  18
TORSDOF 4
ENDMDL
MODEL 5
REMARK VINA RESULT:      -7.8      1.740      2.217
REMARK  Name = 
REMARK  4 active torsions:
REMARK  status: ('A' for Active; 'I' for Inactive)
REMARK    1  A    between atoms: C_4  and  C_5
REMARK    2  A    between atoms: C_9  and  O_10
REMARK    3  A    between atoms: O_10  and  C_11
REMARK    4  A    between atoms: C_11  and  C_12
REMARK                            x       y       z     vdW  Elec       q    Type
REMARK                         _______ _______ _______ _____ _____    ______ ____
ROOT
ATOM      1  C   UNL     1       2.372   6.141  19.653  0.00  0.00    +0.000 A 
ATOM      2  C   UNL     1       1.507   5.438  20.499  0.00  0.00    +0.000 A 
ATOM      3  C   UNL     1       1.812   4.136  20.891  0.00  0.00    +0.000 A 
ATOM      4  C   UNL     1       2.973   3.521  20.421  0.00  0.00    +0.000 A 
ATOM      5  C   UNL     1       3.814   4.192  19.532  0.00  0.00    +0.000 A 
ATOM      6  C   UNL     1       3.532   5.515  19.178  0.00  0.00    +0.000 A 
ENDROOT
BRANCH   1  10
ATOM      7  O   UNL     1       1.226  10.281  18.550  0.00  0.00    +0.000 OA
ATOM      8  C   UNL     1       1.100   9.777  19.648  0.00  0.00    +0.000 C 
ATOM      9  C   UNL     1       1.466   8.392  20.068  0.00  0.00    +0.000 C 
ATOM     10  C   UNL     1       2.038   7.507  19.242  0.00  0.00    +0.000 C 
ATOM     11  N   UNL     1       1.094   8.194  21.376  0.00  0.00    +0.000 NA
ATOM     12  C   UNL     1       0.554   9.322  21.717  0.00  0.00    +0.000 C 
ATOM     13  S   UNL     1      -0.096   9.585  23.294  0.00  0.00    +0.000 S 
ATOM     14  C   UNL     1      -1.228  10.949  22.965  0.00  0.00    +0.000 C 
ATOM     15  C   UNL     1      -0.511  12.054  22.209  0.00  0.00    +0.000 C 
ATOM     16  C   UNL     1      -0.104  11.592  20.818  0.00  0.00    +0.000 C 
ATOM     17  N   UNL     1       0.546  10.300  20.784  0.00  0.00    +0.000 N 
ENDBRANCH   1  10
BRANCH   5  18
ATOM     18  O   UNL     1       4.926   3.635  18.954  0.00  0.00    +0.000 OA
BRANCH  18  19
ATOM     19  C   UNL     1       5.276   4.194  17.684  0.00  0.00    +0.000 C 
BRANCH  19  20
ATOM     20  C   UNL     1       6.230   5.343  17.884  0.00  0.00    +0.000 A 
ATOM     21  C   UNL     1       6.168   6.483  17.070  0.00  0.00    +0.000 A 
ATOM     22  C   UNL     1       7.061   7.536  17.272  0.00  0.00    +0.000 A 
ATOM     23  C   UNL     1       8.013   7.448  18.282  0.00  0.00    +0.000 A 
ATOM     24  F   UNL     1       8.872   8.457  18.468  0.00  0.00    +0.000 F 
ATOM     25  C   UNL     1       8.087   6.327  19.100  0.00  0.00    +0.000 A 
ATOM     26  C   UNL     1       7.199   5.272  18.900  0.00  0.00    +0.000 A 
ENDBRANCH  19  20
ENDBRANCH  18  19
ENDBRANCH   5  18
TORSDOF 4
ENDMDL
MODEL 6
REMARK VINA RESULT:      -7.8      4.274      8.614
REMARK  Name = 
REMARK  4 active torsions:
REMARK  status: ('A' for Active; 'I' for Inactive)
REMARK    1  A    between atoms: C_4  and  C_5
REMARK    2  A    between atoms: C_9  and  O_10
REMARK    3  A    between atoms: O_10  and  C_11
REMARK    4  A    between atoms: C_11  and  C_12
REMARK                            x       y       z     vdW  Elec       q    Type
REMARK                         _______ _______ _______ _____ _____    ______ ____
ROOT
ATOM      1  C   UNL     1       1.719   8.556  19.333  0.00  0.00    +0.000 A 
ATOM      2  C   UNL     1       1.575   8.248  20.691  0.00  0.00    +0.000 A 
ATOM      3  C   UNL     1       0.684   8.970  21.484  0.00  0.00    +0.000 A 
ATOM      4  C   UNL     1      -0.050  10.018  20.929  0.00  0.00    +0.000 A 
ATOM      5  C   UNL     1       0.128  10.371  19.590  0.00  0.00    +0.000 A 
ATOM      6  C   UNL     1       0.986   9.615  18.784  0.00  0.00    +0.000 A 
ENDROOT
BRANCH   1  10
ATOM      7  O   UNL     1       4.552   6.100  16.963  0.00  0.00    +0.000 OA
ATOM      8  C   UNL     1       3.648   5.675  17.654  0.00  0.00    +0.000 C 
ATOM      9  C   UNL     1       2.672   6.457  18.470  0.00  0.00    +0.000 C 
ATOM     10  C   UNL     1       2.663   7.795  18.511  0.00  0.00    +0.000 C 
ATOM     11  N   UNL     1       1.856   5.595  19.162  0.00  0.00    +0.000 NA
ATOM     12  C   UNL     1       2.285   4.421  18.818  0.00  0.00    +0.000 C 
ATOM     13  S   UNL     1       1.581   2.972  19.438  0.00  0.00    +0.000 S 
ATOM     14  C   UNL     1       2.931   1.806  19.176  0.00  0.00    +0.000 C 
ATOM     15  C   UNL     1       3.430   1.896  17.744  0.00  0.00    +0.000 C 
ATOM     16  C   UNL     1       4.074   3.247  17.471  0.00  0.00    +0.000 C 
ATOM     17  N   UNL     1       3.299   4.381  17.925  0.00  0.00    +0.000 N 
ENDBRANCH   1  10
BRANCH   5  18
ATOM     18  O   UNL     1      -0.485  11.439  18.986  0.00  0.00    +0.000 OA
BRANCH  18  19
ATOM     19  C   UNL     1      -1.905  11.477  19.150  0.00  0.00    +0.000 C 
BRANCH  19  20
ATOM     20  C   UNL     1      -2.573  11.086  17.858  0.00  0.00    +0.000 A 
ATOM     21  C   UNL     1      -3.858  11.550  17.539  0.00  0.00    +0.000 A 
ATOM     22  C   UNL     1      -4.459  11.177  16.337  0.00  0.00    +0.000 A 
ATOM     23  C   UNL     1      -3.779  10.339  15.459  0.00  0.00    +0.000 A 
ATOM     24  F   UNL     1      -4.362   9.976  14.309  0.00  0.00    +0.000 F 
ATOM     25  C   UNL     1      -2.506   9.870  15.757  0.00  0.00    +0.000 A 
ATOM     26  C   UNL     1      -1.903  10.240  16.958  0.00  0.00    +0.000 A 
ENDBRANCH  19  20
ENDBRANCH  18  19
ENDBRANCH   5  18
TORSDOF 4
ENDMDL
MODEL 7
REMARK VINA RESULT:      -7.7      1.359      1.484
REMARK  Name = 
REMARK  4 active torsions:
REMARK  status: ('A' for Active; 'I' for Inactive)
REMARK    1  A    between atoms: C_4  and  C_5
REMARK    2  A    between atoms: C_9  and  O_10
REMARK    3  A    between atoms: O_10  and  C_11
REMARK    4  A    between atoms: C_11  and  C_12
REMARK                            x       y       z     vdW  Elec       q    Type
REMARK                         _______ _______ _______ _____ _____    ______ ____
ROOT
ATOM      1  C   UNL     1       2.286   5.100  19.930  0.00  0.00    +0.000 A 
ATOM      2  C   UNL     1       1.425   4.294  19.176  0.00  0.00    +0.000 A 
ATOM      3  C   UNL     1       1.937   3.270  18.381  0.00  0.00    +0.000 A 
ATOM      4  C   UNL     1       3.315   3.060  18.318  0.00  0.00    +0.000 A 
ATOM      5  C   UNL     1       4.187   3.894  19.022  0.00  0.00    +0.000 A 
ATOM      6  C   UNL     1       3.669   4.890  19.856  0.00  0.00    +0.000 A 
ENDROOT
BRANCH   1  10
ATOM      7  O   UNL     1       0.714   8.490  22.318  0.00  0.00    +0.000 OA
ATOM      8  C   UNL     1       1.043   8.536  21.150  0.00  0.00    +0.000 C 
ATOM      9  C   UNL     1       1.579   7.427  20.305  0.00  0.00    +0.000 C 
ATOM     10  C   UNL     1       1.737   6.177  20.756  0.00  0.00    +0.000 C 
ATOM     11  N   UNL     1       1.897   7.911  19.059  0.00  0.00    +0.000 NA
ATOM     12  C   UNL     1       1.600   9.171  19.132  0.00  0.00    +0.000 C 
ATOM     13  S   UNL     1       1.833  10.244  17.800  0.00  0.00    +0.000 S 
ATOM     14  C   UNL     1       1.904  11.829  18.658  0.00  0.00    +0.000 C 
ATOM     15  C   UNL     1       0.716  11.971  19.594  0.00  0.00    +0.000 C 
ATOM     16  C   UNL     1       0.784  10.957  20.725  0.00  0.00    +0.000 C 
ATOM     17  N   UNL     1       1.072   9.605  20.298  0.00  0.00    +0.000 N 
ENDBRANCH   1  10
BRANCH   5  18
ATOM     18  O   UNL     1       5.555   3.816  18.949  0.00  0.00    +0.000 OA
BRANCH  18  19
ATOM     19  C   UNL     1       6.106   4.240  17.700  0.00  0.00    +0.000 C 
BRANCH  19  20
ATOM     20  C   UNL     1       6.819   5.554  17.883  0.00  0.00    +0.000 A 
ATOM     21  C   UNL     1       7.747   5.735  18.919  0.00  0.00    +0.000 A 
ATOM     22  C   UNL     1       8.396   6.960  19.071  0.00  0.00    +0.000 A 
ATOM     23  C   UNL     1       8.117   8.001  18.192  0.00  0.00    +0.000 A 
ATOM     24  F   UNL     1       8.737   9.178  18.346  0.00  0.00    +0.000 F 
ATOM     25  C   UNL     1       7.202   7.840  17.159  0.00  0.00    +0.000 A 
ATOM     26  C   UNL     1       6.549   6.618  17.006  0.00  0.00    +0.000 A 
ENDBRANCH  19  20
ENDBRANCH  18  19
ENDBRANCH   5  18
TORSDOF 4
ENDMDL
MODEL 8
REMARK VINA RESULT:      -7.7      1.908      2.295
REMARK  Name = 
REMARK  4 active torsions:
REMARK  status: ('A' for Active; 'I' for Inactive)
REMARK    1  A    between atoms: C_4  and  C_5
REMARK    2  A    between atoms: C_9  and  O_10
REMARK    3  A    between atoms: O_10  and  C_11
REMARK    4  A    between atoms: C_11  and  C_12
REMARK                            x       y       z     vdW  Elec       q    Type
REMARK                         _______ _______ _______ _____ _____    ______ ____
ROOT
ATOM      1  C   UNL     1       2.779   5.852  18.427  0.00  0.00    +0.000 A 
ATOM      2  C   UNL     1       1.795   4.862  18.527  0.00  0.00    +0.000 A 
ATOM      3  C   UNL     1       2.146   3.553  18.854  0.00  0.00    +0.000 A 
ATOM      4  C   UNL     1       3.486   3.223  19.059  0.00  0.00    +0.000 A 
ATOM      5  C   UNL     1       4.481   4.190  18.906  0.00  0.00    +0.000 A 
ATOM      6  C   UNL     1       4.123   5.512  18.626  0.00  0.00    +0.000 A 
ENDROOT
BRANCH   1  10
ATOM      7  O   UNL     1       1.510  10.004  17.520  0.00  0.00    +0.000 OA
ATOM      8  C   UNL     1       1.499   9.481  18.616  0.00  0.00    +0.000 C 
ATOM      9  C   UNL     1       1.912   8.091  18.972  0.00  0.00    +0.000 C 
ATOM     10  C   UNL     1       2.399   7.223  18.076  0.00  0.00    +0.000 C 
ATOM     11  N   UNL     1       1.678   7.869  20.307  0.00  0.00    +0.000 NA
ATOM     12  C   UNL     1       1.171   8.988  20.722  0.00  0.00    +0.000 C 
ATOM     13  S   UNL     1       0.686   9.220  22.362  0.00  0.00    +0.000 S 
ATOM     14  C   UNL     1      -0.479  10.584  22.175  0.00  0.00    +0.000 C 
ATOM     15  C   UNL     1       0.152  11.705  21.368  0.00  0.00    +0.000 C 
ATOM     16  C   UNL     1       0.415  11.269  19.935  0.00  0.00    +0.000 C 
ATOM     17  N   UNL     1       1.064   9.981  19.812  0.00  0.00    +0.000 N 
ENDBRANCH   1  10
BRANCH   5  18
ATOM     18  O   UNL     1       5.825   3.934  19.004  0.00  0.00    +0.000 OA
BRANCH  18  19
ATOM     19  C   UNL     1       6.575   4.251  17.828  0.00  0.00    +0.000 C 
BRANCH  19  20
ATOM     20  C   UNL     1       7.173   5.627  17.966  0.00  0.00    +0.000 A 
ATOM     21  C   UNL     1       7.920   5.979  19.099  0.00  0.00    +0.000 A 
ATOM     22  C   UNL     1       8.466   7.259  19.208  0.00  0.00    +0.000 A 
ATOM     23  C   UNL     1       8.263   8.182  18.188  0.00  0.00    +0.000 A 
ATOM     24  F   UNL     1       8.782   9.412  18.299  0.00  0.00    +0.000 F 
ATOM     25  C   UNL     1       7.528   7.850  17.057  0.00  0.00    +0.000 A 
ATOM     26  C   UNL     1       6.978   6.574  16.947  0.00  0.00    +0.000 A 
ENDBRANCH  19  20
ENDBRANCH  18  19
ENDBRANCH   5  18
TORSDOF 4
ENDMDL
MODEL 9
REMARK VINA RESULT:      -7.7      2.066      2.328
REMARK  Name = 
REMARK  4 active torsions:
REMARK  status: ('A' for Active; 'I' for Inactive)
REMARK    1  A    between atoms: C_4  and  C_5
REMARK    2  A    between atoms: C_9  and  O_10
REMARK    3  A    between atoms: O_10  and  C_11
REMARK    4  A    between atoms: C_11  and  C_12
REMARK                            x       y       z     vdW  Elec       q    Type
REMARK                         _______ _______ _______ _____ _____    ______ ____
ROOT
ATOM      1  C   UNL     1       1.863   5.118  20.527  0.00  0.00    +0.000 A 
ATOM      2  C   UNL     1       0.957   4.161  20.055  0.00  0.00    +0.000 A 
ATOM      3  C   UNL     1       1.419   3.010  19.418  0.00  0.00    +0.000 A 
ATOM      4  C   UNL     1       2.788   2.821  19.228  0.00  0.00    +0.000 A 
ATOM      5  C   UNL     1       3.697   3.796  19.644  0.00  0.00    +0.000 A 
ATOM      6  C   UNL     1       3.236   4.926  20.326  0.00  0.00    +0.000 A 
ENDROOT
BRANCH   1  10
ATOM      7  O   UNL     1       0.465   8.882  22.410  0.00  0.00    +0.000 OA
ATOM      8  C   UNL     1       0.849   8.760  21.264  0.00  0.00    +0.000 C 
ATOM      9  C   UNL     1       1.331   7.520  20.586  0.00  0.00    +0.000 C 
ATOM     10  C   UNL     1       1.367   6.325  21.190  0.00  0.00    +0.000 C 
ATOM     11  N   UNL     1       1.744   7.823  19.311  0.00  0.00    +0.000 NA
ATOM     12  C   UNL     1       1.547   9.101  19.219  0.00  0.00    +0.000 C 
ATOM     13  S   UNL     1       1.926   9.984  17.785  0.00  0.00    +0.000 S 
ATOM     14  C   UNL     1       2.086  11.652  18.452  0.00  0.00    +0.000 C 
ATOM     15  C   UNL     1       0.873  11.996  19.298  0.00  0.00    +0.000 C 
ATOM     16  C   UNL     1       0.807  11.124  20.543  0.00  0.00    +0.000 C 
ATOM     17  N   UNL     1       1.004   9.713  20.294  0.00  0.00    +0.000 N 
ENDBRANCH   1  10
BRANCH   5  18
ATOM     18  O   UNL     1       5.050   3.733  19.421  0.00  0.00    +0.000 OA
BRANCH  18  19
ATOM     19  C   UNL     1       5.653   4.987  19.090  0.00  0.00    +0.000 C 
BRANCH  19  20
ATOM     20  C   UNL     1       5.980   5.017  17.620  0.00  0.00    +0.000 A 
ATOM     21  C   UNL     1       7.211   4.544  17.144  0.00  0.00    +0.000 A 
ATOM     22  C   UNL     1       7.495   4.581  15.778  0.00  0.00    +0.000 A 
ATOM     23  C   UNL     1       6.551   5.092  14.893  0.00  0.00    +0.000 A 
ATOM     24  F   UNL     1       6.829   5.133  13.584  0.00  0.00    +0.000 F 
ATOM     25  C   UNL     1       5.325   5.563  15.347  0.00  0.00    +0.000 A 
ATOM     26  C   UNL     1       5.040   5.530  16.710  0.00  0.00    +0.000 A 
ENDBRANCH  19  20
ENDBRANCH  18  19
ENDBRANCH   5  18
TORSDOF 4
ENDMDL
