MODEL 1
REMARK VINA RESULT:      -7.0      0.000      0.000
REMARK  Name = 
REMARK  2 active torsions:
REMARK  status: ('A' for Active; 'I' for Inactive)
REMARK    1  A    between atoms: C_1  and  C_2
REMARK    2  A    between atoms: C_7  and  C_8
REMARK                            x       y       z     vdW  Elec       q    Type
REMARK                         _______ _______ _______ _____ _____    ______ ____
ROOT
ATOM      1  C   UNL     1       3.624   3.238  17.916  0.00  0.00    +0.000 C 
ATOM      2  O   UNL     1       3.641   2.275  17.156  0.00  0.00    +0.000 OA
ATOM      3  N   UNL     1       4.359   4.393  17.757  0.00  0.00    +0.000 N 
ATOM      4  C   UNL     1       5.245   4.598  16.693  0.00  0.00    +0.000 A 
ATOM      5  C   UNL     1       4.999   4.125  15.414  0.00  0.00    +0.000 A 
ATOM      6  C   UNL     1       5.981   4.315  14.457  0.00  0.00    +0.000 A 
ATOM      7  F   UNL     1       5.779   3.884  13.205  0.00  0.00    +0.000 F 
ATOM      8  C   UNL     1       7.176   4.934  14.775  0.00  0.00    +0.000 A 
ATOM      9  C   UNL     1       7.317   5.399  16.067  0.00  0.00    +0.000 A 
ATOM     10  N   UNL     1       6.363   5.280  17.018  0.00  0.00    +0.000 NA
ATOM     11  H   UNL     1       4.578   4.939  18.578  0.00  0.00    +0.000 HD
ENDROOT
BRANCH   1  18
ATOM     12  C   UNL     1       4.721   1.964  20.467  0.00  0.00    +0.000 C 
ATOM     13  C   UNL     1       3.353   2.574  20.367  0.00  0.00    +0.000 A 
ATOM     14  C   UNL     1       2.561   2.630  21.523  0.00  0.00    +0.000 A 
ATOM     15  C   UNL     1       1.290   3.212  21.504  0.00  0.00    +0.000 A 
ATOM     16  C   UNL     1       0.784   3.736  20.322  0.00  0.00    +0.000 A 
ATOM     17  C   UNL     1       1.558   3.695  19.163  0.00  0.00    +0.000 A 
ATOM     18  C   UNL     1       2.841   3.122  19.177  0.00  0.00    +0.000 A 
ENDBRANCH   1  18
TORSDOF 1
ENDMDL
MODEL 2
REMARK VINA RESULT:      -7.0      2.802      6.451
REMARK  Name = 
REMARK  2 active torsions:
REMARK  status: ('A' for Active; 'I' for Inactive)
REMARK    1  A    between atoms: C_1  and  C_2
REMARK    2  A    between atoms: C_7  and  C_8
REMARK                            x       y       z     vdW  Elec       q    Type
REMARK                         _______ _______ _______ _____ _____    ______ ____
ROOT
ATOM      1  C   UNL     1       4.924   4.264  17.808  0.00  0.00    +0.000 C 
ATOM      2  O   UNL     1       5.555   3.872  18.784  0.00  0.00    +0.000 OA
ATOM      3  N   UNL     1       3.551   4.347  17.726  0.00  0.00    +0.000 N 
ATOM      4  C   UNL     1       2.696   3.968  18.767  0.00  0.00    +0.000 A 
ATOM      5  C   UNL     1       3.010   4.167  20.101  0.00  0.00    +0.000 A 
ATOM      6  C   UNL     1       2.127   3.679  21.051  0.00  0.00    +0.000 A 
ATOM      7  F   UNL     1       2.387   3.861  22.353  0.00  0.00    +0.000 F 
ATOM      8  C   UNL     1       0.985   2.996  20.677  0.00  0.00    +0.000 A 
ATOM      9  C   UNL     1       0.741   2.873  19.324  0.00  0.00    +0.000 A 
ATOM     10  N   UNL     1       1.550   3.379  18.365  0.00  0.00    +0.000 NA
ATOM     11  H   UNL     1       3.121   4.304  16.812  0.00  0.00    +0.000 HD
ENDROOT
BRANCH   1  18
ATOM     12  C   UNL     1       7.273   6.215  17.699  0.00  0.00    +0.000 C 
ATOM     13  C   UNL     1       6.787   5.435  16.512  0.00  0.00    +0.000 A 
ATOM     14  C   UNL     1       7.492   5.550  15.304  0.00  0.00    +0.000 A 
ATOM     15  C   UNL     1       7.109   4.828  14.170  0.00  0.00    +0.000 A 
ATOM     16  C   UNL     1       6.004   3.988  14.222  0.00  0.00    +0.000 A 
ATOM     17  C   UNL     1       5.294   3.856  15.415  0.00  0.00    +0.000 A 
ATOM     18  C   UNL     1       5.679   4.570  16.561  0.00  0.00    +0.000 A 
ENDBRANCH   1  18
TORSDOF 1
ENDMDL
MODEL 3
REMARK VINA RESULT:      -7.0      2.632      6.305
REMARK  Name = 
REMARK  2 active torsions:
REMARK  status: ('A' for Active; 'I' for Inactive)
REMARK    1  A    between atoms: C_1  and  C_2
REMARK    2  A    between atoms: C_7  and  C_8
REMARK                            x       y       z     vdW  Elec       q    Type
REMARK                         _______ _______ _______ _____ _____    ______ ____
ROOT
ATOM      1  C   UNL     1       4.249   4.767  17.312  0.00  0.00    +0.000 C 
ATOM      2  O   UNL     1       3.657   5.810  17.572  0.00  0.00    +0.000 OA
ATOM      3  N   UNL     1       4.114   3.580  17.999  0.00  0.00    +0.000 N 
ATOM      4  C   UNL     1       3.275   3.428  19.110  0.00  0.00    +0.000 A 
ATOM      5  C   UNL     1       2.054   4.072  19.218  0.00  0.00    +0.000 A 
ATOM      6  C   UNL     1       1.343   3.913  20.396  0.00  0.00    +0.000 A 
ATOM      7  F   UNL     1       0.151   4.509  20.536  0.00  0.00    +0.000 F 
ATOM      8  C   UNL     1       1.850   3.158  21.437  0.00  0.00    +0.000 A 
ATOM      9  C   UNL     1       3.061   2.531  21.226  0.00  0.00    +0.000 A 
ATOM     10  N   UNL     1       3.762   2.617  20.072  0.00  0.00    +0.000 NA
ATOM     11  H   UNL     1       4.880   2.922  17.976  0.00  0.00    +0.000 HD
ENDROOT
BRANCH   1  18
ATOM     12  C   UNL     1       7.116   5.714  17.785  0.00  0.00    +0.000 C 
ATOM     13  C   UNL     1       6.621   5.194  16.467  0.00  0.00    +0.000 A 
ATOM     14  C   UNL     1       7.538   5.065  15.412  0.00  0.00    +0.000 A 
ATOM     15  C   UNL     1       7.148   4.560  14.169  0.00  0.00    +0.000 A 
ATOM     16  C   UNL     1       5.827   4.187  13.955  0.00  0.00    +0.000 A 
ATOM     17  C   UNL     1       4.902   4.302  14.991  0.00  0.00    +0.000 A 
ATOM     18  C   UNL     1       5.289   4.798  16.247  0.00  0.00    +0.000 A 
ENDBRANCH   1  18
TORSDOF 1
ENDMDL
MODEL 4
REMARK VINA RESULT:      -6.9      0.478      1.720
REMARK  Name = 
REMARK  2 active torsions:
REMARK  status: ('A' for Active; 'I' for Inactive)
REMARK    1  A    between atoms: C_1  and  C_2
REMARK    2  A    between atoms: C_7  and  C_8
REMARK                            x       y       z     vdW  Elec       q    Type
REMARK                         _______ _______ _______ _____ _____    ______ ____
ROOT
ATOM      1  C   UNL     1       3.787   3.194  18.066  0.00  0.00    +0.000 C 
ATOM      2  O   UNL     1       4.047   2.133  17.509  0.00  0.00    +0.000 OA
ATOM      3  N   UNL     1       4.318   4.421  17.734  0.00  0.00    +0.000 N 
ATOM      4  C   UNL     1       5.252   4.600  16.707  0.00  0.00    +0.000 A 
ATOM      5  C   UNL     1       5.218   3.869  15.531  0.00  0.00    +0.000 A 
ATOM      6  C   UNL     1       6.238   4.072  14.617  0.00  0.00    +0.000 A 
ATOM      7  F   UNL     1       6.237   3.394  13.461  0.00  0.00    +0.000 F 
ATOM      8  C   UNL     1       7.268   4.954  14.883  0.00  0.00    +0.000 A 
ATOM      9  C   UNL     1       7.200   5.659  16.068  0.00  0.00    +0.000 A 
ATOM     10  N   UNL     1       6.195   5.530  16.963  0.00  0.00    +0.000 NA
ATOM     11  H   UNL     1       4.357   5.136  18.447  0.00  0.00    +0.000 HD
ENDROOT
BRANCH   1  18
ATOM     12  C   UNL     1       0.842   4.008  18.051  0.00  0.00    +0.000 C 
ATOM     13  C   UNL     1       1.552   3.490  19.267  0.00  0.00    +0.000 A 
ATOM     14  C   UNL     1       0.811   3.298  20.443  0.00  0.00    +0.000 A 
ATOM     15  C   UNL     1       1.406   2.791  21.601  0.00  0.00    +0.000 A 
ATOM     16  C   UNL     1       2.759   2.478  21.607  0.00  0.00    +0.000 A 
ATOM     17  C   UNL     1       3.512   2.656  20.447  0.00  0.00    +0.000 A 
ATOM     18  C   UNL     1       2.919   3.155  19.276  0.00  0.00    +0.000 A 
ENDBRANCH   1  18
TORSDOF 1
ENDMDL
MODEL 5
REMARK VINA RESULT:      -6.8      2.347      3.103
REMARK  Name = 
REMARK  2 active torsions:
REMARK  status: ('A' for Active; 'I' for Inactive)
REMARK    1  A    between atoms: C_1  and  C_2
REMARK    2  A    between atoms: C_7  and  C_8
REMARK                            x       y       z     vdW  Elec       q    Type
REMARK                         _______ _______ _______ _____ _____    ______ ____
ROOT
ATOM      1  C   UNL     1       5.016   4.945  16.380  0.00  0.00    +0.000 C 
ATOM      2  O   UNL     1       5.318   6.121  16.205  0.00  0.00    +0.000 OA
ATOM      3  N   UNL     1       5.367   3.900  15.554  0.00  0.00    +0.000 N 
ATOM      4  C   UNL     1       6.113   4.066  14.381  0.00  0.00    +0.000 A 
ATOM      5  C   UNL     1       7.131   4.998  14.269  0.00  0.00    +0.000 A 
ATOM      6  C   UNL     1       7.748   5.134  13.037  0.00  0.00    +0.000 A 
ATOM      7  F   UNL     1       8.747   6.015  12.889  0.00  0.00    +0.000 F 
ATOM      8  C   UNL     1       7.343   4.382  11.950  0.00  0.00    +0.000 A 
ATOM      9  C   UNL     1       6.340   3.458  12.166  0.00  0.00    +0.000 A 
ATOM     10  N   UNL     1       5.747   3.257  13.365  0.00  0.00    +0.000 NA
ATOM     11  H   UNL     1       4.785   3.074  15.550  0.00  0.00    +0.000 HD
ENDROOT
BRANCH   1  18
ATOM     12  C   UNL     1       5.779   5.279  19.321  0.00  0.00    +0.000 C 
ATOM     13  C   UNL     1       4.430   4.806  18.862  0.00  0.00    +0.000 A 
ATOM     14  C   UNL     1       3.441   4.573  19.829  0.00  0.00    +0.000 A 
ATOM     15  C   UNL     1       2.155   4.160  19.467  0.00  0.00    +0.000 A 
ATOM     16  C   UNL     1       1.843   3.959  18.129  0.00  0.00    +0.000 A 
ATOM     17  C   UNL     1       2.811   4.190  17.152  0.00  0.00    +0.000 A 
ATOM     18  C   UNL     1       4.101   4.616  17.508  0.00  0.00    +0.000 A 
ENDBRANCH   1  18
TORSDOF 1
ENDMDL
MODEL 6
REMARK VINA RESULT:      -6.8      5.088      7.068
REMARK  Name = 
REMARK  2 active torsions:
REMARK  status: ('A' for Active; 'I' for Inactive)
REMARK    1  A    between atoms: C_1  and  C_2
REMARK    2  A    between atoms: C_7  and  C_8
REMARK                            x       y       z     vdW  Elec       q    Type
REMARK                         _______ _______ _______ _____ _____    ______ ____
ROOT
ATOM      1  C   UNL     1       2.442   6.163  19.874  0.00  0.00    +0.000 C 
ATOM      2  O   UNL     1       1.776   5.604  20.739  0.00  0.00    +0.000 OA
ATOM      3  N   UNL     1       2.371   7.501  19.552  0.00  0.00    +0.000 N 
ATOM      4  C   UNL     1       1.497   8.396  20.180  0.00  0.00    +0.000 A 
ATOM      5  C   UNL     1       1.182   8.311  21.526  0.00  0.00    +0.000 A 
ATOM      6  C   UNL     1       0.244   9.199  22.025  0.00  0.00    +0.000 A 
ATOM      7  F   UNL     1      -0.081   9.159  23.325  0.00  0.00    +0.000 F 
ATOM      8  C   UNL     1      -0.374  10.121  21.201  0.00  0.00    +0.000 A 
ATOM      9  C   UNL     1       0.027  10.150  19.880  0.00  0.00    +0.000 A 
ATOM     10  N   UNL     1       0.977   9.336  19.365  0.00  0.00    +0.000 NA
ATOM     11  H   UNL     1       2.644   7.786  18.622  0.00  0.00    +0.000 HD
ENDROOT
BRANCH   1  18
ATOM     12  C   UNL     1       1.385   4.383  17.626  0.00  0.00    +0.000 C 
ATOM     13  C   UNL     1       2.843   4.533  17.949  0.00  0.00    +0.000 A 
ATOM     14  C   UNL     1       3.779   3.879  17.133  0.00  0.00    +0.000 A 
ATOM     15  C   UNL     1       5.152   4.002  17.362  0.00  0.00    +0.000 A 
ATOM     16  C   UNL     1       5.613   4.770  18.423  0.00  0.00    +0.000 A 
ATOM     17  C   UNL     1       4.700   5.431  19.243  0.00  0.00    +0.000 A 
ATOM     18  C   UNL     1       3.319   5.322  19.012  0.00  0.00    +0.000 A 
ENDBRANCH   1  18
TORSDOF 1
ENDMDL
MODEL 7
REMARK VINA RESULT:      -6.7      2.888      6.268
REMARK  Name = 
REMARK  2 active torsions:
REMARK  status: ('A' for Active; 'I' for Inactive)
REMARK    1  A    between atoms: C_1  and  C_2
REMARK    2  A    between atoms: C_7  and  C_8
REMARK                            x       y       z     vdW  Elec       q    Type
REMARK                         _______ _______ _______ _____ _____    ______ ____
ROOT
ATOM      1  C   UNL     1       5.023   4.822  18.324  0.00  0.00    +0.000 C 
ATOM      2  O   UNL     1       4.807   4.018  17.423  0.00  0.00    +0.000 OA
ATOM      3  N   UNL     1       4.249   4.982  19.452  0.00  0.00    +0.000 N 
ATOM      4  C   UNL     1       3.088   4.239  19.699  0.00  0.00    +0.000 A 
ATOM      5  C   UNL     1       2.963   2.908  19.337  0.00  0.00    +0.000 A 
ATOM      6  C   UNL     1       1.742   2.293  19.556  0.00  0.00    +0.000 A 
ATOM      7  F   UNL     1       1.582   1.003  19.232  0.00  0.00    +0.000 F 
ATOM      8  C   UNL     1       0.678   2.994  20.093  0.00  0.00    +0.000 A 
ATOM      9  C   UNL     1       0.907   4.308  20.449  0.00  0.00    +0.000 A 
ATOM     10  N   UNL     1       2.098   4.930  20.301  0.00  0.00    +0.000 NA
ATOM     11  H   UNL     1       4.266   5.876  19.923  0.00  0.00    +0.000 HD
ENDROOT
BRANCH   1  18
ATOM     12  C   UNL     1       5.030   7.014  16.195  0.00  0.00    +0.000 C 
ATOM     13  C   UNL     1       6.133   6.827  17.196  0.00  0.00    +0.000 A 
ATOM     14  C   UNL     1       7.189   7.750  17.206  0.00  0.00    +0.000 A 
ATOM     15  C   UNL     1       8.232   7.649  18.132  0.00  0.00    +0.000 A 
ATOM     16  C   UNL     1       8.241   6.613  19.056  0.00  0.00    +0.000 A 
ATOM     17  C   UNL     1       7.198   5.689  19.067  0.00  0.00    +0.000 A 
ATOM     18  C   UNL     1       6.141   5.790  18.147  0.00  0.00    +0.000 A 
ENDBRANCH   1  18
TORSDOF 1
ENDMDL
MODEL 8
REMARK VINA RESULT:      -6.6      2.152      2.794
REMARK  Name = 
REMARK  2 active torsions:
REMARK  status: ('A' for Active; 'I' for Inactive)
REMARK    1  A    between atoms: C_1  and  C_2
REMARK    2  A    between atoms: C_7  and  C_8
REMARK                            x       y       z     vdW  Elec       q    Type
REMARK                         _______ _______ _______ _____ _____    ______ ____
ROOT
ATOM      1  C   UNL     1       3.830   4.960  19.012  0.00  0.00    +0.000 C 
ATOM      2  O   UNL     1       3.807   6.186  19.022  0.00  0.00    +0.000 OA
ATOM      3  N   UNL     1       4.715   4.184  18.294  0.00  0.00    +0.000 N 
ATOM      4  C   UNL     1       5.703   4.720  17.461  0.00  0.00    +0.000 A 
ATOM      5  C   UNL     1       6.381   5.890  17.762  0.00  0.00    +0.000 A 
ATOM      6  C   UNL     1       7.282   6.371  16.827  0.00  0.00    +0.000 A 
ATOM      7  F   UNL     1       7.967   7.494  17.084  0.00  0.00    +0.000 F 
ATOM      8  C   UNL     1       7.477   5.719  15.624  0.00  0.00    +0.000 A 
ATOM      9  C   UNL     1       6.779   4.545  15.426  0.00  0.00    +0.000 A 
ATOM     10  N   UNL     1       5.930   4.013  16.334  0.00  0.00    +0.000 NA
ATOM     11  H   UNL     1       4.435   3.247  18.041  0.00  0.00    +0.000 HD
ENDROOT
BRANCH   1  18
ATOM     12  C   UNL     1       1.266   3.984  17.666  0.00  0.00    +0.000 C 
ATOM     13  C   UNL     1       1.586   3.744  19.113  0.00  0.00    +0.000 A 
ATOM     14  C   UNL     1       0.698   2.969  19.874  0.00  0.00    +0.000 A 
ATOM     15  C   UNL     1       0.953   2.684  21.218  0.00  0.00    +0.000 A 
ATOM     16  C   UNL     1       2.096   3.183  21.829  0.00  0.00    +0.000 A 
ATOM     17  C   UNL     1       2.994   3.951  21.089  0.00  0.00    +0.000 A 
ATOM     18  C   UNL     1       2.750   4.232  19.734  0.00  0.00    +0.000 A 
ENDBRANCH   1  18
TORSDOF 1
ENDMDL
MODEL 9
REMARK VINA RESULT:      -6.5      2.763      3.526
REMARK  Name = 
REMARK  2 active torsions:
REMARK  status: ('A' for Active; 'I' for Inactive)
REMARK    1  A    between atoms: C_1  and  C_2
REMARK    2  A    between atoms: C_7  and  C_8
REMARK                            x       y       z     vdW  Elec       q    Type
REMARK                         _______ _______ _______ _____ _____    ______ ____
ROOT
ATOM      1  C   UNL     1       5.149   6.001  16.401  0.00  0.00    +0.000 C 
ATOM      2  O   UNL     1       5.723   7.027  16.051  0.00  0.00    +0.000 OA
ATOM      3  N   UNL     1       5.213   4.789  15.750  0.00  0.00    +0.000 N 
ATOM      4  C   UNL     1       5.946   4.588  14.574  0.00  0.00    +0.000 A 
ATOM      5  C   UNL     1       7.158   5.214  14.332  0.00  0.00    +0.000 A 
ATOM      6  C   UNL     1       7.757   5.006  13.101  0.00  0.00    +0.000 A 
ATOM      7  F   UNL     1       8.935   5.584  12.832  0.00  0.00    +0.000 F 
ATOM      8  C   UNL     1       7.152   4.220  12.139  0.00  0.00    +0.000 A 
ATOM      9  C   UNL     1       5.961   3.613  12.481  0.00  0.00    +0.000 A 
ATOM     10  N   UNL     1       5.368   3.748  13.690  0.00  0.00    +0.000 NA
ATOM     11  H   UNL     1       4.448   4.139  15.866  0.00  0.00    +0.000 HD
ENDROOT
BRANCH   1  18
ATOM     12  C   UNL     1       5.255   4.101  18.792  0.00  0.00    +0.000 C 
ATOM     13  C   UNL     1       4.280   5.236  18.678  0.00  0.00    +0.000 A 
ATOM     14  C   UNL     1       3.417   5.486  19.756  0.00  0.00    +0.000 A 
ATOM     15  C   UNL     1       2.506   6.546  19.724  0.00  0.00    +0.000 A 
ATOM     16  C   UNL     1       2.433   7.366  18.606  0.00  0.00    +0.000 A 
ATOM     17  C   UNL     1       3.285   7.137  17.526  0.00  0.00    +0.000 A 
ATOM     18  C   UNL     1       4.211   6.081  17.555  0.00  0.00    +0.000 A 
ENDBRANCH   1  18
TORSDOF 1
ENDMDL
