MODEL 1
REMARK VINA RESULT:      -7.5      0.000      0.000
REMARK  Name = 
REMARK  13 active torsions:
REMARK  status: ('A' for Active; 'I' for Inactive)
REMARK    1  A    between atoms: C_1  and  C_2
REMARK    2  A    between atoms: C_2  and  C_3
REMARK    3  A    between atoms: C_2  and  C_4
REMARK    4  A    between atoms: C_4  and  N_5
REMARK    5  A    between atoms: C_6  and  C_8
REMARK    6  A    between atoms: C_8  and  C_9
REMARK    7  A    between atoms: C_8  and  N_13
REMARK    8  A    between atoms: C_9  and  C_10
REMARK    9  A    between atoms: C_10  and  C_11
REMARK   10  A    between atoms: C_10  and  C_12
REMARK   11  A    between atoms: C_14  and  C_16
REMARK   12  A    between atoms: CA_18  and  C_19
REMARK   13  A    between atoms: C_19  and  OXT_21
REMARK                            x       y       z     vdW  Elec       q    Type
REMARK                         _______ _______ _______ _____ _____    ______ ____
ROOT
ATOM      1  C   UNL     1       6.252   4.731  16.362  0.00  0.00    +0.000 C 
ENDROOT
BRANCH   1   3
ATOM      2  N   UNL     1       5.967   3.887  14.078  0.00  0.00    +0.000 N 
ATOM      3  C   UNL     1       6.729   4.704  14.896  0.00  0.00    +0.000 C 
ATOM      4  O   UNL     1       7.692   5.352  14.490  0.00  0.00    +0.000 OA
ATOM      5  H   UNL     1       5.026   3.661  14.373  0.00  0.00    +0.000 HD
BRANCH   2   6
ATOM      6  C   UNL     1       6.319   3.609  12.698  0.00  0.00    +0.000 C 
BRANCH   6   8
ATOM      7  C   UNL     1       4.258   3.231  11.298  0.00  0.00    +0.000 C 
ATOM      8  C   UNL     1       5.394   2.554  12.068  0.00  0.00    +0.000 C 
ATOM      9  C   UNL     1       6.167   1.615  11.138  0.00  0.00    +0.000 C 
ENDBRANCH   6   8
ENDBRANCH   2   6
ENDBRANCH   1   3
BRANCH   1  10
ATOM     10  N   UNL     1       5.281   3.651  16.607  0.00  0.00    +0.000 N 
ATOM     11  C   UNL     1       4.069   3.826  17.215  0.00  0.00    +0.000 C 
ATOM     12  O   UNL     1       3.608   4.889  17.625  0.00  0.00    +0.000 OA
ATOM     13  H   UNL     1       5.627   2.696  16.535  0.00  0.00    +0.000 HD
BRANCH  11  14
ATOM     14  C   UNL     1       3.280   2.569  17.372  0.00  0.00    +0.000 C 
ATOM     15  N   UNL     1       4.041   1.457  17.945  0.00  0.00    +0.000 NA
ATOM     16  CA  UNL     1       2.839   1.936  18.668  0.00  0.00    +0.000 C 
ATOM     17  H   UNL     1       4.884   1.787  18.426  0.00  0.00    +0.000 HD
BRANCH  16  18
ATOM     18  C   UNL     1       3.084   2.431  20.050  0.00  0.00    +0.000 C 
ATOM     19  O   UNL     1       4.184   2.376  20.548  0.00  0.00    +0.000 OA
BRANCH  18  20
ATOM     20  OXT UNL     1       1.998   2.928  20.685  0.00  0.00    +0.000 OA
ATOM     21  HXT UNL     1       2.009   2.847  21.665  0.00  0.00    +0.000 HD
ENDBRANCH  18  20
ENDBRANCH  16  18
ENDBRANCH  11  14
ENDBRANCH   1  10
BRANCH   1  22
ATOM     22  C   UNL     1       7.458   4.552  17.297  0.00  0.00    +0.000 C 
BRANCH  22  23
ATOM     23  C   UNL     1       7.663   5.654  18.354  0.00  0.00    +0.000 C 
ATOM     24  C   UNL     1       7.578   7.066  17.778  0.00  0.00    +0.000 C 
ATOM     25  C   UNL     1       6.621   5.504  19.468  0.00  0.00    +0.000 C 
ENDBRANCH  22  23
ENDBRANCH   1  22
TORSDOF 9
ENDMDL
MODEL 2
REMARK VINA RESULT:      -7.4      4.507      8.073
REMARK  Name = 
REMARK  13 active torsions:
REMARK  status: ('A' for Active; 'I' for Inactive)
REMARK    1  A    between atoms: C_1  and  C_2
REMARK    2  A    between atoms: C_2  and  C_3
REMARK    3  A    between atoms: C_2  and  C_4
REMARK    4  A    between atoms: C_4  and  N_5
REMARK    5  A    between atoms: C_6  and  C_8
REMARK    6  A    between atoms: C_8  and  C_9
REMARK    7  A    between atoms: C_8  and  N_13
REMARK    8  A    between atoms: C_9  and  C_10
REMARK    9  A    between atoms: C_10  and  C_11
REMARK   10  A    between atoms: C_10  and  C_12
REMARK   11  A    between atoms: C_14  and  C_16
REMARK   12  A    between atoms: CA_18  and  C_19
REMARK   13  A    between atoms: C_19  and  OXT_21
REMARK                            x       y       z     vdW  Elec       q    Type
REMARK                         _______ _______ _______ _____ _____    ______ ____
ROOT
ATOM      1  C   UNL     1       2.444   5.975  19.735  0.00  0.00    +0.000 C 
ENDROOT
BRANCH   1   3
ATOM      2  N   UNL     1       1.863   7.796  21.271  0.00  0.00    +0.000 N 
ATOM      3  C   UNL     1       2.103   7.464  19.949  0.00  0.00    +0.000 C 
ATOM      4  O   UNL     1       2.055   8.280  19.030  0.00  0.00    +0.000 OA
ATOM      5  H   UNL     1       2.238   7.191  21.990  0.00  0.00    +0.000 HD
BRANCH   2   6
ATOM      6  C   UNL     1       1.395   9.107  21.679  0.00  0.00    +0.000 C 
BRANCH   6   8
ATOM      7  C   UNL     1      -0.646   9.739  23.015  0.00  0.00    +0.000 C 
ATOM      8  C   UNL     1      -0.141   9.198  21.675  0.00  0.00    +0.000 C 
ATOM      9  C   UNL     1      -0.647  10.082  20.532  0.00  0.00    +0.000 C 
ENDBRANCH   6   8
ENDBRANCH   2   6
ENDBRANCH   1   3
BRANCH   1  10
ATOM     10  N   UNL     1       3.900   5.765  19.818  0.00  0.00    +0.000 N 
ATOM     11  C   UNL     1       4.670   5.286  18.793  0.00  0.00    +0.000 C 
ATOM     12  O   UNL     1       4.277   4.981  17.670  0.00  0.00    +0.000 OA
ATOM     13  H   UNL     1       4.310   5.751  20.749  0.00  0.00    +0.000 HD
BRANCH  11  14
ATOM     14  C   UNL     1       6.114   5.135  19.138  0.00  0.00    +0.000 C 
ATOM     15  N   UNL     1       6.867   4.303  18.197  0.00  0.00    +0.000 NA
ATOM     16  CA  UNL     1       7.287   5.712  18.385  0.00  0.00    +0.000 C 
ATOM     17  H   UNL     1       6.375   4.208  17.303  0.00  0.00    +0.000 HD
BRANCH  16  18
ATOM     18  C   UNL     1       7.252   6.554  17.158  0.00  0.00    +0.000 C 
ATOM     19  O   UNL     1       7.030   7.741  17.219  0.00  0.00    +0.000 OA
BRANCH  18  20
ATOM     20  OXT UNL     1       7.478   5.893  15.999  0.00  0.00    +0.000 OA
ATOM     21  HXT UNL     1       8.207   5.235  16.024  0.00  0.00    +0.000 HD
ENDBRANCH  18  20
ENDBRANCH  16  18
ENDBRANCH  11  14
ENDBRANCH   1  10
BRANCH   1  22
ATOM     22  C   UNL     1       1.747   5.129  20.811  0.00  0.00    +0.000 C 
BRANCH  22  23
ATOM     23  C   UNL     1       0.999   3.879  20.308  0.00  0.00    +0.000 C 
ATOM     24  C   UNL     1       1.220   3.601  18.822  0.00  0.00    +0.000 C 
ATOM     25  C   UNL     1       1.438   2.653  21.118  0.00  0.00    +0.000 C 
ENDBRANCH  22  23
ENDBRANCH   1  22
TORSDOF 9
ENDMDL
MODEL 3
REMARK VINA RESULT:      -7.1      4.389      7.921
REMARK  Name = 
REMARK  13 active torsions:
REMARK  status: ('A' for Active; 'I' for Inactive)
REMARK    1  A    between atoms: C_1  and  C_2
REMARK    2  A    between atoms: C_2  and  C_3
REMARK    3  A    between atoms: C_2  and  C_4
REMARK    4  A    between atoms: C_4  and  N_5
REMARK    5  A    between atoms: C_6  and  C_8
REMARK    6  A    between atoms: C_8  and  C_9
REMARK    7  A    between atoms: C_8  and  N_13
REMARK    8  A    between atoms: C_9  and  C_10
REMARK    9  A    between atoms: C_10  and  C_11
REMARK   10  A    between atoms: C_10  and  C_12
REMARK   11  A    between atoms: C_14  and  C_16
REMARK   12  A    between atoms: CA_18  and  C_19
REMARK   13  A    between atoms: C_19  and  OXT_21
REMARK                            x       y       z     vdW  Elec       q    Type
REMARK                         _______ _______ _______ _____ _____    ______ ____
ROOT
ATOM      1  C   UNL     1       2.373   5.886  19.547  0.00  0.00    +0.000 C 
ENDROOT
BRANCH   1   3
ATOM      2  N   UNL     1       1.843   7.609  21.209  0.00  0.00    +0.000 N 
ATOM      3  C   UNL     1       2.115   7.371  19.873  0.00  0.00    +0.000 C 
ATOM      4  O   UNL     1       2.152   8.261  19.024  0.00  0.00    +0.000 OA
ATOM      5  H   UNL     1       2.152   6.924  21.887  0.00  0.00    +0.000 HD
BRANCH   2   6
ATOM      6  C   UNL     1       1.439   8.910  21.709  0.00  0.00    +0.000 C 
BRANCH   6   8
ATOM      7  C   UNL     1      -0.598   9.661  22.987  0.00  0.00    +0.000 C 
ATOM      8  C   UNL     1      -0.086   9.098  21.659  0.00  0.00    +0.000 C 
ATOM      9  C   UNL     1      -0.499  10.020  20.508  0.00  0.00    +0.000 C 
ENDBRANCH   6   8
ENDBRANCH   2   6
ENDBRANCH   1   3
BRANCH   1  10
ATOM     10  N   UNL     1       3.817   5.597  19.580  0.00  0.00    +0.000 N 
ATOM     11  C   UNL     1       4.660   5.754  18.513  0.00  0.00    +0.000 C 
ATOM     12  O   UNL     1       4.351   6.166  17.398  0.00  0.00    +0.000 OA
ATOM     13  H   UNL     1       4.157   5.033  20.356  0.00  0.00    +0.000 HD
BRANCH  11  14
ATOM     14  C   UNL     1       6.074   5.365  18.793  0.00  0.00    +0.000 C 
ATOM     15  N   UNL     1       6.336   3.932  18.649  0.00  0.00    +0.000 NA
ATOM     16  CA  UNL     1       7.091   4.877  17.792  0.00  0.00    +0.000 C 
ATOM     17  H   UNL     1       5.609   3.471  18.093  0.00  0.00    +0.000 HD
BRANCH  16  18
ATOM     18  C   UNL     1       6.906   4.692  16.327  0.00  0.00    +0.000 C 
ATOM     19  O   UNL     1       7.455   5.417  15.530  0.00  0.00    +0.000 OA
BRANCH  18  20
ATOM     20  OXT UNL     1       6.088   3.674  15.973  0.00  0.00    +0.000 OA
ATOM     21  HXT UNL     1       6.468   2.773  16.070  0.00  0.00    +0.000 HD
ENDBRANCH  18  20
ENDBRANCH  16  18
ENDBRANCH  11  14
ENDBRANCH   1  10
BRANCH   1  22
ATOM     22  C   UNL     1       1.656   5.002  20.578  0.00  0.00    +0.000 C 
BRANCH  22  23
ATOM     23  C   UNL     1       1.865   3.482  20.427  0.00  0.00    +0.000 C 
ATOM     24  C   UNL     1       1.624   2.709  21.722  0.00  0.00    +0.000 C 
ATOM     25  C   UNL     1       0.934   2.937  19.338  0.00  0.00    +0.000 C 
ENDBRANCH  22  23
ENDBRANCH   1  22
TORSDOF 9
ENDMDL
MODEL 4
REMARK VINA RESULT:      -7.0      4.390      7.829
REMARK  Name = 
REMARK  13 active torsions:
REMARK  status: ('A' for Active; 'I' for Inactive)
REMARK    1  A    between atoms: C_1  and  C_2
REMARK    2  A    between atoms: C_2  and  C_3
REMARK    3  A    between atoms: C_2  and  C_4
REMARK    4  A    between atoms: C_4  and  N_5
REMARK    5  A    between atoms: C_6  and  C_8
REMARK    6  A    between atoms: C_8  and  C_9
REMARK    7  A    between atoms: C_8  and  N_13
REMARK    8  A    between atoms: C_9  and  C_10
REMARK    9  A    between atoms: C_10  and  C_11
REMARK   10  A    between atoms: C_10  and  C_12
REMARK   11  A    between atoms: C_14  and  C_16
REMARK   12  A    between atoms: CA_18  and  C_19
REMARK   13  A    between atoms: C_19  and  OXT_21
REMARK                            x       y       z     vdW  Elec       q    Type
REMARK                         _______ _______ _______ _____ _____    ______ ____
ROOT
ATOM      1  C   UNL     1       2.602   5.987  19.366  0.00  0.00    +0.000 C 
ENDROOT
BRANCH   1   3
ATOM      2  N   UNL     1       1.616   8.127  20.045  0.00  0.00    +0.000 N 
ATOM      3  C   UNL     1       2.208   7.433  19.003  0.00  0.00    +0.000 C 
ATOM      4  O   UNL     1       2.407   7.926  17.894  0.00  0.00    +0.000 OA
ATOM      5  H   UNL     1       1.784   7.804  20.989  0.00  0.00    +0.000 HD
BRANCH   2   6
ATOM      6  C   UNL     1       1.048   9.452  19.883  0.00  0.00    +0.000 C 
BRANCH   6   8
ATOM      7  C   UNL     1      -0.521  10.906  21.213  0.00  0.00    +0.000 C 
ATOM      8  C   UNL     1       0.806  10.145  21.235  0.00  0.00    +0.000 C 
ATOM      9  C   UNL     1       0.812   9.139  22.389  0.00  0.00    +0.000 C 
ENDBRANCH   6   8
ENDBRANCH   2   6
ENDBRANCH   1   3
BRANCH   1  10
ATOM     10  N   UNL     1       4.058   5.887  19.568  0.00  0.00    +0.000 N 
ATOM     11  C   UNL     1       4.902   5.173  18.761  0.00  0.00    +0.000 C 
ATOM     12  O   UNL     1       4.584   4.537  17.760  0.00  0.00    +0.000 OA
ATOM     13  H   UNL     1       4.416   6.164  20.479  0.00  0.00    +0.000 HD
BRANCH  11  14
ATOM     14  C   UNL     1       6.329   5.206  19.196  0.00  0.00    +0.000 C 
ATOM     15  N   UNL     1       7.232   4.443  18.331  0.00  0.00    +0.000 NA
ATOM     16  CA  UNL     1       7.471   5.897  18.494  0.00  0.00    +0.000 C 
ATOM     17  H   UNL     1       6.812   4.266  17.413  0.00  0.00    +0.000 HD
BRANCH  16  18
ATOM     18  C   UNL     1       7.416   6.694  17.238  0.00  0.00    +0.000 C 
ATOM     19  O   UNL     1       7.337   7.900  17.266  0.00  0.00    +0.000 OA
BRANCH  18  20
ATOM     20  OXT UNL     1       7.452   5.972  16.094  0.00  0.00    +0.000 OA
ATOM     21  HXT UNL     1       6.747   5.293  16.002  0.00  0.00    +0.000 HD
ENDBRANCH  18  20
ENDBRANCH  16  18
ENDBRANCH  11  14
ENDBRANCH   1  10
BRANCH   1  22
ATOM     22  C   UNL     1       1.881   5.567  20.654  0.00  0.00    +0.000 C 
BRANCH  22  23
ATOM     23  C   UNL     1       1.244   4.163  20.645  0.00  0.00    +0.000 C 
ATOM     24  C   UNL     1       1.196   3.531  19.255  0.00  0.00    +0.000 C 
ATOM     25  C   UNL     1       2.018   3.237  21.589  0.00  0.00    +0.000 C 
ENDBRANCH  22  23
ENDBRANCH   1  22
TORSDOF 9
ENDMDL
MODEL 5
REMARK VINA RESULT:      -6.9      1.091      1.333
REMARK  Name = 
REMARK  13 active torsions:
REMARK  status: ('A' for Active; 'I' for Inactive)
REMARK    1  A    between atoms: C_1  and  C_2
REMARK    2  A    between atoms: C_2  and  C_3
REMARK    3  A    between atoms: C_2  and  C_4
REMARK    4  A    between atoms: C_4  and  N_5
REMARK    5  A    between atoms: C_6  and  C_8
REMARK    6  A    between atoms: C_8  and  C_9
REMARK    7  A    between atoms: C_8  and  N_13
REMARK    8  A    between atoms: C_9  and  C_10
REMARK    9  A    between atoms: C_10  and  C_11
REMARK   10  A    between atoms: C_10  and  C_12
REMARK   11  A    between atoms: C_14  and  C_16
REMARK   12  A    between atoms: CA_18  and  C_19
REMARK   13  A    between atoms: C_19  and  OXT_21
REMARK                            x       y       z     vdW  Elec       q    Type
REMARK                         _______ _______ _______ _____ _____    ______ ____
ROOT
ATOM      1  C   UNL     1       5.245   4.970  16.803  0.00  0.00    +0.000 C 
ENDROOT
BRANCH   1   3
ATOM      2  N   UNL     1       5.937   4.020  14.651  0.00  0.00    +0.000 N 
ATOM      3  C   UNL     1       5.538   5.174  15.303  0.00  0.00    +0.000 C 
ATOM      4  O   UNL     1       5.422   6.261  14.738  0.00  0.00    +0.000 OA
ATOM      5  H   UNL     1       5.693   3.130  15.066  0.00  0.00    +0.000 HD
BRANCH   2   6
ATOM      6  C   UNL     1       6.391   4.013  13.273  0.00  0.00    +0.000 C 
BRANCH   6   8
ATOM      7  C   UNL     1       4.522   3.439  11.684  0.00  0.00    +0.000 C 
ATOM      8  C   UNL     1       5.728   2.894  12.453  0.00  0.00    +0.000 C 
ATOM      9  C   UNL     1       6.719   2.251  11.479  0.00  0.00    +0.000 C 
ENDBRANCH   6   8
ENDBRANCH   2   6
ENDBRANCH   1   3
BRANCH   1  10
ATOM     10  N   UNL     1       4.410   3.773  17.005  0.00  0.00    +0.000 N 
ATOM     11  C   UNL     1       3.104   3.802  17.409  0.00  0.00    +0.000 C 
ATOM     12  O   UNL     1       2.438   4.808  17.643  0.00  0.00    +0.000 OA
ATOM     13  H   UNL     1       4.895   2.881  17.076  0.00  0.00    +0.000 HD
BRANCH  11  14
ATOM     14  C   UNL     1       2.486   2.453  17.568  0.00  0.00    +0.000 C 
ATOM     15  N   UNL     1       3.262   1.539  18.409  0.00  0.00    +0.000 NA
ATOM     16  CA  UNL     1       1.881   1.879  18.824  0.00  0.00    +0.000 C 
ATOM     17  H   UNL     1       3.932   2.046  18.997  0.00  0.00    +0.000 HD
BRANCH  16  18
ATOM     18  C   UNL     1       1.761   2.535  20.155  0.00  0.00    +0.000 C 
ATOM     19  O   UNL     1       2.689   2.551  20.930  0.00  0.00    +0.000 OA
BRANCH  18  20
ATOM     20  OXT UNL     1       0.556   3.089  20.419  0.00  0.00    +0.000 OA
ATOM     21  HXT UNL     1       0.356   3.232  21.372  0.00  0.00    +0.000 HD
ENDBRANCH  18  20
ENDBRANCH  16  18
ENDBRANCH  11  14
ENDBRANCH   1  10
BRANCH   1  22
ATOM     22  C   UNL     1       6.567   4.801  17.565  0.00  0.00    +0.000 C 
BRANCH  22  23
ATOM     23  C   UNL     1       6.996   5.991  18.448  0.00  0.00    +0.000 C 
ATOM     24  C   UNL     1       8.059   5.623  19.480  0.00  0.00    +0.000 C 
ATOM     25  C   UNL     1       7.526   7.125  17.564  0.00  0.00    +0.000 C 
ENDBRANCH  22  23
ENDBRANCH   1  22
TORSDOF 9
ENDMDL
MODEL 6
REMARK VINA RESULT:      -6.9      4.269      7.407
REMARK  Name = 
REMARK  13 active torsions:
REMARK  status: ('A' for Active; 'I' for Inactive)
REMARK    1  A    between atoms: C_1  and  C_2
REMARK    2  A    between atoms: C_2  and  C_3
REMARK    3  A    between atoms: C_2  and  C_4
REMARK    4  A    between atoms: C_4  and  N_5
REMARK    5  A    between atoms: C_6  and  C_8
REMARK    6  A    between atoms: C_8  and  C_9
REMARK    7  A    between atoms: C_8  and  N_13
REMARK    8  A    between atoms: C_9  and  C_10
REMARK    9  A    between atoms: C_10  and  C_11
REMARK   10  A    between atoms: C_10  and  C_12
REMARK   11  A    between atoms: C_14  and  C_16
REMARK   12  A    between atoms: CA_18  and  C_19
REMARK   13  A    between atoms: C_19  and  OXT_21
REMARK                            x       y       z     vdW  Elec       q    Type
REMARK                         _______ _______ _______ _____ _____    ______ ____
ROOT
ATOM      1  C   UNL     1       2.437   5.975  19.530  0.00  0.00    +0.000 C 
ENDROOT
BRANCH   1   3
ATOM      2  N   UNL     1       2.011   8.071  18.331  0.00  0.00    +0.000 N 
ATOM      3  C   UNL     1       2.057   7.469  19.577  0.00  0.00    +0.000 C 
ATOM      4  O   UNL     1       1.812   8.067  20.623  0.00  0.00    +0.000 OA
ATOM      5  H   UNL     1       1.888   7.479  17.520  0.00  0.00    +0.000 HD
BRANCH   2   6
ATOM      6  C   UNL     1       1.808   9.497  18.155  0.00  0.00    +0.000 C 
BRANCH   6   8
ATOM      7  C   UNL     1       0.649  11.367  19.381  0.00  0.00    +0.000 C 
ATOM      8  C   UNL     1       0.484   9.972  18.776  0.00  0.00    +0.000 C 
ATOM      9  C   UNL     1      -0.647   9.981  17.744  0.00  0.00    +0.000 C 
ENDBRANCH   6   8
ENDBRANCH   2   6
ENDBRANCH   1   3
BRANCH   1  10
ATOM     10  N   UNL     1       3.893   5.811  19.683  0.00  0.00    +0.000 N 
ATOM     11  C   UNL     1       4.720   5.312  18.714  0.00  0.00    +0.000 C 
ATOM     12  O   UNL     1       4.384   4.951  17.589  0.00  0.00    +0.000 OA
ATOM     13  H   UNL     1       4.263   5.847  20.631  0.00  0.00    +0.000 HD
BRANCH  11  14
ATOM     14  C   UNL     1       6.151   5.218  19.125  0.00  0.00    +0.000 C 
ATOM     15  N   UNL     1       6.960   4.347  18.270  0.00  0.00    +0.000 NA
ATOM     16  CA  UNL     1       7.342   5.775  18.386  0.00  0.00    +0.000 C 
ATOM     17  H   UNL     1       6.508   4.185  17.365  0.00  0.00    +0.000 HD
BRANCH  16  18
ATOM     18  C   UNL     1       7.341   6.537  17.107  0.00  0.00    +0.000 C 
ATOM     19  O   UNL     1       7.417   5.972  16.041  0.00  0.00    +0.000 OA
BRANCH  18  20
ATOM     20  OXT UNL     1       7.256   7.882  17.237  0.00  0.00    +0.000 OA
ATOM     21  HXT UNL     1       6.630   8.201  17.924  0.00  0.00    +0.000 HD
ENDBRANCH  18  20
ENDBRANCH  16  18
ENDBRANCH  11  14
ENDBRANCH   1  10
BRANCH   1  22
ATOM     22  C   UNL     1       1.720   5.227  20.664  0.00  0.00    +0.000 C 
BRANCH  22  23
ATOM     23  C   UNL     1       1.004   3.921  20.265  0.00  0.00    +0.000 C 
ATOM     24  C   UNL     1       1.341   3.456  18.850  0.00  0.00    +0.000 C 
ATOM     25  C   UNL     1       1.366   2.810  21.257  0.00  0.00    +0.000 C 
ENDBRANCH  22  23
ENDBRANCH   1  22
TORSDOF 9
ENDMDL
MODEL 7
REMARK VINA RESULT:      -6.8      1.260      1.540
REMARK  Name = 
REMARK  13 active torsions:
REMARK  status: ('A' for Active; 'I' for Inactive)
REMARK    1  A    between atoms: C_1  and  C_2
REMARK    2  A    between atoms: C_2  and  C_3
REMARK    3  A    between atoms: C_2  and  C_4
REMARK    4  A    between atoms: C_4  and  N_5
REMARK    5  A    between atoms: C_6  and  C_8
REMARK    6  A    between atoms: C_8  and  C_9
REMARK    7  A    between atoms: C_8  and  N_13
REMARK    8  A    between atoms: C_9  and  C_10
REMARK    9  A    between atoms: C_10  and  C_11
REMARK   10  A    between atoms: C_10  and  C_12
REMARK   11  A    between atoms: C_14  and  C_16
REMARK   12  A    between atoms: CA_18  and  C_19
REMARK   13  A    between atoms: C_19  and  OXT_21
REMARK                            x       y       z     vdW  Elec       q    Type
REMARK                         _______ _______ _______ _____ _____    ______ ____
ROOT
ATOM      1  C   UNL     1       5.820   4.857  16.505  0.00  0.00    +0.000 C 
ENDROOT
BRANCH   1   3
ATOM      2  N   UNL     1       6.159   3.741  14.348  0.00  0.00    +0.000 N 
ATOM      3  C   UNL     1       5.939   4.958  14.971  0.00  0.00    +0.000 C 
ATOM      4  O   UNL     1       5.841   6.020  14.358  0.00  0.00    +0.000 OA
ATOM      5  H   UNL     1       5.898   2.898  14.843  0.00  0.00    +0.000 HD
BRANCH   2   6
ATOM      6  C   UNL     1       6.436   3.624  12.929  0.00  0.00    +0.000 C 
BRANCH   6   8
ATOM      7  C   UNL     1       4.398   3.476  11.455  0.00  0.00    +0.000 C 
ATOM      8  C   UNL     1       5.450   2.675  12.225  0.00  0.00    +0.000 C 
ATOM      9  C   UNL     1       6.175   1.717  11.276  0.00  0.00    +0.000 C 
ENDBRANCH   6   8
ENDBRANCH   2   6
ENDBRANCH   1   3
BRANCH   1  10
ATOM     10  N   UNL     1       4.983   3.705  16.880  0.00  0.00    +0.000 N 
ATOM     11  C   UNL     1       4.452   3.510  18.126  0.00  0.00    +0.000 C 
ATOM     12  O   UNL     1       4.576   4.256  19.093  0.00  0.00    +0.000 OA
ATOM     13  H   UNL     1       4.997   2.902  16.254  0.00  0.00    +0.000 HD
BRANCH  11  14
ATOM     14  C   UNL     1       3.664   2.249  18.260  0.00  0.00    +0.000 C 
ATOM     15  N   UNL     1       3.088   2.046  19.591  0.00  0.00    +0.000 NA
ATOM     16  CA  UNL     1       2.170   2.132  18.431  0.00  0.00    +0.000 C 
ATOM     17  H   UNL     1       3.053   2.922  20.123  0.00  0.00    +0.000 HD
BRANCH  16  18
ATOM     18  C   UNL     1       1.174   3.237  18.491  0.00  0.00    +0.000 C 
ATOM     19  O   UNL     1       0.862   3.852  17.498  0.00  0.00    +0.000 OA
BRANCH  18  20
ATOM     20  OXT UNL     1       0.668   3.491  19.719  0.00  0.00    +0.000 OA
ATOM     21  HXT UNL     1       1.222   3.192  20.475  0.00  0.00    +0.000 HD
ENDBRANCH  18  20
ENDBRANCH  16  18
ENDBRANCH  11  14
ENDBRANCH   1  10
BRANCH   1  22
ATOM     22  C   UNL     1       7.218   4.690  17.118  0.00  0.00    +0.000 C 
BRANCH  22  23
ATOM     23  C   UNL     1       7.787   5.922  17.849  0.00  0.00    +0.000 C 
ATOM     24  C   UNL     1       7.065   7.221  17.495  0.00  0.00    +0.000 C 
ATOM     25  C   UNL     1       7.712   5.705  19.365  0.00  0.00    +0.000 C 
ENDBRANCH  22  23
ENDBRANCH   1  22
TORSDOF 9
ENDMDL
MODEL 8
REMARK VINA RESULT:      -6.8      4.443      7.906
REMARK  Name = 
REMARK  13 active torsions:
REMARK  status: ('A' for Active; 'I' for Inactive)
REMARK    1  A    between atoms: C_1  and  C_2
REMARK    2  A    between atoms: C_2  and  C_3
REMARK    3  A    between atoms: C_2  and  C_4
REMARK    4  A    between atoms: C_4  and  N_5
REMARK    5  A    between atoms: C_6  and  C_8
REMARK    6  A    between atoms: C_8  and  C_9
REMARK    7  A    between atoms: C_8  and  N_13
REMARK    8  A    between atoms: C_9  and  C_10
REMARK    9  A    between atoms: C_10  and  C_11
REMARK   10  A    between atoms: C_10  and  C_12
REMARK   11  A    between atoms: C_14  and  C_16
REMARK   12  A    between atoms: CA_18  and  C_19
REMARK   13  A    between atoms: C_19  and  OXT_21
REMARK                            x       y       z     vdW  Elec       q    Type
REMARK                         _______ _______ _______ _____ _____    ______ ____
ROOT
ATOM      1  C   UNL     1       2.415   5.951  19.516  0.00  0.00    +0.000 C 
ENDROOT
BRANCH   1   3
ATOM      2  N   UNL     1       1.817   7.889  20.894  0.00  0.00    +0.000 N 
ATOM      3  C   UNL     1       2.161   7.468  19.620  0.00  0.00    +0.000 C 
ATOM      4  O   UNL     1       2.261   8.233  18.662  0.00  0.00    +0.000 OA
ATOM      5  H   UNL     1       2.075   7.302  21.676  0.00  0.00    +0.000 HD
BRANCH   2   6
ATOM      6  C   UNL     1       1.404   9.249  21.186  0.00  0.00    +0.000 C 
BRANCH   6   8
ATOM      7  C   UNL     1      -0.497   9.257  22.839  0.00  0.00    +0.000 C 
ATOM      8  C   UNL     1      -0.120   9.365  21.360  0.00  0.00    +0.000 C 
ATOM      9  C   UNL     1      -0.651  10.679  20.782  0.00  0.00    +0.000 C 
ENDBRANCH   6   8
ENDBRANCH   2   6
ENDBRANCH   1   3
BRANCH   1  10
ATOM     10  N   UNL     1       3.862   5.671  19.522  0.00  0.00    +0.000 N 
ATOM     11  C   UNL     1       4.666   5.743  18.418  0.00  0.00    +0.000 C 
ATOM     12  O   UNL     1       4.316   6.062  17.284  0.00  0.00    +0.000 OA
ATOM     13  H   UNL     1       4.231   5.174  20.330  0.00  0.00    +0.000 HD
BRANCH  11  14
ATOM     14  C   UNL     1       6.091   5.384  18.679  0.00  0.00    +0.000 C 
ATOM     15  N   UNL     1       6.365   3.947  18.608  0.00  0.00    +0.000 NA
ATOM     16  CA  UNL     1       7.085   4.849  17.679  0.00  0.00    +0.000 C 
ATOM     17  H   UNL     1       5.627   3.449  18.100  0.00  0.00    +0.000 HD
BRANCH  16  18
ATOM     18  C   UNL     1       6.862   4.579  16.232  0.00  0.00    +0.000 C 
ATOM     19  O   UNL     1       6.207   3.631  15.866  0.00  0.00    +0.000 OA
BRANCH  18  20
ATOM     20  OXT UNL     1       7.444   5.459  15.385  0.00  0.00    +0.000 OA
ATOM     21  HXT UNL     1       7.654   6.339  15.769  0.00  0.00    +0.000 HD
ENDBRANCH  18  20
ENDBRANCH  16  18
ENDBRANCH  11  14
ENDBRANCH   1  10
BRANCH   1  22
ATOM     22  C   UNL     1       1.756   5.238  20.706  0.00  0.00    +0.000 C 
BRANCH  22  23
ATOM     23  C   UNL     1       0.935   3.977  20.367  0.00  0.00    +0.000 C 
ATOM     24  C   UNL     1       1.202   3.443  18.961  0.00  0.00    +0.000 C 
ATOM     25  C   UNL     1       1.235   2.874  21.388  0.00  0.00    +0.000 C 
ENDBRANCH  22  23
ENDBRANCH   1  22
TORSDOF 9
ENDMDL
MODEL 9
REMARK VINA RESULT:      -6.7      4.313      7.771
REMARK  Name = 
REMARK  13 active torsions:
REMARK  status: ('A' for Active; 'I' for Inactive)
REMARK    1  A    between atoms: C_1  and  C_2
REMARK    2  A    between atoms: C_2  and  C_3
REMARK    3  A    between atoms: C_2  and  C_4
REMARK    4  A    between atoms: C_4  and  N_5
REMARK    5  A    between atoms: C_6  and  C_8
REMARK    6  A    between atoms: C_8  and  C_9
REMARK    7  A    between atoms: C_8  and  N_13
REMARK    8  A    between atoms: C_9  and  C_10
REMARK    9  A    between atoms: C_10  and  C_11
REMARK   10  A    between atoms: C_10  and  C_12
REMARK   11  A    between atoms: C_14  and  C_16
REMARK   12  A    between atoms: CA_18  and  C_19
REMARK   13  A    between atoms: C_19  and  OXT_21
REMARK                            x       y       z     vdW  Elec       q    Type
REMARK                         _______ _______ _______ _____ _____    ______ ____
ROOT
ATOM      1  C   UNL     1       2.700   6.055  18.991  0.00  0.00    +0.000 C 
ENDROOT
BRANCH   1   3
ATOM      2  N   UNL     1       1.708   8.090  19.934  0.00  0.00    +0.000 N 
ATOM      3  C   UNL     1       2.303   7.535  18.814  0.00  0.00    +0.000 C 
ATOM      4  O   UNL     1       2.501   8.163  17.775  0.00  0.00    +0.000 OA
ATOM      5  H   UNL     1       1.876   7.651  20.830  0.00  0.00    +0.000 HD
BRANCH   2   6
ATOM      6  C   UNL     1       1.136   9.423  19.940  0.00  0.00    +0.000 C 
BRANCH   6   8
ATOM      7  C   UNL     1      -0.251   8.348  21.747  0.00  0.00    +0.000 C 
ATOM      8  C   UNL     1      -0.190   9.479  20.718  0.00  0.00    +0.000 C 
ATOM      9  C   UNL     1      -0.375  10.830  21.415  0.00  0.00    +0.000 C 
ENDBRANCH   6   8
ENDBRANCH   2   6
ENDBRANCH   1   3
BRANCH   1  10
ATOM     10  N   UNL     1       4.146   5.939  19.246  0.00  0.00    +0.000 N 
ATOM     11  C   UNL     1       4.979   5.077  18.587  0.00  0.00    +0.000 C 
ATOM     12  O   UNL     1       4.658   4.298  17.692  0.00  0.00    +0.000 OA
ATOM     13  H   UNL     1       4.495   6.348  20.110  0.00  0.00    +0.000 HD
BRANCH  11  14
ATOM     14  C   UNL     1       6.397   5.129  19.049  0.00  0.00    +0.000 C 
ATOM     15  N   UNL     1       7.335   4.424  18.172  0.00  0.00    +0.000 NA
ATOM     16  CA  UNL     1       7.532   5.876  18.394  0.00  0.00    +0.000 C 
ATOM     17  H   UNL     1       6.936   4.271  17.241  0.00  0.00    +0.000 HD
BRANCH  16  18
ATOM     18  C   UNL     1       7.478   6.719  17.169  0.00  0.00    +0.000 C 
ATOM     19  O   UNL     1       7.422   7.924  17.240  0.00  0.00    +0.000 OA
BRANCH  18  20
ATOM     20  OXT UNL     1       7.488   6.037  15.999  0.00  0.00    +0.000 OA
ATOM     21  HXT UNL     1       8.215   5.384  15.898  0.00  0.00    +0.000 HD
ENDBRANCH  18  20
ENDBRANCH  16  18
ENDBRANCH  11  14
ENDBRANCH   1  10
BRANCH   1  22
ATOM     22  C   UNL     1       1.927   5.455  20.174  0.00  0.00    +0.000 C 
BRANCH  22  23
ATOM     23  C   UNL     1       2.003   3.922  20.323  0.00  0.00    +0.000 C 
ATOM     24  C   UNL     1       2.171   3.464  21.771  0.00  0.00    +0.000 C 
ATOM     25  C   UNL     1       0.738   3.282  19.739  0.00  0.00    +0.000 C 
ENDBRANCH  22  23
ENDBRANCH   1  22
TORSDOF 9
ENDMDL
