MODEL 1
REMARK VINA RESULT:      -7.8      0.000      0.000
REMARK  Name = 
REMARK  5 active torsions:
REMARK  status: ('A' for Active; 'I' for Inactive)
REMARK    1  A    between atoms: C_1  and  O_2
REMARK    2  A    between atoms: O_2  and  C_3
REMARK    3  A    between atoms: C_3  and  C_5
REMARK    4  A    between atoms: C_6  and  C_7
REMARK    5  A    between atoms: N_22  and  C_23
REMARK                            x       y       z     vdW  Elec       q    Type
REMARK                         _______ _______ _______ _____ _____    ______ ____
ROOT
ATOM      1  C   UNL     1       4.215   3.931  19.245  0.00  0.00    +0.000 C 
ATOM      2  C   UNL     1       3.387   4.828  20.206  0.00  0.00    +0.000 C 
ATOM      3  C   UNL     1       2.200   3.904  20.684  0.00  0.00    +0.000 C 
ATOM      4  C   UNL     1       1.448   3.217  19.512  0.00  0.00    +0.000 C 
ATOM      5  C   UNL     1       1.849   1.772  19.185  0.00  0.00    +0.000 C 
ATOM      6  C   UNL     1       3.086   1.882  18.289  0.00  0.00    +0.000 C 
ATOM      7  C   UNL     1       3.277   3.391  18.095  0.00  0.00    +0.000 C 
ATOM      8  N   UNL     1       1.896   3.906  18.316  0.00  0.00    +0.000 NA
ATOM      9  C   UNL     1       0.962   3.884  17.208  0.00  0.00    +0.000 C 
ENDROOT
BRANCH   2  10
ATOM     10  C   UNL     1       2.995   6.209  19.622  0.00  0.00    +0.000 A 
ATOM     11  C   UNL     1       3.457   6.617  18.368  0.00  0.00    +0.000 A 
ATOM     12  C   UNL     1       3.004   7.820  17.794  0.00  0.00    +0.000 A 
ATOM     13  C   UNL     1       2.087   8.656  18.457  0.00  0.00    +0.000 A 
ATOM     14  C   UNL     1       1.561   9.833  17.893  0.00  0.00    +0.000 A 
ATOM     15  C   UNL     1       0.667  10.637  18.607  0.00  0.00    +0.000 A 
ATOM     16  C   UNL     1       0.290  10.298  19.898  0.00  0.00    +0.000 A 
ATOM     17  C   UNL     1       0.786   9.133  20.465  0.00  0.00    +0.000 A 
ATOM     18  C   UNL     1       1.665   8.297  19.748  0.00  0.00    +0.000 A 
ATOM     19  C   UNL     1       2.113   7.096  20.286  0.00  0.00    +0.000 A 
ENDBRANCH   2  10
BRANCH   1  20
ATOM     20  C   UNL     1       5.538   4.594  18.880  0.00  0.00    +0.000 C 
ATOM     21  O   UNL     1       6.252   5.171  19.705  0.00  0.00    +0.000 OA
BRANCH  20  23
ATOM     22  C   UNL     1       7.225   4.759  17.257  0.00  0.00    +0.000 C 
ATOM     23  O   UNL     1       5.872   4.421  17.577  0.00  0.00    +0.000 OA
ENDBRANCH  20  23
ENDBRANCH   1  20
TORSDOF 3
ENDMDL
MODEL 2
REMARK VINA RESULT:      -7.4      0.919      1.210
REMARK  Name = 
REMARK  5 active torsions:
REMARK  status: ('A' for Active; 'I' for Inactive)
REMARK    1  A    between atoms: C_1  and  O_2
REMARK    2  A    between atoms: O_2  and  C_3
REMARK    3  A    between atoms: C_3  and  C_5
REMARK    4  A    between atoms: C_6  and  C_7
REMARK    5  A    between atoms: N_22  and  C_23
REMARK                            x       y       z     vdW  Elec       q    Type
REMARK                         _______ _______ _______ _____ _____    ______ ____
ROOT
ATOM      1  C   UNL     1       4.539   4.143  18.060  0.00  0.00    +0.000 C 
ATOM      2  C   UNL     1       4.229   4.976  19.334  0.00  0.00    +0.000 C 
ATOM      3  C   UNL     1       3.559   3.947  20.326  0.00  0.00    +0.000 C 
ATOM      4  C   UNL     1       2.392   3.150  19.684  0.00  0.00    +0.000 C 
ATOM      5  C   UNL     1       2.720   1.746  19.158  0.00  0.00    +0.000 C 
ATOM      6  C   UNL     1       3.306   1.958  17.759  0.00  0.00    +0.000 C 
ATOM      7  C   UNL     1       3.209   3.473  17.537  0.00  0.00    +0.000 C 
ATOM      8  N   UNL     1       2.089   3.845  18.447  0.00  0.00    +0.000 NA
ATOM      9  C   UNL     1       0.728   3.691  17.972  0.00  0.00    +0.000 C 
ENDROOT
BRANCH   2  10
ATOM     10  C   UNL     1       3.449   6.290  19.072  0.00  0.00    +0.000 A 
ATOM     11  C   UNL     1       3.537   6.944  17.840  0.00  0.00    +0.000 A 
ATOM     12  C   UNL     1       2.737   8.070  17.569  0.00  0.00    +0.000 A 
ATOM     13  C   UNL     1       1.836   8.584  18.519  0.00  0.00    +0.000 A 
ATOM     14  C   UNL     1       0.974   9.667  18.267  0.00  0.00    +0.000 A 
ATOM     15  C   UNL     1       0.112  10.148  19.258  0.00  0.00    +0.000 A 
ATOM     16  C   UNL     1       0.100   9.576  20.521  0.00  0.00    +0.000 A 
ATOM     17  C   UNL     1       0.932   8.498  20.784  0.00  0.00    +0.000 A 
ATOM     18  C   UNL     1       1.785   7.982  19.788  0.00  0.00    +0.000 A 
ATOM     19  C   UNL     1       2.572   6.861  20.025  0.00  0.00    +0.000 A 
ENDBRANCH   2  10
BRANCH   1  20
ATOM     20  C   UNL     1       5.411   4.931  17.089  0.00  0.00    +0.000 C 
ATOM     21  O   UNL     1       5.113   5.101  15.903  0.00  0.00    +0.000 OA
BRANCH  20  23
ATOM     22  C   UNL     1       7.663   4.640  17.679  0.00  0.00    +0.000 C 
ATOM     23  O   UNL     1       6.502   5.475  17.683  0.00  0.00    +0.000 OA
ENDBRANCH  20  23
ENDBRANCH   1  20
TORSDOF 3
ENDMDL
MODEL 3
REMARK VINA RESULT:      -7.1      1.838      3.834
REMARK  Name = 
REMARK  5 active torsions:
REMARK  status: ('A' for Active; 'I' for Inactive)
REMARK    1  A    between atoms: C_1  and  O_2
REMARK    2  A    between atoms: O_2  and  C_3
REMARK    3  A    between atoms: C_3  and  C_5
REMARK    4  A    between atoms: C_6  and  C_7
REMARK    5  A    between atoms: N_22  and  C_23
REMARK                            x       y       z     vdW  Elec       q    Type
REMARK                         _______ _______ _______ _____ _____    ______ ____
ROOT
ATOM      1  C   UNL     1       5.106   4.220  18.048  0.00  0.00    +0.000 C 
ATOM      2  C   UNL     1       4.080   4.948  17.137  0.00  0.00    +0.000 C 
ATOM      3  C   UNL     1       4.852   5.179  15.779  0.00  0.00    +0.000 C 
ATOM      4  C   UNL     1       6.243   5.841  15.970  0.00  0.00    +0.000 C 
ATOM      5  C   UNL     1       7.459   4.904  15.985  0.00  0.00    +0.000 C 
ATOM      6  C   UNL     1       7.549   4.369  17.416  0.00  0.00    +0.000 C 
ATOM      7  C   UNL     1       6.418   5.092  18.159  0.00  0.00    +0.000 C 
ATOM      8  N   UNL     1       6.251   6.324  17.339  0.00  0.00    +0.000 NA
ATOM      9  C   UNL     1       7.130   7.449  17.589  0.00  0.00    +0.000 C 
ENDROOT
BRANCH   2  10
ATOM     10  C   UNL     1       3.421   6.196  17.776  0.00  0.00    +0.000 A 
ATOM     11  C   UNL     1       3.355   7.408  17.084  0.00  0.00    +0.000 A 
ATOM     12  C   UNL     1       2.652   8.503  17.623  0.00  0.00    +0.000 A 
ATOM     13  C   UNL     1       2.006   8.426  18.870  0.00  0.00    +0.000 A 
ATOM     14  C   UNL     1       1.241   9.475  19.415  0.00  0.00    +0.000 A 
ATOM     15  C   UNL     1       0.637   9.348  20.670  0.00  0.00    +0.000 A 
ATOM     16  C   UNL     1       0.793   8.189  21.415  0.00  0.00    +0.000 A 
ATOM     17  C   UNL     1       1.530   7.139  20.888  0.00  0.00    +0.000 A 
ATOM     18  C   UNL     1       2.120   7.238  19.612  0.00  0.00    +0.000 A 
ATOM     19  C   UNL     1       2.805   6.166  19.051  0.00  0.00    +0.000 A 
ENDBRANCH   2  10
BRANCH   1  20
ATOM     20  C   UNL     1       4.441   3.705  19.319  0.00  0.00    +0.000 C 
ATOM     21  O   UNL     1       4.723   4.127  20.444  0.00  0.00    +0.000 OA
BRANCH  20  23
ATOM     22  C   UNL     1       2.516   2.635  20.127  0.00  0.00    +0.000 C 
ATOM     23  O   UNL     1       3.469   2.792  19.072  0.00  0.00    +0.000 OA
ENDBRANCH  20  23
ENDBRANCH   1  20
TORSDOF 3
ENDMDL
MODEL 4
REMARK VINA RESULT:      -7.1      1.853      3.932
REMARK  Name = 
REMARK  5 active torsions:
REMARK  status: ('A' for Active; 'I' for Inactive)
REMARK    1  A    between atoms: C_1  and  O_2
REMARK    2  A    between atoms: O_2  and  C_3
REMARK    3  A    between atoms: C_3  and  C_5
REMARK    4  A    between atoms: C_6  and  C_7
REMARK    5  A    between atoms: N_22  and  C_23
REMARK                            x       y       z     vdW  Elec       q    Type
REMARK                         _______ _______ _______ _____ _____    ______ ____
ROOT
ATOM      1  C   UNL     1       5.109   3.846  17.715  0.00  0.00    +0.000 C 
ATOM      2  C   UNL     1       4.028   4.690  16.985  0.00  0.00    +0.000 C 
ATOM      3  C   UNL     1       4.788   5.330  15.759  0.00  0.00    +0.000 C 
ATOM      4  C   UNL     1       6.109   6.041  16.159  0.00  0.00    +0.000 C 
ATOM      5  C   UNL     1       7.408   5.244  15.976  0.00  0.00    +0.000 C 
ATOM      6  C   UNL     1       7.533   4.368  17.225  0.00  0.00    +0.000 C 
ATOM      7  C   UNL     1       6.332   4.773  18.089  0.00  0.00    +0.000 C 
ATOM      8  N   UNL     1       6.057   6.155  17.605  0.00  0.00    +0.000 NA
ATOM      9  C   UNL     1       6.824   7.251  18.163  0.00  0.00    +0.000 C 
ENDROOT
BRANCH   2  10
ATOM     10  C   UNL     1       3.247   5.668  17.899  0.00  0.00    +0.000 A 
ATOM     11  C   UNL     1       2.955   5.334  19.225  0.00  0.00    +0.000 A 
ATOM     12  C   UNL     1       2.349   6.272  20.082  0.00  0.00    +0.000 A 
ATOM     13  C   UNL     1       2.007   7.564  19.642  0.00  0.00    +0.000 A 
ATOM     14  C   UNL     1       1.459   8.551  20.482  0.00  0.00    +0.000 A 
ATOM     15  C   UNL     1       1.119   9.813  19.983  0.00  0.00    +0.000 A 
ATOM     16  C   UNL     1       1.300  10.115  18.642  0.00  0.00    +0.000 A 
ATOM     17  C   UNL     1       1.854   9.159  17.802  0.00  0.00    +0.000 A 
ATOM     18  C   UNL     1       2.229   7.894  18.294  0.00  0.00    +0.000 A 
ATOM     19  C   UNL     1       2.844   6.956  17.472  0.00  0.00    +0.000 A 
ENDBRANCH   2  10
BRANCH   1  20
ATOM     20  C   UNL     1       4.483   2.965  18.789  0.00  0.00    +0.000 C 
ATOM     21  O   UNL     1       4.838   2.989  19.971  0.00  0.00    +0.000 OA
BRANCH  20  23
ATOM     22  C   UNL     1       2.432   1.935  19.279  0.00  0.00    +0.000 C 
ATOM     23  O   UNL     1       3.458   2.210  18.320  0.00  0.00    +0.000 OA
ENDBRANCH  20  23
ENDBRANCH   1  20
TORSDOF 3
ENDMDL
MODEL 5
REMARK VINA RESULT:      -6.8      1.048      1.908
REMARK  Name = 
REMARK  5 active torsions:
REMARK  status: ('A' for Active; 'I' for Inactive)
REMARK    1  A    between atoms: C_1  and  O_2
REMARK    2  A    between atoms: O_2  and  C_3
REMARK    3  A    between atoms: C_3  and  C_5
REMARK    4  A    between atoms: C_6  and  C_7
REMARK    5  A    between atoms: N_22  and  C_23
REMARK                            x       y       z     vdW  Elec       q    Type
REMARK                         _______ _______ _______ _____ _____    ______ ____
ROOT
ATOM      1  C   UNL     1       4.525   4.215  18.109  0.00  0.00    +0.000 C 
ATOM      2  C   UNL     1       4.224   4.683  19.560  0.00  0.00    +0.000 C 
ATOM      3  C   UNL     1       3.856   3.357  20.334  0.00  0.00    +0.000 C 
ATOM      4  C   UNL     1       2.778   2.505  19.613  0.00  0.00    +0.000 C 
ATOM      5  C   UNL     1       3.279   1.335  18.754  0.00  0.00    +0.000 C 
ATOM      6  C   UNL     1       3.657   1.949  17.404  0.00  0.00    +0.000 C 
ATOM      7  C   UNL     1       3.278   3.429  17.544  0.00  0.00    +0.000 C 
ATOM      8  N   UNL     1       2.222   3.376  18.594  0.00  0.00    +0.000 NA
ATOM      9  C   UNL     1       0.863   3.069  18.196  0.00  0.00    +0.000 C 
ENDROOT
BRANCH   2  10
ATOM     10  C   UNL     1       3.206   5.847  19.665  0.00  0.00    +0.000 A 
ATOM     11  C   UNL     1       2.368   5.970  20.776  0.00  0.00    +0.000 A 
ATOM     12  C   UNL     1       1.530   7.092  20.919  0.00  0.00    +0.000 A 
ATOM     13  C   UNL     1       1.494   8.117  19.956  0.00  0.00    +0.000 A 
ATOM     14  C   UNL     1       0.719   9.284  20.091  0.00  0.00    +0.000 A 
ATOM     15  C   UNL     1       0.708  10.261  19.090  0.00  0.00    +0.000 A 
ATOM     16  C   UNL     1       1.450  10.093  17.931  0.00  0.00    +0.000 A 
ATOM     17  C   UNL     1       2.232   8.956  17.786  0.00  0.00    +0.000 A 
ATOM     18  C   UNL     1       2.278   7.976  18.798  0.00  0.00    +0.000 A 
ATOM     19  C   UNL     1       3.110   6.867  18.688  0.00  0.00    +0.000 A 
ENDBRANCH   2  10
BRANCH   1  20
ATOM     20  C   UNL     1       5.133   5.344  17.285  0.00  0.00    +0.000 C 
ATOM     21  O   UNL     1       4.632   5.755  16.234  0.00  0.00    +0.000 OA
BRANCH  20  23
ATOM     22  C   UNL     1       7.425   5.105  17.729  0.00  0.00    +0.000 C 
ATOM     23  O   UNL     1       6.234   5.885  17.865  0.00  0.00    +0.000 OA
ENDBRANCH  20  23
ENDBRANCH   1  20
TORSDOF 3
ENDMDL
MODEL 6
REMARK VINA RESULT:      -6.7      1.843      3.996
REMARK  Name = 
REMARK  5 active torsions:
REMARK  status: ('A' for Active; 'I' for Inactive)
REMARK    1  A    between atoms: C_1  and  O_2
REMARK    2  A    between atoms: O_2  and  C_3
REMARK    3  A    between atoms: C_3  and  C_5
REMARK    4  A    between atoms: C_6  and  C_7
REMARK    5  A    between atoms: N_22  and  C_23
REMARK                            x       y       z     vdW  Elec       q    Type
REMARK                         _______ _______ _______ _____ _____    ______ ____
ROOT
ATOM      1  C   UNL     1       4.413   4.299  16.945  0.00  0.00    +0.000 C 
ATOM      2  C   UNL     1       3.818   5.715  16.712  0.00  0.00    +0.000 C 
ATOM      3  C   UNL     1       5.022   6.559  16.138  0.00  0.00    +0.000 C 
ATOM      4  C   UNL     1       6.310   6.452  16.997  0.00  0.00    +0.000 C 
ATOM      5  C   UNL     1       7.374   5.449  16.527  0.00  0.00    +0.000 C 
ATOM      6  C   UNL     1       6.928   4.091  17.076  0.00  0.00    +0.000 C 
ATOM      7  C   UNL     1       5.670   4.410  17.894  0.00  0.00    +0.000 C 
ATOM      8  N   UNL     1       5.887   5.842  18.244  0.00  0.00    +0.000 NA
ATOM      9  C   UNL     1       6.711   6.158  19.394  0.00  0.00    +0.000 C 
ENDROOT
BRANCH   2  10
ATOM     10  C   UNL     1       3.076   6.313  17.934  0.00  0.00    +0.000 A 
ATOM     11  C   UNL     1       3.003   5.614  19.142  0.00  0.00    +0.000 A 
ATOM     12  C   UNL     1       2.430   6.212  20.280  0.00  0.00    +0.000 A 
ATOM     13  C   UNL     1       1.904   7.516  20.247  0.00  0.00    +0.000 A 
ATOM     14  C   UNL     1       1.381   8.173  21.376  0.00  0.00    +0.000 A 
ATOM     15  C   UNL     1       0.853   9.465  21.277  0.00  0.00    +0.000 A 
ATOM     16  C   UNL     1       0.819  10.122  20.057  0.00  0.00    +0.000 A 
ATOM     17  C   UNL     1       1.344   9.497  18.935  0.00  0.00    +0.000 A 
ATOM     18  C   UNL     1       1.907   8.208  19.023  0.00  0.00    +0.000 A 
ATOM     19  C   UNL     1       2.493   7.603  17.917  0.00  0.00    +0.000 A 
ENDBRANCH   2  10
BRANCH   1  20
ATOM     20  C   UNL     1       3.317   3.291  17.271  0.00  0.00    +0.000 C 
ATOM     21  O   UNL     1       2.212   3.296  16.721  0.00  0.00    +0.000 OA
BRANCH  20  23
ATOM     22  C   UNL     1       2.677   1.893  19.044  0.00  0.00    +0.000 C 
ATOM     23  O   UNL     1       3.712   2.357  18.172  0.00  0.00    +0.000 OA
ENDBRANCH  20  23
ENDBRANCH   1  20
TORSDOF 3
ENDMDL
MODEL 7
REMARK VINA RESULT:      -6.7      2.316      5.391
REMARK  Name = 
REMARK  5 active torsions:
REMARK  status: ('A' for Active; 'I' for Inactive)
REMARK    1  A    between atoms: C_1  and  O_2
REMARK    2  A    between atoms: O_2  and  C_3
REMARK    3  A    between atoms: C_3  and  C_5
REMARK    4  A    between atoms: C_6  and  C_7
REMARK    5  A    between atoms: N_22  and  C_23
REMARK                            x       y       z     vdW  Elec       q    Type
REMARK                         _______ _______ _______ _____ _____    ______ ____
ROOT
ATOM      1  C   UNL     1       1.819   5.314  19.765  0.00  0.00    +0.000 C 
ATOM      2  C   UNL     1       1.943   4.861  18.285  0.00  0.00    +0.000 C 
ATOM      3  C   UNL     1       1.460   3.358  18.290  0.00  0.00    +0.000 C 
ATOM      4  C   UNL     1       2.164   2.492  19.369  0.00  0.00    +0.000 C 
ATOM      5  C   UNL     1       1.404   2.274  20.684  0.00  0.00    +0.000 C 
ATOM      6  C   UNL     1       1.688   3.514  21.535  0.00  0.00    +0.000 C 
ATOM      7  C   UNL     1       2.659   4.340  20.682  0.00  0.00    +0.000 C 
ATOM      8  N   UNL     1       3.285   3.292  19.828  0.00  0.00    +0.000 NA
ATOM      9  C   UNL     1       4.401   2.536  20.361  0.00  0.00    +0.000 C 
ENDROOT
BRANCH   2  10
ATOM     10  C   UNL     1       3.323   5.141  17.637  0.00  0.00    +0.000 A 
ATOM     11  C   UNL     1       4.251   5.979  18.259  0.00  0.00    +0.000 A 
ATOM     12  C   UNL     1       5.544   6.136  17.725  0.00  0.00    +0.000 A 
ATOM     13  C   UNL     1       5.946   5.472  16.552  0.00  0.00    +0.000 A 
ATOM     14  C   UNL     1       7.247   5.551  16.020  0.00  0.00    +0.000 A 
ATOM     15  C   UNL     1       7.583   4.884  14.837  0.00  0.00    +0.000 A 
ATOM     16  C   UNL     1       6.635   4.140  14.152  0.00  0.00    +0.000 A 
ATOM     17  C   UNL     1       5.351   4.038  14.668  0.00  0.00    +0.000 A 
ATOM     18  C   UNL     1       5.003   4.679  15.874  0.00  0.00    +0.000 A 
ATOM     19  C   UNL     1       3.739   4.527  16.431  0.00  0.00    +0.000 A 
ENDBRANCH   2  10
BRANCH   1  20
ATOM     20  C   UNL     1       2.017   6.820  19.896  0.00  0.00    +0.000 C 
ATOM     21  O   UNL     1       2.130   7.571  18.924  0.00  0.00    +0.000 OA
BRANCH  20  23
ATOM     22  C   UNL     1       1.204   8.421  21.406  0.00  0.00    +0.000 C 
ATOM     23  O   UNL     1       1.987   7.245  21.184  0.00  0.00    +0.000 OA
ENDBRANCH  20  23
ENDBRANCH   1  20
TORSDOF 3
ENDMDL
MODEL 8
REMARK VINA RESULT:      -6.6      0.757      1.610
REMARK  Name = 
REMARK  5 active torsions:
REMARK  status: ('A' for Active; 'I' for Inactive)
REMARK    1  A    between atoms: C_1  and  O_2
REMARK    2  A    between atoms: O_2  and  C_3
REMARK    3  A    between atoms: C_3  and  C_5
REMARK    4  A    between atoms: C_6  and  C_7
REMARK    5  A    between atoms: N_22  and  C_23
REMARK                            x       y       z     vdW  Elec       q    Type
REMARK                         _______ _______ _______ _____ _____    ______ ____
ROOT
ATOM      1  C   UNL     1       4.223   4.228  19.065  0.00  0.00    +0.000 C 
ATOM      2  C   UNL     1       3.336   4.603  20.284  0.00  0.00    +0.000 C 
ATOM      3  C   UNL     1       2.449   3.320  20.536  0.00  0.00    +0.000 C 
ATOM      4  C   UNL     1       1.737   2.807  19.256  0.00  0.00    +0.000 C 
ATOM      5  C   UNL     1       2.409   1.648  18.507  0.00  0.00    +0.000 C 
ATOM      6  C   UNL     1       3.475   2.295  17.620  0.00  0.00    +0.000 C 
ATOM      7  C   UNL     1       3.300   3.800  17.858  0.00  0.00    +0.000 C 
ATOM      8  N   UNL     1       1.875   3.878  18.287  0.00  0.00    +0.000 NA
ATOM      9  C   UNL     1       0.845   3.922  17.268  0.00  0.00    +0.000 C 
ENDROOT
BRANCH   2  10
ATOM     10  C   UNL     1       2.578   5.947  20.142  0.00  0.00    +0.000 A 
ATOM     11  C   UNL     1       1.703   6.387  21.139  0.00  0.00    +0.000 A 
ATOM     12  C   UNL     1       1.109   7.661  21.059  0.00  0.00    +0.000 A 
ATOM     13  C   UNL     1       1.360   8.528  19.980  0.00  0.00    +0.000 A 
ATOM     14  C   UNL     1       0.838   9.832  19.893  0.00  0.00    +0.000 A 
ATOM     15  C   UNL     1       1.106  10.643  18.785  0.00  0.00    +0.000 A 
ATOM     16  C   UNL     1       1.883  10.172  17.737  0.00  0.00    +0.000 A 
ATOM     17  C   UNL     1       2.419   8.894  17.812  0.00  0.00    +0.000 A 
ATOM     18  C   UNL     1       2.183   8.076  18.934  0.00  0.00    +0.000 A 
ATOM     19  C   UNL     1       2.771   6.821  19.045  0.00  0.00    +0.000 A 
ENDBRANCH   2  10
BRANCH   1  20
ATOM     20  C   UNL     1       5.312   5.271  18.840  0.00  0.00    +0.000 C 
ATOM     21  O   UNL     1       6.103   5.619  19.721  0.00  0.00    +0.000 OA
BRANCH  20  23
ATOM     22  C   UNL     1       6.588   5.449  16.879  0.00  0.00    +0.000 C 
ATOM     23  O   UNL     1       5.358   5.715  17.559  0.00  0.00    +0.000 OA
ENDBRANCH  20  23
ENDBRANCH   1  20
TORSDOF 3
ENDMDL
MODEL 9
REMARK VINA RESULT:      -6.4      2.733      6.074
REMARK  Name = 
REMARK  5 active torsions:
REMARK  status: ('A' for Active; 'I' for Inactive)
REMARK    1  A    between atoms: C_1  and  O_2
REMARK    2  A    between atoms: O_2  and  C_3
REMARK    3  A    between atoms: C_3  and  C_5
REMARK    4  A    between atoms: C_6  and  C_7
REMARK    5  A    between atoms: N_22  and  C_23
REMARK                            x       y       z     vdW  Elec       q    Type
REMARK                         _______ _______ _______ _____ _____    ______ ____
ROOT
ATOM      1  C   UNL     1       3.311   3.826  18.251  0.00  0.00    +0.000 C 
ATOM      2  C   UNL     1       4.838   4.093  18.358  0.00  0.00    +0.000 C 
ATOM      3  C   UNL     1       4.972   5.165  19.509  0.00  0.00    +0.000 C 
ATOM      4  C   UNL     1       4.039   6.390  19.316  0.00  0.00    +0.000 C 
ATOM      5  C   UNL     1       2.714   6.380  20.091  0.00  0.00    +0.000 C 
ATOM      6  C   UNL     1       1.748   5.547  19.243  0.00  0.00    +0.000 C 
ATOM      7  C   UNL     1       2.560   5.190  17.991  0.00  0.00    +0.000 C 
ATOM      8  N   UNL     1       3.560   6.294  17.950  0.00  0.00    +0.000 NA
ATOM      9  C   UNL     1       3.180   7.553  17.341  0.00  0.00    +0.000 C 
ENDROOT
BRANCH   2  10
ATOM     10  C   UNL     1       5.530   4.433  17.014  0.00  0.00    +0.000 A 
ATOM     11  C   UNL     1       6.639   5.281  16.972  0.00  0.00    +0.000 A 
ATOM     12  C   UNL     1       7.333   5.493  15.765  0.00  0.00    +0.000 A 
ATOM     13  C   UNL     1       6.935   4.876  14.565  0.00  0.00    +0.000 A 
ATOM     14  C   UNL     1       7.637   5.010  13.352  0.00  0.00    +0.000 A 
ATOM     15  C   UNL     1       7.182   4.388  12.185  0.00  0.00    +0.000 A 
ATOM     16  C   UNL     1       6.018   3.636  12.193  0.00  0.00    +0.000 A 
ATOM     17  C   UNL     1       5.320   3.480  13.382  0.00  0.00    +0.000 A 
ATOM     18  C   UNL     1       5.781   4.074  14.574  0.00  0.00    +0.000 A 
ATOM     19  C   UNL     1       5.123   3.867  15.781  0.00  0.00    +0.000 A 
ENDBRANCH   2  10
BRANCH   1  20
ATOM     20  C   UNL     1       3.025   2.632  17.349  0.00  0.00    +0.000 C 
ATOM     21  O   UNL     1       2.287   2.695  16.362  0.00  0.00    +0.000 OA
BRANCH  20  23
ATOM     22  C   UNL     1       3.612   1.173  19.090  0.00  0.00    +0.000 C 
ATOM     23  O   UNL     1       3.719   1.523  17.708  0.00  0.00    +0.000 OA
ENDBRANCH  20  23
ENDBRANCH   1  20
TORSDOF 3
ENDMDL
