MODEL 1
REMARK VINA RESULT:      -7.2      0.000      0.000
REMARK  Name = 
REMARK  6 active torsions:
REMARK  status: ('A' for Active; 'I' for Inactive)
REMARK    1  A    between atoms: C_1  and  N_2
REMARK    2  A    between atoms: N_2  and  C_3
REMARK    3  A    between atoms: N_2  and  C_4
REMARK    4  A    between atoms: C_4  and  C_5
REMARK    5  A    between atoms: C_26  and  C_27
REMARK    6  A    between atoms: C_27  and  O_28
REMARK                            x       y       z     vdW  Elec       q    Type
REMARK                         _______ _______ _______ _____ _____    ______ ____
ROOT
ATOM      1  C   UNL     1      -6.738  14.188  20.811  0.00  0.00    +0.000 A 
ATOM      2  C   UNL     1      -7.320  13.461  19.768  0.00  0.00    +0.000 A 
ATOM      3  C   UNL     1      -6.591  12.520  18.978  0.00  0.00    +0.000 A 
ATOM      4  C   UNL     1      -5.218  12.315  19.231  0.00  0.00    +0.000 A 
ATOM      5  C   UNL     1      -4.614  13.076  20.317  0.00  0.00    +0.000 A 
ATOM      6  C   UNL     1      -5.394  13.962  21.078  0.00  0.00    +0.000 A 
ATOM      7  C   UNL     1      -3.246  12.799  20.347  0.00  0.00    +0.000 A 
ATOM      8  C   UNL     1      -2.293  13.385  21.178  0.00  0.00    +0.000 A 
ATOM      9  C   UNL     1      -0.962  13.189  20.766  0.00  0.00    +0.000 A 
ATOM     10  C   UNL     1      -0.855  12.351  19.639  0.00  0.00    +0.000 A 
ATOM     11  C   UNL     1       0.275  11.958  18.902  0.00  0.00    +0.000 A 
ATOM     12  C   UNL     1       1.581  12.387  18.625  0.00  0.00    +0.000 A 
ATOM     13  C   UNL     1       2.480  11.450  18.099  0.00  0.00    +0.000 A 
ATOM     14  C   UNL     1       2.130  10.100  18.031  0.00  0.00    +0.000 A 
ATOM     15  C   UNL     1       0.798   9.706  18.110  0.00  0.00    +0.000 A 
ATOM     16  C   UNL     1      -0.127  10.735  18.263  0.00  0.00    +0.000 A 
ATOM     17  N   UNL     1      -1.493  10.795  17.982  0.00  0.00    +0.000 N 
ATOM     18  C   UNL     1      -1.841  11.621  18.983  0.00  0.00    +0.000 A 
ATOM     19  C   UNL     1      -3.151  11.914  19.276  0.00  0.00    +0.000 A 
ATOM     20  N   UNL     1      -4.233  11.503  18.584  0.00  0.00    +0.000 N 
ATOM     21  C   UNL     1      -4.336  10.338  17.716  0.00  0.00    +0.000 C 
ATOM     22  C   UNL     1      -3.296  10.117  16.548  0.00  0.00    +0.000 C 
ATOM     23  C   UNL     1      -2.077  11.001  16.671  0.00  0.00    +0.000 C 
ATOM     24  C   UNL     1      -0.092  13.761  21.727  0.00  0.00    +0.000 C 
ATOM     25  O   UNL     1       1.124  13.831  21.826  0.00  0.00    +0.000 OA
ATOM     26  N   UNL     1      -0.959  14.235  22.719  0.00  0.00    +0.000 N 
ATOM     27  C   UNL     1      -2.381  14.098  22.444  0.00  0.00    +0.000 C 
ATOM     28  H   UNL     1      -0.583  14.580  23.587  0.00  0.00    +0.000 HD
ENDROOT
BRANCH   1  29
ATOM     29  C   UNL     1      -7.465  15.172  21.721  0.00  0.00    +0.000 C 
BRANCH  29  31
ATOM     30  C   UNL     1      -6.851  16.561  23.629  0.00  0.00    +0.000 C 
ATOM     31  N   UNL     1      -6.951  15.197  23.114  0.00  0.00    +0.000 NA
ATOM     32  C   UNL     1      -7.793  14.401  24.012  0.00  0.00    +0.000 C 
ENDBRANCH  29  31
ENDBRANCH   1  29
BRANCH  22  33
ATOM     33  C   UNL     1      -3.872  10.246  15.137  0.00  0.00    +0.000 C 
BRANCH  33  34
ATOM     34  O   UNL     1      -2.813  10.219  14.188  0.00  0.00    +0.000 OA
ATOM     35  H   UNL     1      -3.125   9.711  13.415  0.00  0.00    +0.000 HD
ENDBRANCH  33  34
ENDBRANCH  22  33
TORSDOF 4
ENDMDL
MODEL 2
REMARK VINA RESULT:      -7.1      2.163      6.987
REMARK  Name = 
REMARK  6 active torsions:
REMARK  status: ('A' for Active; 'I' for Inactive)
REMARK    1  A    between atoms: C_1  and  N_2
REMARK    2  A    between atoms: N_2  and  C_3
REMARK    3  A    between atoms: N_2  and  C_4
REMARK    4  A    between atoms: C_4  and  C_5
REMARK    5  A    between atoms: C_26  and  C_27
REMARK    6  A    between atoms: C_27  and  O_28
REMARK                            x       y       z     vdW  Elec       q    Type
REMARK                         _______ _______ _______ _____ _____    ______ ____
ROOT
ATOM      1  C   UNL     1       0.358  10.037  18.192  0.00  0.00    +0.000 A 
ATOM      2  C   UNL     1      -0.712   9.501  17.466  0.00  0.00    +0.000 A 
ATOM      3  C   UNL     1      -2.046  10.001  17.569  0.00  0.00    +0.000 A 
ATOM      4  C   UNL     1      -2.323  11.068  18.450  0.00  0.00    +0.000 A 
ATOM      5  C   UNL     1      -1.208  11.621  19.208  0.00  0.00    +0.000 A 
ATOM      6  C   UNL     1       0.087  11.106  19.036  0.00  0.00    +0.000 A 
ATOM      7  C   UNL     1      -1.701  12.596  20.076  0.00  0.00    +0.000 A 
ATOM      8  C   UNL     1      -0.978  13.305  21.034  0.00  0.00    +0.000 A 
ATOM      9  C   UNL     1      -1.770  13.955  21.998  0.00  0.00    +0.000 A 
ATOM     10  C   UNL     1      -3.150  13.837  21.745  0.00  0.00    +0.000 A 
ATOM     11  C   UNL     1      -4.253  14.292  22.486  0.00  0.00    +0.000 A 
ATOM     12  C   UNL     1      -4.591  14.653  23.799  0.00  0.00    +0.000 A 
ATOM     13  C   UNL     1      -5.759  15.403  23.990  0.00  0.00    +0.000 A 
ATOM     14  C   UNL     1      -6.451  15.922  22.894  0.00  0.00    +0.000 A 
ATOM     15  C   UNL     1      -6.243  15.412  21.616  0.00  0.00    +0.000 A 
ATOM     16  C   UNL     1      -5.316  14.377  21.523  0.00  0.00    +0.000 A 
ATOM     17  N   UNL     1      -5.141  13.381  20.561  0.00  0.00    +0.000 N 
ATOM     18  C   UNL     1      -3.803  13.292  20.644  0.00  0.00    +0.000 A 
ATOM     19  C   UNL     1      -3.059  12.530  19.776  0.00  0.00    +0.000 A 
ATOM     20  N   UNL     1      -3.543  11.727  18.806  0.00  0.00    +0.000 N 
ATOM     21  C   UNL     1      -4.838  11.821  18.145  0.00  0.00    +0.000 C 
ATOM     22  C   UNL     1      -6.167  11.876  18.996  0.00  0.00    +0.000 C 
ATOM     23  C   UNL     1      -5.917  12.161  20.459  0.00  0.00    +0.000 C 
ATOM     24  C   UNL     1      -0.927  14.699  22.862  0.00  0.00    +0.000 C 
ATOM     25  O   UNL     1      -1.137  15.428  23.819  0.00  0.00    +0.000 OA
ATOM     26  N   UNL     1       0.353  14.500  22.330  0.00  0.00    +0.000 N 
ATOM     27  C   UNL     1       0.441  13.586  21.202  0.00  0.00    +0.000 C 
ATOM     28  H   UNL     1       1.130  15.030  22.689  0.00  0.00    +0.000 HD
ENDROOT
BRANCH   1  29
ATOM     29  C   UNL     1       1.810   9.584  18.098  0.00  0.00    +0.000 C 
BRANCH  29  31
ATOM     30  C   UNL     1       3.276   7.659  17.797  0.00  0.00    +0.000 C 
ATOM     31  N   UNL     1       2.005   8.132  18.340  0.00  0.00    +0.000 NA
ATOM     32  C   UNL     1       1.940   7.810  19.769  0.00  0.00    +0.000 C 
ENDBRANCH  29  31
ENDBRANCH   1  29
BRANCH  22  33
ATOM     33  C   UNL     1      -7.067  10.646  18.868  0.00  0.00    +0.000 C 
BRANCH  33  34
ATOM     34  O   UNL     1      -7.739  10.420  20.102  0.00  0.00    +0.000 OA
ATOM     35  H   UNL     1      -7.370  11.045  20.754  0.00  0.00    +0.000 HD
ENDBRANCH  33  34
ENDBRANCH  22  33
TORSDOF 4
ENDMDL
MODEL 3
REMARK VINA RESULT:      -6.6      2.494      7.717
REMARK  Name = 
REMARK  6 active torsions:
REMARK  status: ('A' for Active; 'I' for Inactive)
REMARK    1  A    between atoms: C_1  and  N_2
REMARK    2  A    between atoms: N_2  and  C_3
REMARK    3  A    between atoms: N_2  and  C_4
REMARK    4  A    between atoms: C_4  and  C_5
REMARK    5  A    between atoms: C_26  and  C_27
REMARK    6  A    between atoms: C_27  and  O_28
REMARK                            x       y       z     vdW  Elec       q    Type
REMARK                         _______ _______ _______ _____ _____    ______ ____
ROOT
ATOM      1  C   UNL     1       2.161  14.285  20.898  0.00  0.00    +0.000 A 
ATOM      2  C   UNL     1       1.724  15.093  21.953  0.00  0.00    +0.000 A 
ATOM      3  C   UNL     1       0.381  15.074  22.439  0.00  0.00    +0.000 A 
ATOM      4  C   UNL     1      -0.568  14.225  21.829  0.00  0.00    +0.000 A 
ATOM      5  C   UNL     1      -0.110  13.387  20.728  0.00  0.00    +0.000 A 
ATOM      6  C   UNL     1       1.232  13.429  20.319  0.00  0.00    +0.000 A 
ATOM      7  C   UNL     1      -1.207  12.696  20.210  0.00  0.00    +0.000 A 
ATOM      8  C   UNL     1      -1.216  11.857  19.098  0.00  0.00    +0.000 A 
ATOM      9  C   UNL     1      -2.498  11.577  18.590  0.00  0.00    +0.000 A 
ATOM     10  C   UNL     1      -3.530  12.129  19.372  0.00  0.00    +0.000 A 
ATOM     11  C   UNL     1      -4.922  12.120  19.179  0.00  0.00    +0.000 A 
ATOM     12  C   UNL     1      -5.863  11.987  18.148  0.00  0.00    +0.000 A 
ATOM     13  C   UNL     1      -7.185  11.683  18.504  0.00  0.00    +0.000 A 
ATOM     14  C   UNL     1      -7.499  11.348  19.822  0.00  0.00    +0.000 A 
ATOM     15  C   UNL     1      -6.633  11.668  20.863  0.00  0.00    +0.000 A 
ATOM     16  C   UNL     1      -5.463  12.326  20.494  0.00  0.00    +0.000 A 
ATOM     17  N   UNL     1      -4.592  13.137  21.224  0.00  0.00    +0.000 N 
ATOM     18  C   UNL     1      -3.457  12.781  20.599  0.00  0.00    +0.000 A 
ATOM     19  C   UNL     1      -2.219  13.189  21.031  0.00  0.00    +0.000 A 
ATOM     20  N   UNL     1      -1.969  14.037  22.050  0.00  0.00    +0.000 N 
ATOM     21  C   UNL     1      -2.834  14.332  23.184  0.00  0.00    +0.000 C 
ATOM     22  C   UNL     1      -4.330  14.783  22.953  0.00  0.00    +0.000 C 
ATOM     23  C   UNL     1      -4.807  14.535  21.541  0.00  0.00    +0.000 C 
ATOM     24  C   UNL     1      -2.379  10.658  17.517  0.00  0.00    +0.000 C 
ATOM     25  O   UNL     1      -3.189  10.110  16.785  0.00  0.00    +0.000 OA
ATOM     26  N   UNL     1      -1.007  10.381  17.467  0.00  0.00    +0.000 N 
ATOM     27  C   UNL     1      -0.169  11.132  18.390  0.00  0.00    +0.000 C 
ATOM     28  H   UNL     1      -0.667   9.651  16.864  0.00  0.00    +0.000 HD
ENDROOT
BRANCH   1  29
ATOM     29  C   UNL     1       3.586  14.221  20.360  0.00  0.00    +0.000 C 
BRANCH  29  31
ATOM     30  C   UNL     1       4.696  16.348  19.922  0.00  0.00    +0.000 C 
ATOM     31  N   UNL     1       3.896  15.266  19.351  0.00  0.00    +0.000 NA
ATOM     32  C   UNL     1       4.598  14.705  18.193  0.00  0.00    +0.000 C 
ENDBRANCH  29  31
ENDBRANCH   1  29
BRANCH  22  33
ATOM     33  C   UNL     1      -4.635  16.229  23.343  0.00  0.00    +0.000 C 
BRANCH  33  34
ATOM     34  O   UNL     1      -5.188  16.260  24.654  0.00  0.00    +0.000 OA
ATOM     35  H   UNL     1      -6.147  16.419  24.563  0.00  0.00    +0.000 HD
ENDBRANCH  33  34
ENDBRANCH  22  33
TORSDOF 4
ENDMDL
MODEL 4
REMARK VINA RESULT:      -6.5      2.625      7.519
REMARK  Name = 
REMARK  6 active torsions:
REMARK  status: ('A' for Active; 'I' for Inactive)
REMARK    1  A    between atoms: C_1  and  N_2
REMARK    2  A    between atoms: N_2  and  C_3
REMARK    3  A    between atoms: N_2  and  C_4
REMARK    4  A    between atoms: C_4  and  C_5
REMARK    5  A    between atoms: C_26  and  C_27
REMARK    6  A    between atoms: C_27  and  O_28
REMARK                            x       y       z     vdW  Elec       q    Type
REMARK                         _______ _______ _______ _____ _____    ______ ____
ROOT
ATOM      1  C   UNL     1       2.089  15.101  20.267  0.00  0.00    +0.000 A 
ATOM      2  C   UNL     1       1.541  16.101  21.077  0.00  0.00    +0.000 A 
ATOM      3  C   UNL     1       0.185  16.080  21.524  0.00  0.00    +0.000 A 
ATOM      4  C   UNL     1      -0.662  15.023  21.128  0.00  0.00    +0.000 A 
ATOM      5  C   UNL     1      -0.089  13.984  20.281  0.00  0.00    +0.000 A 
ATOM      6  C   UNL     1       1.261  14.047  19.903  0.00  0.00    +0.000 A 
ATOM      7  C   UNL     1      -1.101  13.089  19.931  0.00  0.00    +0.000 A 
ATOM      8  C   UNL     1      -0.992  12.003  19.065  0.00  0.00    +0.000 A 
ATOM      9  C   UNL     1      -2.223  11.489  18.617  0.00  0.00    +0.000 A 
ATOM     10  C   UNL     1      -3.331  12.121  19.215  0.00  0.00    +0.000 A 
ATOM     11  C   UNL     1      -4.707  11.936  19.002  0.00  0.00    +0.000 A 
ATOM     12  C   UNL     1      -5.589  11.466  18.019  0.00  0.00    +0.000 A 
ATOM     13  C   UNL     1      -6.894  11.140  18.412  0.00  0.00    +0.000 A 
ATOM     14  C   UNL     1      -7.235  11.114  19.766  0.00  0.00    +0.000 A 
ATOM     15  C   UNL     1      -6.445  11.760  20.711  0.00  0.00    +0.000 A 
ATOM     16  C   UNL     1      -5.320  12.411  20.212  0.00  0.00    +0.000 A 
ATOM     17  N   UNL     1      -4.551  13.454  20.733  0.00  0.00    +0.000 N 
ATOM     18  C   UNL     1      -3.365  13.061  20.240  0.00  0.00    +0.000 A 
ATOM     19  C   UNL     1      -2.184  13.674  20.581  0.00  0.00    +0.000 A 
ATOM     20  N   UNL     1      -2.051  14.768  21.360  0.00  0.00    +0.000 N 
ATOM     21  C   UNL     1      -2.985  15.254  22.367  0.00  0.00    +0.000 C 
ATOM     22  C   UNL     1      -4.502  15.494  21.999  0.00  0.00    +0.000 C 
ATOM     23  C   UNL     1      -4.896  14.862  20.685  0.00  0.00    +0.000 C 
ATOM     24  C   UNL     1      -1.982  10.347  17.812  0.00  0.00    +0.000 C 
ATOM     25  O   UNL     1      -2.711   9.563  17.225  0.00  0.00    +0.000 OA
ATOM     26  N   UNL     1      -0.591  10.194  17.861  0.00  0.00    +0.000 N 
ATOM     27  C   UNL     1       0.141  11.224  18.583  0.00  0.00    +0.000 C 
ATOM     28  H   UNL     1      -0.165   9.371  17.467  0.00  0.00    +0.000 HD
ENDROOT
BRANCH   1  29
ATOM     29  C   UNL     1       3.536  15.037  19.791  0.00  0.00    +0.000 C 
BRANCH  29  31
ATOM     30  C   UNL     1       3.289  16.349  17.751  0.00  0.00    +0.000 C 
ATOM     31  N   UNL     1       3.686  15.060  18.314  0.00  0.00    +0.000 NA
ATOM     32  C   UNL     1       5.061  14.758  17.908  0.00  0.00    +0.000 C 
ENDBRANCH  29  31
ENDBRANCH   1  29
BRANCH  22  33
ATOM     33  C   UNL     1      -4.944  16.958  22.008  0.00  0.00    +0.000 C 
BRANCH  33  34
ATOM     34  O   UNL     1      -5.055  17.427  20.669  0.00  0.00    +0.000 OA
ATOM     35  H   UNL     1      -5.595  18.240  20.688  0.00  0.00    +0.000 HD
ENDBRANCH  33  34
ENDBRANCH  22  33
TORSDOF 4
ENDMDL
MODEL 5
REMARK VINA RESULT:      -6.5      2.526      6.789
REMARK  Name = 
REMARK  6 active torsions:
REMARK  status: ('A' for Active; 'I' for Inactive)
REMARK    1  A    between atoms: C_1  and  N_2
REMARK    2  A    between atoms: N_2  and  C_3
REMARK    3  A    between atoms: N_2  and  C_4
REMARK    4  A    between atoms: C_4  and  C_5
REMARK    5  A    between atoms: C_26  and  C_27
REMARK    6  A    between atoms: C_27  and  O_28
REMARK                            x       y       z     vdW  Elec       q    Type
REMARK                         _______ _______ _______ _____ _____    ______ ____
ROOT
ATOM      1  C   UNL     1      -4.701  10.972  18.115  0.00  0.00    +0.000 A 
ATOM      2  C   UNL     1      -6.032  11.099  18.528  0.00  0.00    +0.000 A 
ATOM      3  C   UNL     1      -6.438  11.982  19.575  0.00  0.00    +0.000 A 
ATOM      4  C   UNL     1      -5.468  12.756  20.247  0.00  0.00    +0.000 A 
ATOM      5  C   UNL     1      -4.082  12.620  19.817  0.00  0.00    +0.000 A 
ATOM      6  C   UNL     1      -3.753  11.757  18.759  0.00  0.00    +0.000 A 
ATOM      7  C   UNL     1      -3.278  13.392  20.657  0.00  0.00    +0.000 A 
ATOM      8  C   UNL     1      -1.887  13.470  20.640  0.00  0.00    +0.000 A 
ATOM      9  C   UNL     1      -1.321  14.033  21.799  0.00  0.00    +0.000 A 
ATOM     10  C   UNL     1      -2.289  14.495  22.712  0.00  0.00    +0.000 A 
ATOM     11  C   UNL     1      -2.137  15.063  23.988  0.00  0.00    +0.000 A 
ATOM     12  C   UNL     1      -1.216  15.102  25.045  0.00  0.00    +0.000 A 
ATOM     13  C   UNL     1      -1.355  16.121  25.997  0.00  0.00    +0.000 A 
ATOM     14  C   UNL     1      -2.266  17.159  25.789  0.00  0.00    +0.000 A 
ATOM     15  C   UNL     1      -3.300  17.023  24.869  0.00  0.00    +0.000 A 
ATOM     16  C   UNL     1      -3.349  15.808  24.191  0.00  0.00    +0.000 A 
ATOM     17  N   UNL     1      -4.398  15.158  23.539  0.00  0.00    +0.000 N 
ATOM     18  C   UNL     1      -3.670  14.579  22.570  0.00  0.00    +0.000 A 
ATOM     19  C   UNL     1      -4.243  13.906  21.518  0.00  0.00    +0.000 A 
ATOM     20  N   UNL     1      -5.560  13.663  21.351  0.00  0.00    +0.000 N 
ATOM     21  C   UNL     1      -6.675  14.406  21.922  0.00  0.00    +0.000 C 
ATOM     22  C   UNL     1      -6.748  14.667  23.478  0.00  0.00    +0.000 C 
ATOM     23  C   UNL     1      -5.442  14.385  24.184  0.00  0.00    +0.000 C 
ATOM     24  C   UNL     1       0.083  14.129  21.628  0.00  0.00    +0.000 C 
ATOM     25  O   UNL     1       0.988  14.557  22.328  0.00  0.00    +0.000 OA
ATOM     26  N   UNL     1       0.292  13.662  20.325  0.00  0.00    +0.000 N 
ATOM     27  C   UNL     1      -0.885  13.165  19.628  0.00  0.00    +0.000 C 
ATOM     28  H   UNL     1       1.202  13.745  19.905  0.00  0.00    +0.000 HD
ENDROOT
BRANCH   1  29
ATOM     29  C   UNL     1      -4.205  10.086  16.979  0.00  0.00    +0.000 C 
BRANCH  29  31
ATOM     30  C   UNL     1      -1.772   9.960  16.870  0.00  0.00    +0.000 C 
ATOM     31  N   UNL     1      -2.972  10.585  16.319  0.00  0.00    +0.000 NA
ATOM     32  C   UNL     1      -3.010  10.366  14.870  0.00  0.00    +0.000 C 
ENDBRANCH  29  31
ENDBRANCH   1  29
BRANCH  22  33
ATOM     33  C   UNL     1      -7.881  13.937  24.201  0.00  0.00    +0.000 C 
BRANCH  33  34
ATOM     34  O   UNL     1      -7.882  12.566  23.820  0.00  0.00    +0.000 OA
ATOM     35  H   UNL     1      -7.798  12.533  22.848  0.00  0.00    +0.000 HD
ENDBRANCH  33  34
ENDBRANCH  22  33
TORSDOF 4
ENDMDL
MODEL 6
REMARK VINA RESULT:      -6.4      2.506      8.222
REMARK  Name = 
REMARK  6 active torsions:
REMARK  status: ('A' for Active; 'I' for Inactive)
REMARK    1  A    between atoms: C_1  and  N_2
REMARK    2  A    between atoms: N_2  and  C_3
REMARK    3  A    between atoms: N_2  and  C_4
REMARK    4  A    between atoms: C_4  and  C_5
REMARK    5  A    between atoms: C_26  and  C_27
REMARK    6  A    between atoms: C_27  and  O_28
REMARK                            x       y       z     vdW  Elec       q    Type
REMARK                         _______ _______ _______ _____ _____    ______ ____
ROOT
ATOM      1  C   UNL     1       1.906  13.868  19.626  0.00  0.00    +0.000 A 
ATOM      2  C   UNL     1       2.109  14.522  20.847  0.00  0.00    +0.000 A 
ATOM      3  C   UNL     1       1.112  14.587  21.867  0.00  0.00    +0.000 A 
ATOM      4  C   UNL     1      -0.148  13.988  21.647  0.00  0.00    +0.000 A 
ATOM      5  C   UNL     1      -0.358  13.311  20.374  0.00  0.00    +0.000 A 
ATOM      6  C   UNL     1       0.676  13.255  19.425  0.00  0.00    +0.000 A 
ATOM      7  C   UNL     1      -1.680  12.869  20.319  0.00  0.00    +0.000 A 
ATOM      8  C   UNL     1      -2.310  12.251  19.240  0.00  0.00    +0.000 A 
ATOM      9  C   UNL     1      -3.715  12.232  19.319  0.00  0.00    +0.000 A 
ATOM     10  C   UNL     1      -4.203  12.761  20.529  0.00  0.00    +0.000 A 
ATOM     11  C   UNL     1      -5.523  12.963  20.965  0.00  0.00    +0.000 A 
ATOM     12  C   UNL     1      -6.813  13.138  20.444  0.00  0.00    +0.000 A 
ATOM     13  C   UNL     1      -7.900  12.945  21.308  0.00  0.00    +0.000 A 
ATOM     14  C   UNL     1      -7.698  12.421  22.586  0.00  0.00    +0.000 A 
ATOM     15  C   UNL     1      -6.435  12.436  23.170  0.00  0.00    +0.000 A 
ATOM     16  C   UNL     1      -5.421  12.997  22.398  0.00  0.00    +0.000 A 
ATOM     17  N   UNL     1      -4.188  13.545  22.755  0.00  0.00    +0.000 N 
ATOM     18  C   UNL     1      -3.505  13.168  21.661  0.00  0.00    +0.000 A 
ATOM     19  C   UNL     1      -2.146  13.330  21.547  0.00  0.00    +0.000 A 
ATOM     20  N   UNL     1      -1.339  13.942  22.439  0.00  0.00    +0.000 N 
ATOM     21  C   UNL     1      -1.582  14.136  23.862  0.00  0.00    +0.000 C 
ATOM     22  C   UNL     1      -2.923  14.807  24.359  0.00  0.00    +0.000 C 
ATOM     23  C   UNL     1      -3.979  14.880  23.282  0.00  0.00    +0.000 C 
ATOM     24  C   UNL     1      -4.229  11.513  18.210  0.00  0.00    +0.000 C 
ATOM     25  O   UNL     1      -5.358  11.213  17.854  0.00  0.00    +0.000 OA
ATOM     26  N   UNL     1      -3.083  11.078  17.534  0.00  0.00    +0.000 N 
ATOM     27  C   UNL     1      -1.811  11.539  18.071  0.00  0.00    +0.000 C 
ATOM     28  H   UNL     1      -3.170  10.431  16.769  0.00  0.00    +0.000 HD
ENDROOT
BRANCH   1  29
ATOM     29  C   UNL     1       2.939  13.722  18.515  0.00  0.00    +0.000 C 
BRANCH  29  31
ATOM     30  C   UNL     1       5.144  14.505  17.829  0.00  0.00    +0.000 C 
ATOM     31  N   UNL     1       3.845  14.890  18.377  0.00  0.00    +0.000 NA
ATOM     32  C   UNL     1       3.254  15.933  17.534  0.00  0.00    +0.000 C 
ENDBRANCH  29  31
ENDBRANCH   1  29
BRANCH  22  33
ATOM     33  C   UNL     1      -2.755  16.187  24.997  0.00  0.00    +0.000 C 
BRANCH  33  34
ATOM     34  O   UNL     1      -1.758  16.124  26.010  0.00  0.00    +0.000 OA
ATOM     35  H   UNL     1      -0.923  16.446  25.619  0.00  0.00    +0.000 HD
ENDBRANCH  33  34
ENDBRANCH  22  33
TORSDOF 4
ENDMDL
MODEL 7
REMARK VINA RESULT:      -6.3     10.950     12.403
REMARK  Name = 
REMARK  6 active torsions:
REMARK  status: ('A' for Active; 'I' for Inactive)
REMARK    1  A    between atoms: C_1  and  N_2
REMARK    2  A    between atoms: N_2  and  C_3
REMARK    3  A    between atoms: N_2  and  C_4
REMARK    4  A    between atoms: C_4  and  C_5
REMARK    5  A    between atoms: C_26  and  C_27
REMARK    6  A    between atoms: C_27  and  O_28
REMARK                            x       y       z     vdW  Elec       q    Type
REMARK                         _______ _______ _______ _____ _____    ______ ____
ROOT
ATOM      1  C   UNL     1       6.417  12.978  24.907  0.00  0.00    +0.000 A 
ATOM      2  C   UNL     1       6.433  11.663  24.431  0.00  0.00    +0.000 A 
ATOM      3  C   UNL     1       7.219  11.253  23.311  0.00  0.00    +0.000 A 
ATOM      4  C   UNL     1       8.006  12.205  22.628  0.00  0.00    +0.000 A 
ATOM      5  C   UNL     1       7.985  13.575  23.124  0.00  0.00    +0.000 A 
ATOM      6  C   UNL     1       7.215  13.906  24.251  0.00  0.00    +0.000 A 
ATOM      7  C   UNL     1       8.749  14.370  22.267  0.00  0.00    +0.000 A 
ATOM      8  C   UNL     1       8.915  15.752  22.337  0.00  0.00    +0.000 A 
ATOM      9  C   UNL     1       9.434  16.335  21.166  0.00  0.00    +0.000 A 
ATOM     10  C   UNL     1       9.775  15.384  20.184  0.00  0.00    +0.000 A 
ATOM     11  C   UNL     1      10.266  15.561  18.880  0.00  0.00    +0.000 A 
ATOM     12  C   UNL     1      10.293  16.525  17.862  0.00  0.00    +0.000 A 
ATOM     13  C   UNL     1      11.238  16.368  16.838  0.00  0.00    +0.000 A 
ATOM     14  C   UNL     1      12.228  15.389  16.937  0.00  0.00    +0.000 A 
ATOM     15  C   UNL     1      12.088  14.324  17.821  0.00  0.00    +0.000 A 
ATOM     16  C   UNL     1      10.920  14.317  18.577  0.00  0.00    +0.000 A 
ATOM     17  N   UNL     1      10.249  13.279  19.228  0.00  0.00    +0.000 N 
ATOM     18  C   UNL     1       9.782  13.995  20.264  0.00  0.00    +0.000 A 
ATOM     19  C   UNL     1       9.145  13.416  21.334  0.00  0.00    +0.000 A 
ATOM     20  N   UNL     1       8.831  12.110  21.462  0.00  0.00    +0.000 N 
ATOM     21  C   UNL     1       9.465  10.980  20.797  0.00  0.00    +0.000 C 
ATOM     22  C   UNL     1       9.618  10.962  19.225  0.00  0.00    +0.000 C 
ATOM     23  C   UNL     1       9.373  12.313  18.594  0.00  0.00    +0.000 C 
ATOM     24  C   UNL     1       9.629  17.722  21.388  0.00  0.00    +0.000 C 
ATOM     25  O   UNL     1      10.065  18.631  20.699  0.00  0.00    +0.000 OA
ATOM     26  N   UNL     1       9.261  17.898  22.728  0.00  0.00    +0.000 N 
ATOM     27  C   UNL     1       8.739  16.723  23.408  0.00  0.00    +0.000 C 
ATOM     28  H   UNL     1       9.428  18.782  23.178  0.00  0.00    +0.000 HD
ENDROOT
BRANCH   1  29
ATOM     29  C   UNL     1       5.639  13.474  26.120  0.00  0.00    +0.000 C 
BRANCH  29  31
ATOM     30  C   UNL     1       6.595  12.591  28.183  0.00  0.00    +0.000 C 
ATOM     31  N   UNL     1       5.514  12.469  27.207  0.00  0.00    +0.000 NA
ATOM     32  C   UNL     1       4.225  12.580  27.896  0.00  0.00    +0.000 C 
ENDBRANCH  29  31
ENDBRANCH   1  29
BRANCH  22  33
ATOM     33  C   UNL     1       8.775   9.909  18.506  0.00  0.00    +0.000 C 
BRANCH  33  34
ATOM     34  O   UNL     1       8.954   8.646  19.137  0.00  0.00    +0.000 OA
ATOM     35  H   UNL     1       8.123   8.145  19.030  0.00  0.00    +0.000 HD
ENDBRANCH  33  34
ENDBRANCH  22  33
TORSDOF 4
ENDMDL
MODEL 8
REMARK VINA RESULT:      -6.2      2.677      7.362
REMARK  Name = 
REMARK  6 active torsions:
REMARK  status: ('A' for Active; 'I' for Inactive)
REMARK    1  A    between atoms: C_1  and  N_2
REMARK    2  A    between atoms: N_2  and  C_3
REMARK    3  A    between atoms: N_2  and  C_4
REMARK    4  A    between atoms: C_4  and  C_5
REMARK    5  A    between atoms: C_26  and  C_27
REMARK    6  A    between atoms: C_27  and  O_28
REMARK                            x       y       z     vdW  Elec       q    Type
REMARK                         _______ _______ _______ _____ _____    ______ ____
ROOT
ATOM      1  C   UNL     1       1.767  15.083  21.886  0.00  0.00    +0.000 A 
ATOM      2  C   UNL     1       1.040  15.917  22.742  0.00  0.00    +0.000 A 
ATOM      3  C   UNL     1      -0.369  15.788  22.939  0.00  0.00    +0.000 A 
ATOM      4  C   UNL     1      -1.081  14.794  22.235  0.00  0.00    +0.000 A 
ATOM      5  C   UNL     1      -0.322  13.928  21.341  0.00  0.00    +0.000 A 
ATOM      6  C   UNL     1       1.068  14.087  21.217  0.00  0.00    +0.000 A 
ATOM      7  C   UNL     1      -1.213  13.081  20.680  0.00  0.00    +0.000 A 
ATOM      8  C   UNL     1      -0.904  12.162  19.679  0.00  0.00    +0.000 A 
ATOM      9  C   UNL     1      -2.014  11.702  18.948  0.00  0.00    +0.000 A 
ATOM     10  C   UNL     1      -3.238  12.196  19.441  0.00  0.00    +0.000 A 
ATOM     11  C   UNL     1      -4.548  12.017  18.965  0.00  0.00    +0.000 A 
ATOM     12  C   UNL     1      -5.228  11.700  17.781  0.00  0.00    +0.000 A 
ATOM     13  C   UNL     1      -6.562  11.280  17.885  0.00  0.00    +0.000 A 
ATOM     14  C   UNL     1      -7.121  11.016  19.136  0.00  0.00    +0.000 A 
ATOM     15  C   UNL     1      -6.534  11.511  20.296  0.00  0.00    +0.000 A 
ATOM     16  C   UNL     1      -5.377  12.264  20.113  0.00  0.00    +0.000 A 
ATOM     17  N   UNL     1      -4.763  13.221  20.923  0.00  0.00    +0.000 N 
ATOM     18  C   UNL     1      -3.492  12.946  20.584  0.00  0.00    +0.000 A 
ATOM     19  C   UNL     1      -2.418  13.521  21.220  0.00  0.00    +0.000 A 
ATOM     20  N   UNL     1      -2.474  14.468  22.179  0.00  0.00    +0.000 N 
ATOM     21  C   UNL     1      -3.587  14.753  23.074  0.00  0.00    +0.000 C 
ATOM     22  C   UNL     1      -5.032  15.016  22.495  0.00  0.00    +0.000 C 
ATOM     23  C   UNL     1      -5.168  14.608  21.046  0.00  0.00    +0.000 C 
ATOM     24  C   UNL     1      -1.582  10.721  18.020  0.00  0.00    +0.000 C 
ATOM     25  O   UNL     1      -2.162  10.030  17.195  0.00  0.00    +0.000 OA
ATOM     26  N   UNL     1      -0.213  10.595  18.283  0.00  0.00    +0.000 N 
ATOM     27  C   UNL     1       0.333  11.504  19.279  0.00  0.00    +0.000 C 
ATOM     28  H   UNL     1       0.315   9.862  17.840  0.00  0.00    +0.000 HD
ENDROOT
BRANCH   1  29
ATOM     29  C   UNL     1       3.274  15.136  21.664  0.00  0.00    +0.000 C 
BRANCH  29  31
ATOM     30  C   UNL     1       5.145  13.786  22.453  0.00  0.00    +0.000 C 
ATOM     31  N   UNL     1       4.072  14.701  22.838  0.00  0.00    +0.000 NA
ATOM     32  C   UNL     1       4.644  15.844  23.554  0.00  0.00    +0.000 C 
ENDBRANCH  29  31
ENDBRANCH   1  29
BRANCH  22  33
ATOM     33  C   UNL     1      -5.547  16.446  22.666  0.00  0.00    +0.000 C 
BRANCH  33  34
ATOM     34  O   UNL     1      -6.900  16.518  22.233  0.00  0.00    +0.000 OA
ATOM     35  H   UNL     1      -7.334  15.682  22.490  0.00  0.00    +0.000 HD
ENDBRANCH  33  34
ENDBRANCH  22  33
TORSDOF 4
ENDMDL
MODEL 9
REMARK VINA RESULT:      -6.2      1.993      8.187
REMARK  Name = 
REMARK  6 active torsions:
REMARK  status: ('A' for Active; 'I' for Inactive)
REMARK    1  A    between atoms: C_1  and  N_2
REMARK    2  A    between atoms: N_2  and  C_3
REMARK    3  A    between atoms: N_2  and  C_4
REMARK    4  A    between atoms: C_4  and  C_5
REMARK    5  A    between atoms: C_26  and  C_27
REMARK    6  A    between atoms: C_27  and  O_28
REMARK                            x       y       z     vdW  Elec       q    Type
REMARK                         _______ _______ _______ _____ _____    ______ ____
ROOT
ATOM      1  C   UNL     1       0.623  10.141  19.041  0.00  0.00    +0.000 A 
ATOM      2  C   UNL     1       1.148  10.555  20.270  0.00  0.00    +0.000 A 
ATOM      3  C   UNL     1       0.379  11.263  21.242  0.00  0.00    +0.000 A 
ATOM      4  C   UNL     1      -0.967  11.586  20.964  0.00  0.00    +0.000 A 
ATOM      5  C   UNL     1      -1.510  11.156  19.682  0.00  0.00    +0.000 A 
ATOM      6  C   UNL     1      -0.710  10.434  18.782  0.00  0.00    +0.000 A 
ATOM      7  C   UNL     1      -2.812  11.645  19.564  0.00  0.00    +0.000 A 
ATOM      8  C   UNL     1      -3.650  11.532  18.456  0.00  0.00    +0.000 A 
ATOM      9  C   UNL     1      -4.754  12.404  18.470  0.00  0.00    +0.000 A 
ATOM     10  C   UNL     1      -4.844  13.157  19.656  0.00  0.00    +0.000 A 
ATOM     11  C   UNL     1      -5.755  14.158  20.031  0.00  0.00    +0.000 A 
ATOM     12  C   UNL     1      -6.626  15.092  19.450  0.00  0.00    +0.000 A 
ATOM     13  C   UNL     1      -7.621  15.652  20.263  0.00  0.00    +0.000 A 
ATOM     14  C   UNL     1      -7.843  15.154  21.548  0.00  0.00    +0.000 A 
ATOM     15  C   UNL     1      -6.876  14.387  22.190  0.00  0.00    +0.000 A 
ATOM     16  C   UNL     1      -5.708  14.161  21.467  0.00  0.00    +0.000 A 
ATOM     17  N   UNL     1      -4.419  13.820  21.882  0.00  0.00    +0.000 N 
ATOM     18  C   UNL     1      -4.088  13.065  20.820  0.00  0.00    +0.000 A 
ATOM     19  C   UNL     1      -2.928  12.332  20.770  0.00  0.00    +0.000 A 
ATOM     20  N   UNL     1      -1.949  12.324  21.699  0.00  0.00    +0.000 N 
ATOM     21  C   UNL     1      -2.067  12.668  23.109  0.00  0.00    +0.000 C 
ATOM     22  C   UNL     1      -2.701  14.048  23.544  0.00  0.00    +0.000 C 
ATOM     23  C   UNL     1      -3.435  14.740  22.419  0.00  0.00    +0.000 C 
ATOM     24  C   UNL     1      -5.566  12.138  17.338  0.00  0.00    +0.000 C 
ATOM     25  O   UNL     1      -6.617  12.607  16.929  0.00  0.00    +0.000 OA
ATOM     26  N   UNL     1      -4.926  11.059  16.716  0.00  0.00    +0.000 N 
ATOM     27  C   UNL     1      -3.670  10.631  17.312  0.00  0.00    +0.000 C 
ATOM     28  H   UNL     1      -5.374  10.590  15.947  0.00  0.00    +0.000 HD
ENDROOT
BRANCH   1  29
ATOM     29  C   UNL     1       1.372   9.345  17.979  0.00  0.00    +0.000 C 
BRANCH  29  31
ATOM     30  C   UNL     1       1.948   7.476  19.436  0.00  0.00    +0.000 C 
ATOM     31  N   UNL     1       2.461   8.493  18.520  0.00  0.00    +0.000 NA
ATOM     32  C   UNL     1       3.218   7.840  17.448  0.00  0.00    +0.000 C 
ENDBRANCH  29  31
ENDBRANCH   1  29
BRANCH  22  33
ATOM     33  C   UNL     1      -1.725  15.032  24.190  0.00  0.00    +0.000 C 
BRANCH  33  34
ATOM     34  O   UNL     1      -0.422  14.828  23.654  0.00  0.00    +0.000 OA
ATOM     35  H   UNL     1       0.046  15.684  23.689  0.00  0.00    +0.000 HD
ENDBRANCH  33  34
ENDBRANCH  22  33
TORSDOF 4
ENDMDL
