MODEL 1
REMARK VINA RESULT:      -6.8      0.000      0.000
REMARK  Name = 
REMARK  8 active torsions:
REMARK  status: ('A' for Active; 'I' for Inactive)
REMARK    1  A    between atoms: C_1  and  C_2
REMARK    2  A    between atoms: C_2  and  O_3
REMARK    3  A    between atoms: O_3  and  C_4
REMARK    4  A    between atoms: C_4  and  C_6
REMARK    5  A    between atoms: C_7  and  C_8
REMARK    6  A    between atoms: N_9  and  C_10
REMARK    7  A    between atoms: C_14  and  C_15
REMARK    8  A    between atoms: C_19  and  O_20
REMARK                            x       y       z     vdW  Elec       q    Type
REMARK                         _______ _______ _______ _____ _____    ______ ____
ROOT
ATOM      1  C   UNL     1       3.482   4.292  18.108  0.00  0.00    +0.000 C 
ATOM      2  C   UNL     1       4.448   4.104  17.175  0.00  0.00    +0.000 C 
ATOM      3  C   UNL     1       4.239   3.339  15.884  0.00  0.00    +0.000 C 
ATOM      4  N   UNL     1       5.740   4.645  17.392  0.00  0.00    +0.000 N 
ATOM      5  C   UNL     1       6.807   4.455  16.391  0.00  0.00    +0.000 C 
ATOM      6  C   UNL     1       6.072   5.333  18.563  0.00  0.00    +0.000 C 
ATOM      7  S   UNL     1       7.551   6.032  18.945  0.00  0.00    +0.000 S 
ATOM      8  N   UNL     1       5.108   5.447  19.509  0.00  0.00    +0.000 N 
ATOM      9  C   UNL     1       3.713   5.104  19.349  0.00  0.00    +0.000 C 
ATOM     10  H   UNL     1       5.364   5.978  20.330  0.00  0.00    +0.000 HD
ENDROOT
BRANCH   9  11
ATOM     11  C   UNL     1       2.871   6.374  19.411  0.00  0.00    +0.000 A 
ATOM     12  C   UNL     1       2.117   6.698  20.550  0.00  0.00    +0.000 A 
ATOM     13  C   UNL     1       1.397   7.894  20.608  0.00  0.00    +0.000 A 
ATOM     14  C   UNL     1       1.422   8.781  19.533  0.00  0.00    +0.000 A 
ATOM     15  C   UNL     1       2.155   8.455  18.398  0.00  0.00    +0.000 A 
ATOM     16  C   UNL     1       2.865   7.262  18.324  0.00  0.00    +0.000 A 
BRANCH  15  17
ATOM     17  O   UNL     1       2.217   9.294  17.325  0.00  0.00    +0.000 OA
ATOM     18  H   UNL     1       1.797  10.136  17.567  0.00  0.00    +0.000 HD
ENDBRANCH  15  17
ENDBRANCH   9  11
BRANCH   1  19
ATOM     19  C   UNL     1       2.096   3.742  17.970  0.00  0.00    +0.000 C 
ATOM     20  O   UNL     1       1.239   4.173  17.216  0.00  0.00    +0.000 OA
BRANCH  19  21
ATOM     21  O   UNL     1       1.908   2.688  18.809  0.00  0.00    +0.000 OA
BRANCH  21  23
ATOM     22  C   UNL     1       1.352   2.963  21.186  0.00  0.00    +0.000 C 
ATOM     23  C   UNL     1       0.840   2.832  19.760  0.00  0.00    +0.000 C 
ENDBRANCH  21  23
ENDBRANCH  19  21
ENDBRANCH   1  19
TORSDOF 5
ENDMDL
MODEL 2
REMARK VINA RESULT:      -6.7      0.989      1.443
REMARK  Name = 
REMARK  8 active torsions:
REMARK  status: ('A' for Active; 'I' for Inactive)
REMARK    1  A    between atoms: C_1  and  C_2
REMARK    2  A    between atoms: C_2  and  O_3
REMARK    3  A    between atoms: O_3  and  C_4
REMARK    4  A    between atoms: C_4  and  C_6
REMARK    5  A    between atoms: C_7  and  C_8
REMARK    6  A    between atoms: N_9  and  C_10
REMARK    7  A    between atoms: C_14  and  C_15
REMARK    8  A    between atoms: C_19  and  O_20
REMARK                            x       y       z     vdW  Elec       q    Type
REMARK                         _______ _______ _______ _____ _____    ______ ____
ROOT
ATOM      1  C   UNL     1       3.494   4.436  18.117  0.00  0.00    +0.000 C 
ATOM      2  C   UNL     1       4.458   4.122  17.217  0.00  0.00    +0.000 C 
ATOM      3  C   UNL     1       4.228   3.246  16.002  0.00  0.00    +0.000 C 
ATOM      4  N   UNL     1       5.769   4.629  17.395  0.00  0.00    +0.000 N 
ATOM      5  C   UNL     1       6.835   4.303  16.430  0.00  0.00    +0.000 C 
ATOM      6  C   UNL     1       6.120   5.413  18.499  0.00  0.00    +0.000 C 
ATOM      7  S   UNL     1       7.624   6.086  18.830  0.00  0.00    +0.000 S 
ATOM      8  N   UNL     1       5.154   5.655  19.419  0.00  0.00    +0.000 N 
ATOM      9  C   UNL     1       3.748   5.354  19.277  0.00  0.00    +0.000 C 
ATOM     10  H   UNL     1       5.426   6.251  20.189  0.00  0.00    +0.000 HD
ENDROOT
BRANCH   9  11
ATOM     11  C   UNL     1       2.957   6.656  19.207  0.00  0.00    +0.000 A 
ATOM     12  C   UNL     1       2.966   7.457  18.055  0.00  0.00    +0.000 A 
ATOM     13  C   UNL     1       2.191   8.618  17.991  0.00  0.00    +0.000 A 
ATOM     14  C   UNL     1       1.396   8.991  19.074  0.00  0.00    +0.000 A 
ATOM     15  C   UNL     1       1.397   8.207  20.222  0.00  0.00    +0.000 A 
ATOM     16  C   UNL     1       2.175   7.057  20.301  0.00  0.00    +0.000 A 
BRANCH  15  17
ATOM     17  O   UNL     1       0.630   8.526  21.303  0.00  0.00    +0.000 OA
ATOM     18  H   UNL     1       0.023   7.788  21.478  0.00  0.00    +0.000 HD
ENDBRANCH  15  17
ENDBRANCH   9  11
BRANCH   1  19
ATOM     19  C   UNL     1       2.088   3.931  18.015  0.00  0.00    +0.000 C 
ATOM     20  O   UNL     1       1.227   4.385  17.279  0.00  0.00    +0.000 OA
BRANCH  19  21
ATOM     21  O   UNL     1       1.886   2.888  18.866  0.00  0.00    +0.000 OA
BRANCH  21  23
ATOM     22  C   UNL     1       1.487   3.048  21.285  0.00  0.00    +0.000 C 
ATOM     23  C   UNL     1       0.894   3.099  19.885  0.00  0.00    +0.000 C 
ENDBRANCH  21  23
ENDBRANCH  19  21
ENDBRANCH   1  19
TORSDOF 5
ENDMDL
MODEL 3
REMARK VINA RESULT:      -6.6      2.796      5.174
REMARK  Name = 
REMARK  8 active torsions:
REMARK  status: ('A' for Active; 'I' for Inactive)
REMARK    1  A    between atoms: C_1  and  C_2
REMARK    2  A    between atoms: C_2  and  O_3
REMARK    3  A    between atoms: O_3  and  C_4
REMARK    4  A    between atoms: C_4  and  C_6
REMARK    5  A    between atoms: C_7  and  C_8
REMARK    6  A    between atoms: N_9  and  C_10
REMARK    7  A    between atoms: C_14  and  C_15
REMARK    8  A    between atoms: C_19  and  O_20
REMARK                            x       y       z     vdW  Elec       q    Type
REMARK                         _______ _______ _______ _____ _____    ______ ____
ROOT
ATOM      1  C   UNL     1       3.631   4.457  17.877  0.00  0.00    +0.000 C 
ATOM      2  C   UNL     1       2.747   4.077  18.833  0.00  0.00    +0.000 C 
ATOM      3  C   UNL     1       2.363   2.636  19.104  0.00  0.00    +0.000 C 
ATOM      4  N   UNL     1       2.131   5.063  19.644  0.00  0.00    +0.000 N 
ATOM      5  C   UNL     1       1.168   4.674  20.691  0.00  0.00    +0.000 C 
ATOM      6  C   UNL     1       2.369   6.429  19.464  0.00  0.00    +0.000 C 
ATOM      7  S   UNL     1       1.720   7.698  20.354  0.00  0.00    +0.000 S 
ATOM      8  N   UNL     1       3.204   6.785  18.457  0.00  0.00    +0.000 N 
ATOM      9  C   UNL     1       4.028   5.891  17.678  0.00  0.00    +0.000 C 
ATOM     10  H   UNL     1       3.383   7.776  18.371  0.00  0.00    +0.000 HD
ENDROOT
BRANCH   9  11
ATOM     11  C   UNL     1       5.497   6.163  17.983  0.00  0.00    +0.000 A 
ATOM     12  C   UNL     1       6.257   7.046  17.200  0.00  0.00    +0.000 A 
ATOM     13  C   UNL     1       7.585   7.326  17.529  0.00  0.00    +0.000 A 
ATOM     14  C   UNL     1       8.170   6.730  18.646  0.00  0.00    +0.000 A 
ATOM     15  C   UNL     1       7.425   5.844  19.415  0.00  0.00    +0.000 A 
ATOM     16  C   UNL     1       6.107   5.549  19.088  0.00  0.00    +0.000 A 
BRANCH  15  17
ATOM     17  O   UNL     1       7.951   5.244  20.520  0.00  0.00    +0.000 OA
ATOM     18  H   UNL     1       8.480   4.481  20.235  0.00  0.00    +0.000 HD
ENDBRANCH  15  17
ENDBRANCH   9  11
BRANCH   1  19
ATOM     19  C   UNL     1       4.314   3.486  16.966  0.00  0.00    +0.000 C 
ATOM     20  O   UNL     1       4.481   2.299  17.197  0.00  0.00    +0.000 OA
BRANCH  19  21
ATOM     21  O   UNL     1       4.739   4.105  15.831  0.00  0.00    +0.000 OA
BRANCH  21  23
ATOM     22  C   UNL     1       6.572   4.675  14.298  0.00  0.00    +0.000 C 
ATOM     23  C   UNL     1       6.051   3.734  15.373  0.00  0.00    +0.000 C 
ENDBRANCH  21  23
ENDBRANCH  19  21
ENDBRANCH   1  19
TORSDOF 5
ENDMDL
MODEL 4
REMARK VINA RESULT:      -6.4      2.790      4.867
REMARK  Name = 
REMARK  8 active torsions:
REMARK  status: ('A' for Active; 'I' for Inactive)
REMARK    1  A    between atoms: C_1  and  C_2
REMARK    2  A    between atoms: C_2  and  O_3
REMARK    3  A    between atoms: O_3  and  C_4
REMARK    4  A    between atoms: C_4  and  C_6
REMARK    5  A    between atoms: C_7  and  C_8
REMARK    6  A    between atoms: N_9  and  C_10
REMARK    7  A    between atoms: C_14  and  C_15
REMARK    8  A    between atoms: C_19  and  O_20
REMARK                            x       y       z     vdW  Elec       q    Type
REMARK                         _______ _______ _______ _____ _____    ______ ____
ROOT
ATOM      1  C   UNL     1       3.494   4.816  19.143  0.00  0.00    +0.000 C 
ATOM      2  C   UNL     1       2.586   5.242  20.056  0.00  0.00    +0.000 C 
ATOM      3  C   UNL     1       2.087   4.395  21.209  0.00  0.00    +0.000 C 
ATOM      4  N   UNL     1       2.057   6.552  19.953  0.00  0.00    +0.000 N 
ATOM      5  C   UNL     1       1.069   7.039  20.935  0.00  0.00    +0.000 C 
ATOM      6  C   UNL     1       2.405   7.416  18.910  0.00  0.00    +0.000 C 
ATOM      7  S   UNL     1       1.866   8.989  18.671  0.00  0.00    +0.000 S 
ATOM      8  N   UNL     1       3.262   6.941  17.973  0.00  0.00    +0.000 N 
ATOM      9  C   UNL     1       4.006   5.705  18.048  0.00  0.00    +0.000 C 
ATOM     10  H   UNL     1       3.521   7.597  17.249  0.00  0.00    +0.000 HD
ENDROOT
BRANCH   9  11
ATOM     11  C   UNL     1       5.494   6.020  18.165  0.00  0.00    +0.000 A 
ATOM     12  C   UNL     1       6.149   6.824  17.220  0.00  0.00    +0.000 A 
ATOM     13  C   UNL     1       7.500   7.147  17.375  0.00  0.00    +0.000 A 
ATOM     14  C   UNL     1       8.212   6.673  18.477  0.00  0.00    +0.000 A 
ATOM     15  C   UNL     1       7.569   5.863  19.406  0.00  0.00    +0.000 A 
ATOM     16  C   UNL     1       6.229   5.526  19.254  0.00  0.00    +0.000 A 
BRANCH  15  17
ATOM     17  O   UNL     1       8.220   5.383  20.503  0.00  0.00    +0.000 OA
ATOM     18  H   UNL     1       7.591   5.340  21.241  0.00  0.00    +0.000 HD
ENDBRANCH  15  17
ENDBRANCH   9  11
BRANCH   1  19
ATOM     19  C   UNL     1       4.092   3.444  19.166  0.00  0.00    +0.000 C 
ATOM     20  O   UNL     1       4.859   3.023  20.016  0.00  0.00    +0.000 OA
BRANCH  19  21
ATOM     21  O   UNL     1       3.669   2.715  18.097  0.00  0.00    +0.000 OA
BRANCH  21  23
ATOM     22  C   UNL     1       1.340   2.074  18.544  0.00  0.00    +0.000 C 
ATOM     23  C   UNL     1       2.785   1.622  18.399  0.00  0.00    +0.000 C 
ENDBRANCH  21  23
ENDBRANCH  19  21
ENDBRANCH   1  19
TORSDOF 5
ENDMDL
MODEL 5
REMARK VINA RESULT:      -6.3      2.766      4.223
REMARK  Name = 
REMARK  8 active torsions:
REMARK  status: ('A' for Active; 'I' for Inactive)
REMARK    1  A    between atoms: C_1  and  C_2
REMARK    2  A    between atoms: C_2  and  O_3
REMARK    3  A    between atoms: O_3  and  C_4
REMARK    4  A    between atoms: C_4  and  C_6
REMARK    5  A    between atoms: C_7  and  C_8
REMARK    6  A    between atoms: N_9  and  C_10
REMARK    7  A    between atoms: C_14  and  C_15
REMARK    8  A    between atoms: C_19  and  O_20
REMARK                            x       y       z     vdW  Elec       q    Type
REMARK                         _______ _______ _______ _____ _____    ______ ____
ROOT
ATOM      1  C   UNL     1       4.192   5.489  17.817  0.00  0.00    +0.000 C 
ATOM      2  C   UNL     1       4.729   4.470  18.532  0.00  0.00    +0.000 C 
ATOM      3  C   UNL     1       6.218   4.225  18.665  0.00  0.00    +0.000 C 
ATOM      4  N   UNL     1       3.872   3.566  19.208  0.00  0.00    +0.000 N 
ATOM      5  C   UNL     1       4.433   2.451  19.993  0.00  0.00    +0.000 C 
ATOM      6  C   UNL     1       2.479   3.659  19.127  0.00  0.00    +0.000 C 
ATOM      7  S   UNL     1       1.350   2.669  19.880  0.00  0.00    +0.000 S 
ATOM      8  N   UNL     1       1.969   4.646  18.350  0.00  0.00    +0.000 N 
ATOM      9  C   UNL     1       2.712   5.732  17.755  0.00  0.00    +0.000 C 
ATOM     10  H   UNL     1       0.960   4.710  18.336  0.00  0.00    +0.000 HD
ENDROOT
BRANCH   9  11
ATOM     11  C   UNL     1       2.284   7.048  18.399  0.00  0.00    +0.000 A 
ATOM     12  C   UNL     1       1.983   8.178  17.623  0.00  0.00    +0.000 A 
ATOM     13  C   UNL     1       1.539   9.357  18.228  0.00  0.00    +0.000 A 
ATOM     14  C   UNL     1       1.387   9.420  19.612  0.00  0.00    +0.000 A 
ATOM     15  C   UNL     1       1.700   8.307  20.384  0.00  0.00    +0.000 A 
ATOM     16  C   UNL     1       2.155   7.133  19.793  0.00  0.00    +0.000 A 
BRANCH  15  17
ATOM     17  O   UNL     1       1.559   8.318  21.740  0.00  0.00    +0.000 OA
ATOM     18  H   UNL     1       2.219   7.717  22.123  0.00  0.00    +0.000 HD
ENDBRANCH  15  17
ENDBRANCH   9  11
BRANCH   1  19
ATOM     19  C   UNL     1       5.020   6.480  17.059  0.00  0.00    +0.000 C 
ATOM     20  O   UNL     1       5.655   7.395  17.557  0.00  0.00    +0.000 OA
BRANCH  19  21
ATOM     21  O   UNL     1       4.971   6.229  15.722  0.00  0.00    +0.000 OA
BRANCH  21  23
ATOM     22  C   UNL     1       5.745   4.114  14.743  0.00  0.00    +0.000 C 
ATOM     23  C   UNL     1       6.100   5.528  15.177  0.00  0.00    +0.000 C 
ENDBRANCH  21  23
ENDBRANCH  19  21
ENDBRANCH   1  19
TORSDOF 5
ENDMDL
MODEL 6
REMARK VINA RESULT:      -6.3      3.213      5.414
REMARK  Name = 
REMARK  8 active torsions:
REMARK  status: ('A' for Active; 'I' for Inactive)
REMARK    1  A    between atoms: C_1  and  C_2
REMARK    2  A    between atoms: C_2  and  O_3
REMARK    3  A    between atoms: O_3  and  C_4
REMARK    4  A    between atoms: C_4  and  C_6
REMARK    5  A    between atoms: C_7  and  C_8
REMARK    6  A    between atoms: N_9  and  C_10
REMARK    7  A    between atoms: C_14  and  C_15
REMARK    8  A    between atoms: C_19  and  O_20
REMARK                            x       y       z     vdW  Elec       q    Type
REMARK                         _______ _______ _______ _____ _____    ______ ____
ROOT
ATOM      1  C   UNL     1       4.417   4.779  16.752  0.00  0.00    +0.000 C 
ATOM      2  C   UNL     1       3.426   4.126  17.407  0.00  0.00    +0.000 C 
ATOM      3  C   UNL     1       3.166   2.638  17.278  0.00  0.00    +0.000 C 
ATOM      4  N   UNL     1       2.567   4.849  18.271  0.00  0.00    +0.000 N 
ATOM      5  C   UNL     1       1.483   4.160  18.995  0.00  0.00    +0.000 C 
ATOM      6  C   UNL     1       2.676   6.233  18.441  0.00  0.00    +0.000 C 
ATOM      7  S   UNL     1       1.739   7.210  19.435  0.00  0.00    +0.000 S 
ATOM      8  N   UNL     1       3.632   6.872  17.723  0.00  0.00    +0.000 N 
ATOM      9  C   UNL     1       4.679   6.244  16.949  0.00  0.00    +0.000 C 
ATOM     10  H   UNL     1       3.710   7.866  17.890  0.00  0.00    +0.000 HD
ENDROOT
BRANCH   9  11
ATOM     11  C   UNL     1       6.029   6.540  17.594  0.00  0.00    +0.000 A 
ATOM     12  C   UNL     1       6.838   7.596  17.147  0.00  0.00    +0.000 A 
ATOM     13  C   UNL     1       8.046   7.886  17.787  0.00  0.00    +0.000 A 
ATOM     14  C   UNL     1       8.458   7.128  18.882  0.00  0.00    +0.000 A 
ATOM     15  C   UNL     1       7.666   6.072  19.317  0.00  0.00    +0.000 A 
ATOM     16  C   UNL     1       6.469   5.767  18.680  0.00  0.00    +0.000 A 
BRANCH  15  17
ATOM     17  O   UNL     1       8.023   5.308  20.389  0.00  0.00    +0.000 OA
ATOM     18  H   UNL     1       7.635   5.699  21.189  0.00  0.00    +0.000 HD
ENDBRANCH  15  17
ENDBRANCH   9  11
BRANCH   1  19
ATOM     19  C   UNL     1       5.359   4.098  15.808  0.00  0.00    +0.000 C 
ATOM     20  O   UNL     1       6.333   3.440  16.136  0.00  0.00    +0.000 OA
BRANCH  19  21
ATOM     21  O   UNL     1       4.989   4.314  14.516  0.00  0.00    +0.000 OA
BRANCH  21  23
ATOM     22  C   UNL     1       5.193   3.461  12.221  0.00  0.00    +0.000 C 
ATOM     23  C   UNL     1       5.901   3.826  13.517  0.00  0.00    +0.000 C 
ENDBRANCH  21  23
ENDBRANCH  19  21
ENDBRANCH   1  19
TORSDOF 5
ENDMDL
MODEL 7
REMARK VINA RESULT:      -6.3      2.669      4.732
REMARK  Name = 
REMARK  8 active torsions:
REMARK  status: ('A' for Active; 'I' for Inactive)
REMARK    1  A    between atoms: C_1  and  C_2
REMARK    2  A    between atoms: C_2  and  O_3
REMARK    3  A    between atoms: O_3  and  C_4
REMARK    4  A    between atoms: C_4  and  C_6
REMARK    5  A    between atoms: C_7  and  C_8
REMARK    6  A    between atoms: N_9  and  C_10
REMARK    7  A    between atoms: C_14  and  C_15
REMARK    8  A    between atoms: C_19  and  O_20
REMARK                            x       y       z     vdW  Elec       q    Type
REMARK                         _______ _______ _______ _____ _____    ______ ____
ROOT
ATOM      1  C   UNL     1       3.253   4.850  18.888  0.00  0.00    +0.000 C 
ATOM      2  C   UNL     1       2.612   5.450  19.921  0.00  0.00    +0.000 C 
ATOM      3  C   UNL     1       2.347   4.781  21.255  0.00  0.00    +0.000 C 
ATOM      4  N   UNL     1       2.151   6.782  19.776  0.00  0.00    +0.000 N 
ATOM      5  C   UNL     1       1.451   7.457  20.885  0.00  0.00    +0.000 C 
ATOM      6  C   UNL     1       2.295   7.493  18.580  0.00  0.00    +0.000 C 
ATOM      7  S   UNL     1       1.809   9.071  18.272  0.00  0.00    +0.000 S 
ATOM      8  N   UNL     1       2.879   6.846  17.542  0.00  0.00    +0.000 N 
ATOM      9  C   UNL     1       3.546   5.566  17.602  0.00  0.00    +0.000 C 
ATOM     10  H   UNL     1       3.000   7.394  16.701  0.00  0.00    +0.000 HD
ENDROOT
BRANCH   9  11
ATOM     11  C   UNL     1       5.037   5.762  17.340  0.00  0.00    +0.000 A 
ATOM     12  C   UNL     1       5.903   6.218  18.346  0.00  0.00    +0.000 A 
ATOM     13  C   UNL     1       7.274   6.337  18.103  0.00  0.00    +0.000 A 
ATOM     14  C   UNL     1       7.796   5.999  16.855  0.00  0.00    +0.000 A 
ATOM     15  C   UNL     1       6.938   5.561  15.853  0.00  0.00    +0.000 A 
ATOM     16  C   UNL     1       5.571   5.452  16.080  0.00  0.00    +0.000 A 
BRANCH  15  17
ATOM     17  O   UNL     1       7.403   5.211  14.620  0.00  0.00    +0.000 OA
ATOM     18  H   UNL     1       8.367   5.326  14.610  0.00  0.00    +0.000 HD
ENDBRANCH  15  17
ENDBRANCH   9  11
BRANCH   1  19
ATOM     19  C   UNL     1       3.758   3.442  18.949  0.00  0.00    +0.000 C 
ATOM     20  O   UNL     1       4.747   3.073  19.561  0.00  0.00    +0.000 OA
BRANCH  19  21
ATOM     21  O   UNL     1       2.965   2.612  18.218  0.00  0.00    +0.000 OA
BRANCH  21  23
ATOM     22  C   UNL     1       0.602   2.414  18.860  0.00  0.00    +0.000 C 
ATOM     23  C   UNL     1       2.008   1.845  18.968  0.00  0.00    +0.000 C 
ENDBRANCH  21  23
ENDBRANCH  19  21
ENDBRANCH   1  19
TORSDOF 5
ENDMDL
MODEL 8
REMARK VINA RESULT:      -6.3      2.876      4.401
REMARK  Name = 
REMARK  8 active torsions:
REMARK  status: ('A' for Active; 'I' for Inactive)
REMARK    1  A    between atoms: C_1  and  C_2
REMARK    2  A    between atoms: C_2  and  O_3
REMARK    3  A    between atoms: O_3  and  C_4
REMARK    4  A    between atoms: C_4  and  C_6
REMARK    5  A    between atoms: C_7  and  C_8
REMARK    6  A    between atoms: N_9  and  C_10
REMARK    7  A    between atoms: C_14  and  C_15
REMARK    8  A    between atoms: C_19  and  O_20
REMARK                            x       y       z     vdW  Elec       q    Type
REMARK                         _______ _______ _______ _____ _____    ______ ____
ROOT
ATOM      1  C   UNL     1       4.287   5.555  17.696  0.00  0.00    +0.000 C 
ATOM      2  C   UNL     1       4.831   4.523  18.388  0.00  0.00    +0.000 C 
ATOM      3  C   UNL     1       6.322   4.285  18.516  0.00  0.00    +0.000 C 
ATOM      4  N   UNL     1       3.980   3.597  19.042  0.00  0.00    +0.000 N 
ATOM      5  C   UNL     1       4.548   2.468  19.801  0.00  0.00    +0.000 C 
ATOM      6  C   UNL     1       2.586   3.682  18.963  0.00  0.00    +0.000 C 
ATOM      7  S   UNL     1       1.464   2.667  19.691  0.00  0.00    +0.000 S 
ATOM      8  N   UNL     1       2.069   4.683  18.209  0.00  0.00    +0.000 N 
ATOM      9  C   UNL     1       2.805   5.789  17.640  0.00  0.00    +0.000 C 
ATOM     10  H   UNL     1       1.060   4.741  18.196  0.00  0.00    +0.000 HD
ENDROOT
BRANCH   9  11
ATOM     11  C   UNL     1       2.368   7.086  18.314  0.00  0.00    +0.000 A 
ATOM     12  C   UNL     1       2.081   8.239  17.566  0.00  0.00    +0.000 A 
ATOM     13  C   UNL     1       1.628   9.400  18.197  0.00  0.00    +0.000 A 
ATOM     14  C   UNL     1       1.453   9.424  19.580  0.00  0.00    +0.000 A 
ATOM     15  C   UNL     1       1.751   8.288  20.325  0.00  0.00    +0.000 A 
ATOM     16  C   UNL     1       2.215   7.131  19.708  0.00  0.00    +0.000 A 
BRANCH  15  17
ATOM     17  O   UNL     1       1.587   8.260  21.678  0.00  0.00    +0.000 OA
ATOM     18  H   UNL     1       0.765   8.726  21.899  0.00  0.00    +0.000 HD
ENDBRANCH  15  17
ENDBRANCH   9  11
BRANCH   1  19
ATOM     19  C   UNL     1       5.109   6.569  16.963  0.00  0.00    +0.000 C 
ATOM     20  O   UNL     1       5.058   6.783  15.763  0.00  0.00    +0.000 OA
BRANCH  19  21
ATOM     21  O   UNL     1       5.939   7.227  17.817  0.00  0.00    +0.000 OA
BRANCH  21  23
ATOM     22  C   UNL     1       7.917   8.683  17.775  0.00  0.00    +0.000 C 
ATOM     23  C   UNL     1       7.306   7.344  17.389  0.00  0.00    +0.000 C 
ENDBRANCH  21  23
ENDBRANCH  19  21
ENDBRANCH   1  19
TORSDOF 5
ENDMDL
MODEL 9
REMARK VINA RESULT:      -6.2      2.534      4.854
REMARK  Name = 
REMARK  8 active torsions:
REMARK  status: ('A' for Active; 'I' for Inactive)
REMARK    1  A    between atoms: C_1  and  C_2
REMARK    2  A    between atoms: C_2  and  O_3
REMARK    3  A    between atoms: O_3  and  C_4
REMARK    4  A    between atoms: C_4  and  C_6
REMARK    5  A    between atoms: C_7  and  C_8
REMARK    6  A    between atoms: N_9  and  C_10
REMARK    7  A    between atoms: C_14  and  C_15
REMARK    8  A    between atoms: C_19  and  O_20
REMARK                            x       y       z     vdW  Elec       q    Type
REMARK                         _______ _______ _______ _____ _____    ______ ____
ROOT
ATOM      1  C   UNL     1       3.190   4.322  19.148  0.00  0.00    +0.000 C 
ATOM      2  C   UNL     1       2.566   5.102  20.066  0.00  0.00    +0.000 C 
ATOM      3  C   UNL     1       2.139   4.616  21.436  0.00  0.00    +0.000 C 
ATOM      4  N   UNL     1       2.285   6.455  19.754  0.00  0.00    +0.000 N 
ATOM      5  C   UNL     1       1.608   7.323  20.736  0.00  0.00    +0.000 C 
ATOM      6  C   UNL     1       2.589   7.011  18.508  0.00  0.00    +0.000 C 
ATOM      7  S   UNL     1       2.323   8.593  18.009  0.00  0.00    +0.000 S 
ATOM      8  N   UNL     1       3.150   6.192  17.585  0.00  0.00    +0.000 N 
ATOM      9  C   UNL     1       3.648   4.856  17.822  0.00  0.00    +0.000 C 
ATOM     10  H   UNL     1       3.389   6.627  16.705  0.00  0.00    +0.000 HD
ENDROOT
BRANCH   9  11
ATOM     11  C   UNL     1       5.164   4.845  17.653  0.00  0.00    +0.000 A 
ATOM     12  C   UNL     1       5.766   4.366  16.479  0.00  0.00    +0.000 A 
ATOM     13  C   UNL     1       7.153   4.416  16.320  0.00  0.00    +0.000 A 
ATOM     14  C   UNL     1       7.955   4.948  17.329  0.00  0.00    +0.000 A 
ATOM     15  C   UNL     1       7.362   5.410  18.499  0.00  0.00    +0.000 A 
ATOM     16  C   UNL     1       5.984   5.352  18.672  0.00  0.00    +0.000 A 
BRANCH  15  17
ATOM     17  O   UNL     1       8.104   5.946  19.509  0.00  0.00    +0.000 OA
ATOM     18  H   UNL     1       8.369   6.845  19.253  0.00  0.00    +0.000 HD
ENDBRANCH  15  17
ENDBRANCH   9  11
BRANCH   1  19
ATOM     19  C   UNL     1       3.510   2.879  19.386  0.00  0.00    +0.000 C 
ATOM     20  O   UNL     1       4.343   2.462  20.174  0.00  0.00    +0.000 OA
BRANCH  19  21
ATOM     21  O   UNL     1       2.747   2.078  18.594  0.00  0.00    +0.000 OA
BRANCH  21  23
ATOM     22  C   UNL     1       0.349   2.581  18.771  0.00  0.00    +0.000 C 
ATOM     23  C   UNL     1       1.494   1.656  19.157  0.00  0.00    +0.000 C 
ENDBRANCH  21  23
ENDBRANCH  19  21
ENDBRANCH   1  19
TORSDOF 5
ENDMDL
