MODEL 1
REMARK VINA RESULT:      -8.0      0.000      0.000
REMARK  Name = 
REMARK  3 active torsions:
REMARK  status: ('A' for Active; 'I' for Inactive)
REMARK    1  A    between atoms: C_1  and  C_2
REMARK    2  A    between atoms: C_5  and  C_6
REMARK    3  A    between atoms: C_13  and  C_14
REMARK                            x       y       z     vdW  Elec       q    Type
REMARK                         _______ _______ _______ _____ _____    ______ ____
ROOT
ATOM      1  C   UNL     1       6.228   4.485  17.178  0.00  0.00    +0.000 A 
ATOM      2  N   UNL     1       6.976   4.028  18.238  0.00  0.00    +0.000 NA
ATOM      3  C   UNL     1       6.129   3.940  19.239  0.00  0.00    +0.000 A 
ATOM      4  N   UNL     1       4.849   4.304  18.883  0.00  0.00    +0.000 N 
ATOM      5  C   UNL     1       4.903   4.638  17.545  0.00  0.00    +0.000 A 
ATOM      6  C   UNL     1       3.684   4.958  16.774  0.00  0.00    +0.000 C 
ATOM      7  N   UNL     1       3.086   6.176  17.286  0.00  0.00    +0.000 NA
ATOM      8  C   UNL     1       2.578   6.201  18.471  0.00  0.00    +0.000 C 
ATOM      9  C   UNL     1       2.557   5.040  19.422  0.00  0.00    +0.000 A 
ATOM     10  C   UNL     1       1.375   4.821  20.153  0.00  0.00    +0.000 A 
ATOM     11  C   UNL     1       1.339   3.886  21.185  0.00  0.00    +0.000 A 
ATOM     12  C   UNL     1       2.480   3.152  21.497  0.00  0.00    +0.000 A 
ATOM     13  C   UNL     1       3.648   3.327  20.754  0.00  0.00    +0.000 A 
ATOM     14  C   UNL     1       3.686   4.246  19.692  0.00  0.00    +0.000 A 
ENDROOT
BRANCH   1  19
ATOM     15  C   UNL     1       7.093   4.358  12.344  0.00  0.00    +0.000 C 
ATOM     16  C   UNL     1       7.226   4.714  13.769  0.00  0.00    +0.000 A 
ATOM     17  N   UNL     1       7.964   5.741  14.197  0.00  0.00    +0.000 NA
ATOM     18  O   UNL     1       7.687   5.777  15.568  0.00  0.00    +0.000 OA
ATOM     19  C   UNL     1       6.813   4.748  15.826  0.00  0.00    +0.000 A 
ATOM     20  N   UNL     1       6.536   4.049  14.743  0.00  0.00    +0.000 NA
ENDBRANCH   1  19
BRANCH   8  21
ATOM     21  C   UNL     1       1.985   7.508  18.918  0.00  0.00    +0.000 A 
ATOM     22  C   UNL     1       1.735   8.504  17.965  0.00  0.00    +0.000 A 
ATOM     23  C   UNL     1       1.191   9.731  18.354  0.00  0.00    +0.000 A 
ATOM     24  C   UNL     1       0.899   9.969  19.696  0.00  0.00    +0.000 A 
ATOM     25  C   UNL     1       1.160   8.989  20.653  0.00  0.00    +0.000 A 
ATOM     26  C   UNL     1       1.711   7.764  20.269  0.00  0.00    +0.000 A 
ENDBRANCH   8  21
TORSDOF 2
ENDMDL
MODEL 2
REMARK VINA RESULT:      -7.6      6.348     10.863
REMARK  Name = 
REMARK  3 active torsions:
REMARK  status: ('A' for Active; 'I' for Inactive)
REMARK    1  A    between atoms: C_1  and  C_2
REMARK    2  A    between atoms: C_5  and  C_6
REMARK    3  A    between atoms: C_13  and  C_14
REMARK                            x       y       z     vdW  Elec       q    Type
REMARK                         _______ _______ _______ _____ _____    ______ ____
ROOT
ATOM      1  C   UNL     1      -2.882  13.082  20.803  0.00  0.00    +0.000 A 
ATOM      2  N   UNL     1      -2.380  13.939  21.755  0.00  0.00    +0.000 NA
ATOM      3  C   UNL     1      -1.103  14.054  21.470  0.00  0.00    +0.000 A 
ATOM      4  N   UNL     1      -0.741  13.323  20.359  0.00  0.00    +0.000 N 
ATOM      5  C   UNL     1      -1.892  12.708  19.912  0.00  0.00    +0.000 A 
ATOM      6  C   UNL     1      -1.922  11.937  18.652  0.00  0.00    +0.000 C 
ATOM      7  N   UNL     1      -1.075  10.767  18.774  0.00  0.00    +0.000 NA
ATOM      8  C   UNL     1       0.203  10.899  18.889  0.00  0.00    +0.000 C 
ATOM      9  C   UNL     1       0.931  12.211  18.925  0.00  0.00    +0.000 A 
ATOM     10  C   UNL     1       2.131  12.307  18.197  0.00  0.00    +0.000 A 
ATOM     11  C   UNL     1       2.957  13.422  18.329  0.00  0.00    +0.000 A 
ATOM     12  C   UNL     1       2.593  14.458  19.185  0.00  0.00    +0.000 A 
ATOM     13  C   UNL     1       1.385  14.397  19.883  0.00  0.00    +0.000 A 
ATOM     14  C   UNL     1       0.531  13.291  19.733  0.00  0.00    +0.000 A 
ENDROOT
BRANCH   1  19
ATOM     15  C   UNL     1      -7.297  11.619  19.223  0.00  0.00    +0.000 C 
ATOM     16  C   UNL     1      -6.221  12.046  20.136  0.00  0.00    +0.000 A 
ATOM     17  N   UNL     1      -6.302  11.921  21.464  0.00  0.00    +0.000 NA
ATOM     18  O   UNL     1      -5.030  12.318  21.893  0.00  0.00    +0.000 OA
ATOM     19  C   UNL     1      -4.316  12.657  20.769  0.00  0.00    +0.000 A 
ATOM     20  N   UNL     1      -5.034  12.535  19.670  0.00  0.00    +0.000 NA
ENDBRANCH   1  19
BRANCH   8  21
ATOM     21  C   UNL     1       1.000   9.630  19.016  0.00  0.00    +0.000 A 
ATOM     22  C   UNL     1       1.597   9.085  17.872  0.00  0.00    +0.000 A 
ATOM     23  C   UNL     1       2.338   7.904  17.959  0.00  0.00    +0.000 A 
ATOM     24  C   UNL     1       2.481   7.261  19.188  0.00  0.00    +0.000 A 
ATOM     25  C   UNL     1       1.876   7.789  20.328  0.00  0.00    +0.000 A 
ATOM     26  C   UNL     1       1.128   8.965  20.243  0.00  0.00    +0.000 A 
ENDBRANCH   8  21
TORSDOF 2
ENDMDL
MODEL 3
REMARK VINA RESULT:      -7.6      6.640     10.364
REMARK  Name = 
REMARK  3 active torsions:
REMARK  status: ('A' for Active; 'I' for Inactive)
REMARK    1  A    between atoms: C_1  and  C_2
REMARK    2  A    between atoms: C_5  and  C_6
REMARK    3  A    between atoms: C_13  and  C_14
REMARK                            x       y       z     vdW  Elec       q    Type
REMARK                         _______ _______ _______ _____ _____    ______ ____
ROOT
ATOM      1  C   UNL     1      -1.015  11.920  22.787  0.00  0.00    +0.000 A 
ATOM      2  N   UNL     1      -0.830  10.754  23.492  0.00  0.00    +0.000 NA
ATOM      3  C   UNL     1      -0.380   9.891  22.610  0.00  0.00    +0.000 A 
ATOM      4  N   UNL     1      -0.242  10.440  21.355  0.00  0.00    +0.000 N 
ATOM      5  C   UNL     1      -0.633  11.759  21.467  0.00  0.00    +0.000 A 
ATOM      6  C   UNL     1      -0.496  12.708  20.343  0.00  0.00    +0.000 C 
ATOM      7  N   UNL     1      -1.368  12.308  19.256  0.00  0.00    +0.000 NA
ATOM      8  C   UNL     1      -1.143  11.214  18.612  0.00  0.00    +0.000 C 
ATOM      9  C   UNL     1      -0.019  10.261  18.904  0.00  0.00    +0.000 A 
ATOM     10  C   UNL     1       0.668   9.714  17.805  0.00  0.00    +0.000 A 
ATOM     11  C   UNL     1       1.592   8.686  17.984  0.00  0.00    +0.000 A 
ATOM     12  C   UNL     1       1.847   8.196  19.262  0.00  0.00    +0.000 A 
ATOM     13  C   UNL     1       1.205   8.757  20.367  0.00  0.00    +0.000 A 
ATOM     14  C   UNL     1       0.294   9.814  20.200  0.00  0.00    +0.000 A 
ENDROOT
BRANCH   1  19
ATOM     15  C   UNL     1      -4.046  15.299  24.665  0.00  0.00    +0.000 C 
ATOM     16  C   UNL     1      -2.803  14.648  24.211  0.00  0.00    +0.000 A 
ATOM     17  N   UNL     1      -1.587  15.102  24.528  0.00  0.00    +0.000 NA
ATOM     18  O   UNL     1      -0.740  14.116  24.007  0.00  0.00    +0.000 OA
ATOM     19  C   UNL     1      -1.543  13.172  23.413  0.00  0.00    +0.000 A 
ATOM     20  N   UNL     1      -2.820  13.488  23.490  0.00  0.00    +0.000 NA
ENDBRANCH   1  19
BRANCH   8  21
ATOM     21  C   UNL     1      -2.102  10.878  17.505  0.00  0.00    +0.000 A 
ATOM     22  C   UNL     1      -3.315  11.574  17.420  0.00  0.00    +0.000 A 
ATOM     23  C   UNL     1      -4.228  11.277  16.405  0.00  0.00    +0.000 A 
ATOM     24  C   UNL     1      -3.935  10.283  15.473  0.00  0.00    +0.000 A 
ATOM     25  C   UNL     1      -2.736   9.575  15.560  0.00  0.00    +0.000 A 
ATOM     26  C   UNL     1      -1.825   9.863  16.578  0.00  0.00    +0.000 A 
ENDBRANCH   8  21
TORSDOF 2
ENDMDL
MODEL 4
REMARK VINA RESULT:      -7.4      6.788     10.418
REMARK  Name = 
REMARK  3 active torsions:
REMARK  status: ('A' for Active; 'I' for Inactive)
REMARK    1  A    between atoms: C_1  and  C_2
REMARK    2  A    between atoms: C_5  and  C_6
REMARK    3  A    between atoms: C_13  and  C_14
REMARK                            x       y       z     vdW  Elec       q    Type
REMARK                         _______ _______ _______ _____ _____    ______ ____
ROOT
ATOM      1  C   UNL     1      -1.122  11.900  22.850  0.00  0.00    +0.000 A 
ATOM      2  N   UNL     1      -0.897  10.729  23.535  0.00  0.00    +0.000 NA
ATOM      3  C   UNL     1      -0.430   9.893  22.636  0.00  0.00    +0.000 A 
ATOM      4  N   UNL     1      -0.319  10.466  21.388  0.00  0.00    +0.000 N 
ATOM      5  C   UNL     1      -0.747  11.770  21.525  0.00  0.00    +0.000 A 
ATOM      6  C   UNL     1      -0.648  12.741  20.415  0.00  0.00    +0.000 C 
ATOM      7  N   UNL     1      -1.518  12.333  19.330  0.00  0.00    +0.000 NA
ATOM      8  C   UNL     1      -1.266  11.256  18.666  0.00  0.00    +0.000 C 
ATOM      9  C   UNL     1      -0.113  10.332  18.933  0.00  0.00    +0.000 A 
ATOM     10  C   UNL     1       0.580   9.822  17.820  0.00  0.00    +0.000 A 
ATOM     11  C   UNL     1       1.535   8.819  17.975  0.00  0.00    +0.000 A 
ATOM     12  C   UNL     1       1.816   8.317  19.242  0.00  0.00    +0.000 A 
ATOM     13  C   UNL     1       1.167   8.842  20.361  0.00  0.00    +0.000 A 
ATOM     14  C   UNL     1       0.224   9.874  20.219  0.00  0.00    +0.000 A 
ENDROOT
BRANCH   1  19
ATOM     15  C   UNL     1      -1.574  16.430  24.694  0.00  0.00    +0.000 C 
ATOM     16  C   UNL     1      -1.912  15.047  24.313  0.00  0.00    +0.000 A 
ATOM     17  N   UNL     1      -3.163  14.577  24.316  0.00  0.00    +0.000 NA
ATOM     18  O   UNL     1      -3.018  13.298  23.766  0.00  0.00    +0.000 OA
ATOM     19  C   UNL     1      -1.680  13.126  23.501  0.00  0.00    +0.000 A 
ATOM     20  N   UNL     1      -0.965  14.173  23.861  0.00  0.00    +0.000 NA
ENDBRANCH   1  19
BRANCH   8  21
ATOM     21  C   UNL     1      -2.225  10.909  17.561  0.00  0.00    +0.000 A 
ATOM     22  C   UNL     1      -1.877   9.905  16.649  0.00  0.00    +0.000 A 
ATOM     23  C   UNL     1      -2.746   9.567  15.608  0.00  0.00    +0.000 A 
ATOM     24  C   UNL     1      -3.963  10.233  15.473  0.00  0.00    +0.000 A 
ATOM     25  C   UNL     1      -4.310  11.244  16.369  0.00  0.00    +0.000 A 
ATOM     26  C   UNL     1      -3.440  11.590  17.405  0.00  0.00    +0.000 A 
ENDBRANCH   8  21
TORSDOF 2
ENDMDL
MODEL 5
REMARK VINA RESULT:      -7.4      9.364     12.303
REMARK  Name = 
REMARK  3 active torsions:
REMARK  status: ('A' for Active; 'I' for Inactive)
REMARK    1  A    between atoms: C_1  and  C_2
REMARK    2  A    between atoms: C_5  and  C_6
REMARK    3  A    between atoms: C_13  and  C_14
REMARK                            x       y       z     vdW  Elec       q    Type
REMARK                         _______ _______ _______ _____ _____    ______ ____
ROOT
ATOM      1  C   UNL     1       5.125  15.766  19.243  0.00  0.00    +0.000 A 
ATOM      2  N   UNL     1       5.231  16.895  20.022  0.00  0.00    +0.000 NA
ATOM      3  C   UNL     1       6.450  17.339  19.814  0.00  0.00    +0.000 A 
ATOM      4  N   UNL     1       7.150  16.562  18.918  0.00  0.00    +0.000 N 
ATOM      5  C   UNL     1       6.291  15.555  18.530  0.00  0.00    +0.000 A 
ATOM      6  C   UNL     1       6.651  14.593  17.467  0.00  0.00    +0.000 C 
ATOM      7  N   UNL     1       7.770  13.779  17.902  0.00  0.00    +0.000 NA
ATOM      8  C   UNL     1       8.930  14.313  18.080  0.00  0.00    +0.000 C 
ATOM      9  C   UNL     1       9.246  15.768  17.885  0.00  0.00    +0.000 A 
ATOM     10  C   UNL     1      10.456  16.089  17.244  0.00  0.00    +0.000 A 
ATOM     11  C   UNL     1      10.907  17.407  17.194  0.00  0.00    +0.000 A 
ATOM     12  C   UNL     1      10.153  18.422  17.776  0.00  0.00    +0.000 A 
ATOM     13  C   UNL     1       8.930  18.126  18.380  0.00  0.00    +0.000 A 
ATOM     14  C   UNL     1       8.452  16.804  18.409  0.00  0.00    +0.000 A 
ENDROOT
BRANCH   1  19
ATOM     15  C   UNL     1       1.377  12.872  20.548  0.00  0.00    +0.000 C 
ATOM     16  C   UNL     1       2.280  13.678  19.707  0.00  0.00    +0.000 A 
ATOM     17  N   UNL     1       1.973  14.054  18.462  0.00  0.00    +0.000 NA
ATOM     18  O   UNL     1       3.037  14.895  18.117  0.00  0.00    +0.000 OA
ATOM     19  C   UNL     1       3.888  14.926  19.196  0.00  0.00    +0.000 A 
ATOM     20  N   UNL     1       3.468  14.157  20.181  0.00  0.00    +0.000 NA
ENDBRANCH   1  19
BRANCH   8  21
ATOM     21  C   UNL     1      10.029  13.393  18.536  0.00  0.00    +0.000 A 
ATOM     22  C   UNL     1      10.609  12.515  17.612  0.00  0.00    +0.000 A 
ATOM     23  C   UNL     1      11.626  11.645  18.009  0.00  0.00    +0.000 A 
ATOM     24  C   UNL     1      12.066  11.646  19.332  0.00  0.00    +0.000 A 
ATOM     25  C   UNL     1      11.483  12.506  20.262  0.00  0.00    +0.000 A 
ATOM     26  C   UNL     1      10.460  13.372  19.869  0.00  0.00    +0.000 A 
ENDBRANCH   8  21
TORSDOF 2
ENDMDL
MODEL 6
REMARK VINA RESULT:      -7.4      6.314     10.929
REMARK  Name = 
REMARK  3 active torsions:
REMARK  status: ('A' for Active; 'I' for Inactive)
REMARK    1  A    between atoms: C_1  and  C_2
REMARK    2  A    between atoms: C_5  and  C_6
REMARK    3  A    between atoms: C_13  and  C_14
REMARK                            x       y       z     vdW  Elec       q    Type
REMARK                         _______ _______ _______ _____ _____    ______ ____
ROOT
ATOM      1  C   UNL     1      -3.247  12.877  20.228  0.00  0.00    +0.000 A 
ATOM      2  N   UNL     1      -2.881  13.753  21.225  0.00  0.00    +0.000 NA
ATOM      3  C   UNL     1      -1.583  13.902  21.087  0.00  0.00    +0.000 A 
ATOM      4  N   UNL     1      -1.076  13.176  20.031  0.00  0.00    +0.000 N 
ATOM      5  C   UNL     1      -2.152  12.527  19.460  0.00  0.00    +0.000 A 
ATOM      6  C   UNL     1      -2.015  11.750  18.210  0.00  0.00    +0.000 C 
ATOM      7  N   UNL     1      -1.157  10.604  18.439  0.00  0.00    +0.000 NA
ATOM      8  C   UNL     1       0.095  10.772  18.698  0.00  0.00    +0.000 C 
ATOM      9  C   UNL     1       0.778  12.104  18.807  0.00  0.00    +0.000 A 
ATOM     10  C   UNL     1       2.051  12.230  18.220  0.00  0.00    +0.000 A 
ATOM     11  C   UNL     1       2.826  13.368  18.437  0.00  0.00    +0.000 A 
ATOM     12  C   UNL     1       2.338  14.397  19.237  0.00  0.00    +0.000 A 
ATOM     13  C   UNL     1       1.061  14.307  19.793  0.00  0.00    +0.000 A 
ATOM     14  C   UNL     1       0.259  13.176  19.555  0.00  0.00    +0.000 A 
ENDROOT
BRANCH   1  19
ATOM     15  C   UNL     1      -7.872  11.463  21.086  0.00  0.00    +0.000 C 
ATOM     16  C   UNL     1      -6.634  11.790  20.356  0.00  0.00    +0.000 A 
ATOM     17  N   UNL     1      -6.591  11.948  19.030  0.00  0.00    +0.000 NA
ATOM     18  O   UNL     1      -5.276  12.373  18.808  0.00  0.00    +0.000 OA
ATOM     19  C   UNL     1      -4.656  12.413  20.034  0.00  0.00    +0.000 A 
ATOM     20  N   UNL     1      -5.456  12.024  21.007  0.00  0.00    +0.000 NA
ENDBRANCH   1  19
BRANCH   8  21
ATOM     21  C   UNL     1       0.906   9.527  18.925  0.00  0.00    +0.000 A 
ATOM     22  C   UNL     1       1.031   9.024  20.227  0.00  0.00    +0.000 A 
ATOM     23  C   UNL     1       1.784   7.873  20.468  0.00  0.00    +0.000 A 
ATOM     24  C   UNL     1       2.418   7.221  19.411  0.00  0.00    +0.000 A 
ATOM     25  C   UNL     1       2.310   7.723  18.115  0.00  0.00    +0.000 A 
ATOM     26  C   UNL     1       1.565   8.879  17.872  0.00  0.00    +0.000 A 
ENDBRANCH   8  21
TORSDOF 2
ENDMDL
MODEL 7
REMARK VINA RESULT:      -7.2      6.764     11.258
REMARK  Name = 
REMARK  3 active torsions:
REMARK  status: ('A' for Active; 'I' for Inactive)
REMARK    1  A    between atoms: C_1  and  C_2
REMARK    2  A    between atoms: C_5  and  C_6
REMARK    3  A    between atoms: C_13  and  C_14
REMARK                            x       y       z     vdW  Elec       q    Type
REMARK                         _______ _______ _______ _____ _____    ______ ____
ROOT
ATOM      1  C   UNL     1      -3.102  12.920  22.150  0.00  0.00    +0.000 A 
ATOM      2  N   UNL     1      -2.615  13.398  23.345  0.00  0.00    +0.000 NA
ATOM      3  C   UNL     1      -1.327  13.560  23.147  0.00  0.00    +0.000 A 
ATOM      4  N   UNL     1      -0.942  13.226  21.867  0.00  0.00    +0.000 N 
ATOM      5  C   UNL     1      -2.090  12.831  21.211  0.00  0.00    +0.000 A 
ATOM      6  C   UNL     1      -2.092  12.521  19.766  0.00  0.00    +0.000 C 
ATOM      7  N   UNL     1      -1.276  11.349  19.516  0.00  0.00    +0.000 NA
ATOM      8  C   UNL     1      -0.000  11.395  19.701  0.00  0.00    +0.000 C 
ATOM      9  C   UNL     1       0.754  12.598  20.188  0.00  0.00    +0.000 A 
ATOM     10  C   UNL     1       1.981  12.892  19.564  0.00  0.00    +0.000 A 
ATOM     11  C   UNL     1       2.825  13.873  20.080  0.00  0.00    +0.000 A 
ATOM     12  C   UNL     1       2.454  14.579  21.221  0.00  0.00    +0.000 A 
ATOM     13  C   UNL     1       1.222  14.329  21.828  0.00  0.00    +0.000 A 
ATOM     14  C   UNL     1       0.350  13.362  21.298  0.00  0.00    +0.000 A 
ENDROOT
BRANCH   1  19
ATOM     15  C   UNL     1      -7.367  11.703  20.039  0.00  0.00    +0.000 C 
ATOM     16  C   UNL     1      -6.388  12.071  21.078  0.00  0.00    +0.000 A 
ATOM     17  N   UNL     1      -6.636  11.954  22.385  0.00  0.00    +0.000 NA
ATOM     18  O   UNL     1      -5.406  12.280  22.968  0.00  0.00    +0.000 OA
ATOM     19  C   UNL     1      -4.543  12.576  21.940  0.00  0.00    +0.000 A 
ATOM     20  N   UNL     1      -5.128  12.492  20.762  0.00  0.00    +0.000 NA
ENDBRANCH   1  19
BRANCH   8  21
ATOM     21  C   UNL     1       0.764  10.131  19.420  0.00  0.00    +0.000 A 
ATOM     22  C   UNL     1       0.977   9.220  20.462  0.00  0.00    +0.000 A 
ATOM     23  C   UNL     1       1.690   8.040  20.232  0.00  0.00    +0.000 A 
ATOM     24  C   UNL     1       2.196   7.769  18.962  0.00  0.00    +0.000 A 
ATOM     25  C   UNL     1       2.001   8.679  17.923  0.00  0.00    +0.000 A 
ATOM     26  C   UNL     1       1.296   9.863  18.152  0.00  0.00    +0.000 A 
ENDBRANCH   8  21
TORSDOF 2
ENDMDL
MODEL 8
REMARK VINA RESULT:      -7.1      3.616      6.607
REMARK  Name = 
REMARK  3 active torsions:
REMARK  status: ('A' for Active; 'I' for Inactive)
REMARK    1  A    between atoms: C_1  and  C_2
REMARK    2  A    between atoms: C_5  and  C_6
REMARK    3  A    between atoms: C_13  and  C_14
REMARK                            x       y       z     vdW  Elec       q    Type
REMARK                         _______ _______ _______ _____ _____    ______ ____
ROOT
ATOM      1  C   UNL     1       1.978   7.823  19.625  0.00  0.00    +0.000 A 
ATOM      2  N   UNL     1       1.758   7.477  20.938  0.00  0.00    +0.000 NA
ATOM      3  C   UNL     1       1.132   8.507  21.462  0.00  0.00    +0.000 A 
ATOM      4  N   UNL     1       0.913   9.514  20.547  0.00  0.00    +0.000 N 
ATOM      5  C   UNL     1       1.441   9.068  19.352  0.00  0.00    +0.000 A 
ATOM      6  C   UNL     1       1.276   9.832  18.098  0.00  0.00    +0.000 C 
ATOM      7  N   UNL     1       1.982  11.095  18.198  0.00  0.00    +0.000 NA
ATOM      8  C   UNL     1       1.582  11.998  19.027  0.00  0.00    +0.000 C 
ATOM      9  C   UNL     1       0.409  11.855  19.953  0.00  0.00    +0.000 A 
ATOM     10  C   UNL     1      -0.444  12.965  20.096  0.00  0.00    +0.000 A 
ATOM     11  C   UNL     1      -1.439  12.977  21.072  0.00  0.00    +0.000 A 
ATOM     12  C   UNL     1      -1.600  11.879  21.912  0.00  0.00    +0.000 A 
ATOM     13  C   UNL     1      -0.790  10.753  21.756  0.00  0.00    +0.000 A 
ATOM     14  C   UNL     1       0.197  10.719  20.756  0.00  0.00    +0.000 A 
ENDROOT
BRANCH   1  19
ATOM     15  C   UNL     1       5.212   6.092  16.358  0.00  0.00    +0.000 C 
ATOM     16  C   UNL     1       4.041   6.156  17.252  0.00  0.00    +0.000 A 
ATOM     17  N   UNL     1       3.321   5.081  17.587  0.00  0.00    +0.000 NA
ATOM     18  O   UNL     1       2.424   5.588  18.533  0.00  0.00    +0.000 OA
ATOM     19  C   UNL     1       2.691   6.930  18.660  0.00  0.00    +0.000 A 
ATOM     20  N   UNL     1       3.660   7.321  17.855  0.00  0.00    +0.000 NA
ENDBRANCH   1  19
BRANCH   8  21
ATOM     21  C   UNL     1       2.378  13.273  19.065  0.00  0.00    +0.000 A 
ATOM     22  C   UNL     1       2.594  13.976  17.873  0.00  0.00    +0.000 A 
ATOM     23  C   UNL     1       3.335  15.160  17.878  0.00  0.00    +0.000 A 
ATOM     24  C   UNL     1       3.866  15.644  19.072  0.00  0.00    +0.000 A 
ATOM     25  C   UNL     1       3.669  14.942  20.261  0.00  0.00    +0.000 A 
ATOM     26  C   UNL     1       2.935  13.753  20.258  0.00  0.00    +0.000 A 
ENDBRANCH   8  21
TORSDOF 2
ENDMDL
MODEL 9
REMARK VINA RESULT:      -7.1      7.165     11.018
REMARK  Name = 
REMARK  3 active torsions:
REMARK  status: ('A' for Active; 'I' for Inactive)
REMARK    1  A    between atoms: C_1  and  C_2
REMARK    2  A    between atoms: C_5  and  C_6
REMARK    3  A    between atoms: C_13  and  C_14
REMARK                            x       y       z     vdW  Elec       q    Type
REMARK                         _______ _______ _______ _____ _____    ______ ____
ROOT
ATOM      1  C   UNL     1      -2.118  10.455  18.456  0.00  0.00    +0.000 A 
ATOM      2  N   UNL     1      -2.732   9.767  17.436  0.00  0.00    +0.000 NA
ATOM      3  C   UNL     1      -3.879  10.381  17.253  0.00  0.00    +0.000 A 
ATOM      4  N   UNL     1      -4.043  11.457  18.097  0.00  0.00    +0.000 N 
ATOM      5  C   UNL     1      -2.898  11.522  18.864  0.00  0.00    +0.000 A 
ATOM      6  C   UNL     1      -2.654  12.637  19.803  0.00  0.00    +0.000 C 
ATOM      7  N   UNL     1      -3.636  12.603  20.869  0.00  0.00    +0.000 NA
ATOM      8  C   UNL     1      -4.878  12.835  20.614  0.00  0.00    +0.000 C 
ATOM      9  C   UNL     1      -5.434  13.136  19.252  0.00  0.00    +0.000 A 
ATOM     10  C   UNL     1      -6.401  14.154  19.156  0.00  0.00    +0.000 A 
ATOM     11  C   UNL     1      -7.098  14.364  17.968  0.00  0.00    +0.000 A 
ATOM     12  C   UNL     1      -6.834  13.567  16.858  0.00  0.00    +0.000 A 
ATOM     13  C   UNL     1      -5.849  12.581  16.923  0.00  0.00    +0.000 A 
ATOM     14  C   UNL     1      -5.119  12.381  18.108  0.00  0.00    +0.000 A 
ENDROOT
BRANCH   1  19
ATOM     15  C   UNL     1       1.437   8.840  21.436  0.00  0.00    +0.000 C 
ATOM     16  C   UNL     1       0.773   9.404  20.247  0.00  0.00    +0.000 A 
ATOM     17  N   UNL     1       1.384   9.538  19.067  0.00  0.00    +0.000 NA
ATOM     18  O   UNL     1       0.352   9.974  18.228  0.00  0.00    +0.000 OA
ATOM     19  C   UNL     1      -0.779  10.072  19.002  0.00  0.00    +0.000 A 
ATOM     20  N   UNL     1      -0.546   9.762  20.262  0.00  0.00    +0.000 NA
ENDBRANCH   1  19
BRANCH   8  21
ATOM     21  C   UNL     1      -5.825  12.775  21.780  0.00  0.00    +0.000 A 
ATOM     22  C   UNL     1      -5.448  13.363  22.994  0.00  0.00    +0.000 A 
ATOM     23  C   UNL     1      -6.305  13.315  24.096  0.00  0.00    +0.000 A 
ATOM     24  C   UNL     1      -7.540  12.678  23.991  0.00  0.00    +0.000 A 
ATOM     25  C   UNL     1      -7.916  12.077  22.790  0.00  0.00    +0.000 A 
ATOM     26  C   UNL     1      -7.058  12.115  21.689  0.00  0.00    +0.000 A 
ENDBRANCH   8  21
TORSDOF 2
ENDMDL
