MODEL 1
REMARK VINA RESULT:      -7.7      0.000      0.000
REMARK  Name = 
REMARK  4 active torsions:
REMARK  status: ('A' for Active; 'I' for Inactive)
REMARK    1  A    between atoms: C_1  and  C_2
REMARK    2  A    between atoms: C_8  and  N_9
REMARK    3  A    between atoms: C_10  and  C_12
REMARK    4  A    between atoms: C_17  and  C_19
REMARK                            x       y       z     vdW  Elec       q    Type
REMARK                         _______ _______ _______ _____ _____    ______ ____
ROOT
ATOM      1  C   UNL     1       6.371   5.914  17.768  0.00  0.00    +0.000 A 
ATOM      2  C   UNL     1       6.373   6.995  16.907  0.00  0.00    +0.000 A 
ATOM      3  N   UNL     1       7.251   8.012  17.227  0.00  0.00    +0.000 NA
ATOM      4  C   UNL     1       7.909   7.704  18.312  0.00  0.00    +0.000 A 
ATOM      5  N   UNL     1       8.828   8.447  19.006  0.00  0.00    +0.000 N 
ATOM      6  C   UNL     1       9.035   9.784  18.719  0.00  0.00    +0.000 C 
ATOM      7  O   UNL     1       8.388  10.431  17.893  0.00  0.00    +0.000 OA
ATOM      8  S   UNL     1       7.581   6.164  18.971  0.00  0.00    +0.000 S 
ATOM      9  H   UNL     1       9.303   7.999  19.774  0.00  0.00    +0.000 HD
ENDROOT
BRANCH   1  11
ATOM     10  N   UNL     1       4.559   4.709  18.736  0.00  0.00    +0.000 N 
ATOM     11  C   UNL     1       5.500   4.749  17.723  0.00  0.00    +0.000 C 
ATOM     12  O   UNL     1       5.563   3.934  16.806  0.00  0.00    +0.000 OA
ATOM     13  H   UNL     1       4.375   5.627  19.134  0.00  0.00    +0.000 HD
BRANCH  10  21
ATOM     14  C   UNL     1       4.720   1.937  19.955  0.00  0.00    +0.000 C 
ATOM     15  C   UNL     1       3.486   2.543  19.345  0.00  0.00    +0.000 A 
ATOM     16  C   UNL     1       2.288   1.799  19.416  0.00  0.00    +0.000 A 
ATOM     17  C   UNL     1       1.076   2.322  18.959  0.00  0.00    +0.000 A 
ATOM     18  C   UNL     1       1.036   3.602  18.422  0.00  0.00    +0.000 A 
ATOM     19  C   UNL     1       2.207   4.355  18.351  0.00  0.00    +0.000 A 
ATOM     20 CL   UNL     1       2.103   5.948  17.673  0.00  0.00    +0.000 Cl
ATOM     21  C   UNL     1       3.445   3.835  18.788  0.00  0.00    +0.000 A 
ENDBRANCH  10  21
ENDBRANCH   1  11
BRANCH   6  22
ATOM     22  C   UNL     1      10.162  10.444  19.569  0.00  0.00    +0.000 C 
ATOM     23  C   UNL     1      10.894  11.643  18.901  0.00  0.00    +0.000 C 
ATOM     24  C   UNL     1      10.885  12.353  20.263  0.00  0.00    +0.000 C 
ATOM     25  C   UNL     1       9.713  11.445  20.672  0.00  0.00    +0.000 C 
ENDBRANCH   6  22
TORSDOF 3
ENDMDL
MODEL 2
REMARK VINA RESULT:      -7.3      6.321      7.957
REMARK  Name = 
REMARK  4 active torsions:
REMARK  status: ('A' for Active; 'I' for Inactive)
REMARK    1  A    between atoms: C_1  and  C_2
REMARK    2  A    between atoms: C_8  and  N_9
REMARK    3  A    between atoms: C_10  and  C_12
REMARK    4  A    between atoms: C_17  and  C_19
REMARK                            x       y       z     vdW  Elec       q    Type
REMARK                         _______ _______ _______ _____ _____    ______ ____
ROOT
ATOM      1  C   UNL     1       1.764   8.441  19.307  0.00  0.00    +0.000 A 
ATOM      2  C   UNL     1       1.564   7.954  20.584  0.00  0.00    +0.000 A 
ATOM      3  N   UNL     1       0.794   8.746  21.413  0.00  0.00    +0.000 NA
ATOM      4  C   UNL     1       0.411   9.817  20.770  0.00  0.00    +0.000 A 
ATOM      5  N   UNL     1      -0.312  10.887  21.228  0.00  0.00    +0.000 N 
ATOM      6  C   UNL     1      -0.573  11.055  22.575  0.00  0.00    +0.000 C 
ATOM      7  O   UNL     1      -0.138  10.325  23.469  0.00  0.00    +0.000 OA
ATOM      8  S   UNL     1       0.877   9.910  19.131  0.00  0.00    +0.000 S 
ATOM      9  H   UNL     1      -0.594  11.581  20.553  0.00  0.00    +0.000 HD
ENDROOT
BRANCH   1  11
ATOM     10  N   UNL     1       3.277   6.724  18.647  0.00  0.00    +0.000 N 
ATOM     11  C   UNL     1       2.592   7.863  18.260  0.00  0.00    +0.000 C 
ATOM     12  O   UNL     1       2.598   8.318  17.118  0.00  0.00    +0.000 OA
ATOM     13  H   UNL     1       2.850   6.265  19.447  0.00  0.00    +0.000 HD
BRANCH  10  21
ATOM     14  C   UNL     1       6.038   7.304  17.535  0.00  0.00    +0.000 C 
ATOM     15  C   UNL     1       5.228   6.071  17.239  0.00  0.00    +0.000 A 
ATOM     16  C   UNL     1       5.828   5.068  16.448  0.00  0.00    +0.000 A 
ATOM     17  C   UNL     1       5.186   3.852  16.200  0.00  0.00    +0.000 A 
ATOM     18  C   UNL     1       3.929   3.613  16.740  0.00  0.00    +0.000 A 
ATOM     19  C   UNL     1       3.323   4.590  17.530  0.00  0.00    +0.000 A 
ATOM     20 CL   UNL     1       1.753   4.243  18.181  0.00  0.00    +0.000 Cl
ATOM     21  C   UNL     1       3.948   5.832  17.773  0.00  0.00    +0.000 A 
ENDBRANCH  10  21
ENDBRANCH   1  11
BRANCH   6  22
ATOM     22  C   UNL     1      -1.462  12.294  22.897  0.00  0.00    +0.000 C 
ATOM     23  C   UNL     1      -2.173  12.946  21.677  0.00  0.00    +0.000 C 
ATOM     24  C   UNL     1      -3.421  13.128  22.554  0.00  0.00    +0.000 C 
ATOM     25  C   UNL     1      -2.884  12.008  23.462  0.00  0.00    +0.000 C 
ENDBRANCH   6  22
TORSDOF 3
ENDMDL
MODEL 3
REMARK VINA RESULT:      -7.1      1.189      1.870
REMARK  Name = 
REMARK  4 active torsions:
REMARK  status: ('A' for Active; 'I' for Inactive)
REMARK    1  A    between atoms: C_1  and  C_2
REMARK    2  A    between atoms: C_8  and  N_9
REMARK    3  A    between atoms: C_10  and  C_12
REMARK    4  A    between atoms: C_17  and  C_19
REMARK                            x       y       z     vdW  Elec       q    Type
REMARK                         _______ _______ _______ _____ _____    ______ ____
ROOT
ATOM      1  C   UNL     1       6.163   5.823  17.789  0.00  0.00    +0.000 A 
ATOM      2  C   UNL     1       6.193   6.870  16.887  0.00  0.00    +0.000 A 
ATOM      3  N   UNL     1       7.101   7.873  17.166  0.00  0.00    +0.000 NA
ATOM      4  C   UNL     1       7.754   7.587  18.260  0.00  0.00    +0.000 A 
ATOM      5  N   UNL     1       8.697   8.329  18.923  0.00  0.00    +0.000 N 
ATOM      6  C   UNL     1       8.941   9.648  18.585  0.00  0.00    +0.000 C 
ATOM      7  O   UNL     1       8.310  10.282  17.736  0.00  0.00    +0.000 OA
ATOM      8  S   UNL     1       7.385   6.083  18.978  0.00  0.00    +0.000 S 
ATOM      9  H   UNL     1       9.162   7.897  19.705  0.00  0.00    +0.000 HD
ENDROOT
BRANCH   1  11
ATOM     10  N   UNL     1       4.340   4.693  18.825  0.00  0.00    +0.000 N 
ATOM     11  C   UNL     1       5.259   4.683  17.790  0.00  0.00    +0.000 C 
ATOM     12  O   UNL     1       5.278   3.845  16.892  0.00  0.00    +0.000 OA
ATOM     13  H   UNL     1       4.192   5.624  19.206  0.00  0.00    +0.000 HD
BRANCH  10  21
ATOM     14  C   UNL     1       1.655   5.439  17.629  0.00  0.00    +0.000 C 
ATOM     15  C   UNL     1       1.944   4.169  18.380  0.00  0.00    +0.000 A 
ATOM     16  C   UNL     1       0.911   3.211  18.469  0.00  0.00    +0.000 A 
ATOM     17  C   UNL     1       1.119   1.966  19.067  0.00  0.00    +0.000 A 
ATOM     18  C   UNL     1       2.366   1.651  19.590  0.00  0.00    +0.000 A 
ATOM     19  C   UNL     1       3.402   2.582  19.505  0.00  0.00    +0.000 A 
ATOM     20 CL   UNL     1       4.941   2.140  20.171  0.00  0.00    +0.000 Cl
ATOM     21  C   UNL     1       3.204   3.852  18.923  0.00  0.00    +0.000 A 
ENDBRANCH  10  21
ENDBRANCH   1  11
BRANCH   6  22
ATOM     22  C   UNL     1      10.090  10.307  19.405  0.00  0.00    +0.000 C 
ATOM     23  C   UNL     1      10.747  11.559  18.758  0.00  0.00    +0.000 C 
ATOM     24  C   UNL     1      10.789  12.206  20.150  0.00  0.00    +0.000 C 
ATOM     25  C   UNL     1       9.669  11.242  20.576  0.00  0.00    +0.000 C 
ENDBRANCH   6  22
TORSDOF 3
ENDMDL
MODEL 4
REMARK VINA RESULT:      -7.1      6.467      7.643
REMARK  Name = 
REMARK  4 active torsions:
REMARK  status: ('A' for Active; 'I' for Inactive)
REMARK    1  A    between atoms: C_1  and  C_2
REMARK    2  A    between atoms: C_8  and  N_9
REMARK    3  A    between atoms: C_10  and  C_12
REMARK    4  A    between atoms: C_17  and  C_19
REMARK                            x       y       z     vdW  Elec       q    Type
REMARK                         _______ _______ _______ _____ _____    ______ ____
ROOT
ATOM      1  C   UNL     1       1.765   8.269  19.627  0.00  0.00    +0.000 A 
ATOM      2  C   UNL     1       1.443   9.447  18.981  0.00  0.00    +0.000 A 
ATOM      3  N   UNL     1       0.766  10.380  19.742  0.00  0.00    +0.000 NA
ATOM      4  C   UNL     1       0.582   9.917  20.950  0.00  0.00    +0.000 A 
ATOM      5  N   UNL     1      -0.090  10.485  22.000  0.00  0.00    +0.000 N 
ATOM      6  C   UNL     1      -0.871  11.614  21.828  0.00  0.00    +0.000 C 
ATOM      7  O   UNL     1      -1.089  12.155  20.742  0.00  0.00    +0.000 OA
ATOM      8  S   UNL     1       1.265   8.386  21.273  0.00  0.00    +0.000 S 
ATOM      9  H   UNL     1      -0.043  10.015  22.891  0.00  0.00    +0.000 HD
ENDROOT
BRANCH   1  11
ATOM     10  N   UNL     1       2.836   6.172  19.992  0.00  0.00    +0.000 N 
ATOM     11  C   UNL     1       2.398   7.091  19.054  0.00  0.00    +0.000 C 
ATOM     12  O   UNL     1       2.450   6.915  17.839  0.00  0.00    +0.000 OA
ATOM     13  H   UNL     1       2.356   6.267  20.883  0.00  0.00    +0.000 HD
BRANCH  10  21
ATOM     14  C   UNL     1       5.680   5.504  19.182  0.00  0.00    +0.000 C 
ATOM     15  C   UNL     1       4.567   4.504  19.332  0.00  0.00    +0.000 A 
ATOM     16  C   UNL     1       4.884   3.139  19.162  0.00  0.00    +0.000 A 
ATOM     17  C   UNL     1       3.935   2.137  19.374  0.00  0.00    +0.000 A 
ATOM     18  C   UNL     1       2.646   2.478  19.761  0.00  0.00    +0.000 A 
ATOM     19  C   UNL     1       2.315   3.821  19.941  0.00  0.00    +0.000 A 
ATOM     20 CL   UNL     1       0.692   4.195  20.426  0.00  0.00    +0.000 Cl
ATOM     21  C   UNL     1       3.256   4.848  19.711  0.00  0.00    +0.000 A 
ENDBRANCH  10  21
ENDBRANCH   1  11
BRANCH   6  22
ATOM     22  C   UNL     1      -1.504  12.150  23.147  0.00  0.00    +0.000 C 
ATOM     23  C   UNL     1      -1.436  13.691  23.348  0.00  0.00    +0.000 C 
ATOM     24  C   UNL     1      -2.865  13.639  23.909  0.00  0.00    +0.000 C 
ATOM     25  C   UNL     1      -3.052  12.303  23.169  0.00  0.00    +0.000 C 
ENDBRANCH   6  22
TORSDOF 3
ENDMDL
MODEL 5
REMARK VINA RESULT:      -7.0      6.406      8.490
REMARK  Name = 
REMARK  4 active torsions:
REMARK  status: ('A' for Active; 'I' for Inactive)
REMARK    1  A    between atoms: C_1  and  C_2
REMARK    2  A    between atoms: C_8  and  N_9
REMARK    3  A    between atoms: C_10  and  C_12
REMARK    4  A    between atoms: C_17  and  C_19
REMARK                            x       y       z     vdW  Elec       q    Type
REMARK                         _______ _______ _______ _____ _____    ______ ____
ROOT
ATOM      1  C   UNL     1       1.490   8.701  19.429  0.00  0.00    +0.000 A 
ATOM      2  C   UNL     1       1.878   7.624  20.204  0.00  0.00    +0.000 A 
ATOM      3  N   UNL     1       2.709   6.711  19.585  0.00  0.00    +0.000 NA
ATOM      4  C   UNL     1       2.953   7.094  18.361  0.00  0.00    +0.000 A 
ATOM      5  N   UNL     1       3.676   6.459  17.385  0.00  0.00    +0.000 N 
ATOM      6  C   UNL     1       4.101   5.152  17.541  0.00  0.00    +0.000 C 
ATOM      7  O   UNL     1       3.821   4.434  18.503  0.00  0.00    +0.000 OA
ATOM      8  S   UNL     1       2.275   8.590  17.897  0.00  0.00    +0.000 S 
ATOM      9  H   UNL     1       3.835   6.958  16.524  0.00  0.00    +0.000 HD
ENDROOT
BRANCH   1  11
ATOM     10  N   UNL     1       0.920  10.458  20.932  0.00  0.00    +0.000 N 
ATOM     11  C   UNL     1       0.563   9.762  19.791  0.00  0.00    +0.000 C 
ATOM     12  O   UNL     1      -0.398  10.047  19.080  0.00  0.00    +0.000 OA
ATOM     13  H   UNL     1       1.912  10.380  21.143  0.00  0.00    +0.000 HD
BRANCH  10  21
ATOM     14  C   UNL     1      -1.157  10.585  23.138  0.00  0.00    +0.000 C 
ATOM     15  C   UNL     1      -0.624  11.772  22.384  0.00  0.00    +0.000 A 
ATOM     16  C   UNL     1      -1.060  13.053  22.785  0.00  0.00    +0.000 A 
ATOM     17  C   UNL     1      -0.548  14.214  22.203  0.00  0.00    +0.000 A 
ATOM     18  C   UNL     1       0.416  14.120  21.207  0.00  0.00    +0.000 A 
ATOM     19  C   UNL     1       0.865  12.863  20.803  0.00  0.00    +0.000 A 
ATOM     20 CL   UNL     1       2.070  12.799  19.556  0.00  0.00    +0.000 Cl
ATOM     21  C   UNL     1       0.343  11.678  21.365  0.00  0.00    +0.000 A 
ENDBRANCH  10  21
ENDBRANCH   1  11
BRANCH   6  22
ATOM     22  C   UNL     1       4.963   4.623  16.355  0.00  0.00    +0.000 C 
ATOM     23  C   UNL     1       5.416   5.694  15.322  0.00  0.00    +0.000 C 
ATOM     24  C   UNL     1       6.785   4.999  15.264  0.00  0.00    +0.000 C 
ATOM     25  C   UNL     1       6.475   4.385  16.639  0.00  0.00    +0.000 C 
ENDBRANCH   6  22
TORSDOF 3
ENDMDL
MODEL 6
REMARK VINA RESULT:      -6.9      6.426      7.555
REMARK  Name = 
REMARK  4 active torsions:
REMARK  status: ('A' for Active; 'I' for Inactive)
REMARK    1  A    between atoms: C_1  and  C_2
REMARK    2  A    between atoms: C_8  and  N_9
REMARK    3  A    between atoms: C_10  and  C_12
REMARK    4  A    between atoms: C_17  and  C_19
REMARK                            x       y       z     vdW  Elec       q    Type
REMARK                         _______ _______ _______ _____ _____    ______ ____
ROOT
ATOM      1  C   UNL     1       1.776   8.124  19.670  0.00  0.00    +0.000 A 
ATOM      2  C   UNL     1       1.479   9.282  18.977  0.00  0.00    +0.000 A 
ATOM      3  N   UNL     1       0.839  10.267  19.703  0.00  0.00    +0.000 NA
ATOM      4  C   UNL     1       0.658   9.863  20.932  0.00  0.00    +0.000 A 
ATOM      5  N   UNL     1       0.017  10.495  21.965  0.00  0.00    +0.000 N 
ATOM      6  C   UNL     1      -0.734  11.637  21.752  0.00  0.00    +0.000 C 
ATOM      7  O   UNL     1      -0.951  12.137  20.646  0.00  0.00    +0.000 OA
ATOM      8  S   UNL     1       1.302   8.328  21.315  0.00  0.00    +0.000 S 
ATOM      9  H   UNL     1       0.062  10.064  22.875  0.00  0.00    +0.000 HD
ENDROOT
BRANCH   1  11
ATOM     10  N   UNL     1       2.701   5.974  20.110  0.00  0.00    +0.000 N 
ATOM     11  C   UNL     1       2.368   6.905  19.141  0.00  0.00    +0.000 C 
ATOM     12  O   UNL     1       2.473   6.712  17.933  0.00  0.00    +0.000 OA
ATOM     13  H   UNL     1       2.182   6.107  20.974  0.00  0.00    +0.000 HD
BRANCH  10  21
ATOM     14  C   UNL     1       0.687   3.710  20.234  0.00  0.00    +0.000 C 
ATOM     15  C   UNL     1       2.148   3.550  19.915  0.00  0.00    +0.000 A 
ATOM     16  C   UNL     1       2.605   2.261  19.566  0.00  0.00    +0.000 A 
ATOM     17  C   UNL     1       3.924   2.038  19.166  0.00  0.00    +0.000 A 
ATOM     18  C   UNL     1       4.816   3.101  19.104  0.00  0.00    +0.000 A 
ATOM     19  C   UNL     1       4.381   4.384  19.437  0.00  0.00    +0.000 A 
ATOM     20 CL   UNL     1       5.533   5.677  19.342  0.00  0.00    +0.000 Cl
ATOM     21  C   UNL     1       3.057   4.624  19.864  0.00  0.00    +0.000 A 
ENDBRANCH  10  21
ENDBRANCH   1  11
BRANCH   6  22
ATOM     22  C   UNL     1      -1.334  12.249  23.054  0.00  0.00    +0.000 C 
ATOM     23  C   UNL     1      -1.149  13.784  23.223  0.00  0.00    +0.000 C 
ATOM     24  C   UNL     1      -2.582  13.855  23.772  0.00  0.00    +0.000 C 
ATOM     25  C   UNL     1      -2.866  12.521  23.059  0.00  0.00    +0.000 C 
ENDBRANCH   6  22
TORSDOF 3
ENDMDL
MODEL 7
REMARK VINA RESULT:      -6.9      6.165      7.812
REMARK  Name = 
REMARK  4 active torsions:
REMARK  status: ('A' for Active; 'I' for Inactive)
REMARK    1  A    between atoms: C_1  and  C_2
REMARK    2  A    between atoms: C_8  and  N_9
REMARK    3  A    between atoms: C_10  and  C_12
REMARK    4  A    between atoms: C_17  and  C_19
REMARK                            x       y       z     vdW  Elec       q    Type
REMARK                         _______ _______ _______ _____ _____    ______ ____
ROOT
ATOM      1  C   UNL     1       1.969   8.235  19.140  0.00  0.00    +0.000 A 
ATOM      2  C   UNL     1       1.782   7.786  20.434  0.00  0.00    +0.000 A 
ATOM      3  N   UNL     1       1.005   8.593  21.241  0.00  0.00    +0.000 NA
ATOM      4  C   UNL     1       0.603   9.637  20.567  0.00  0.00    +0.000 A 
ATOM      5  N   UNL     1      -0.133  10.711  20.994  0.00  0.00    +0.000 N 
ATOM      6  C   UNL     1      -0.389  10.917  22.338  0.00  0.00    +0.000 C 
ATOM      7  O   UNL     1       0.061  10.223  23.251  0.00  0.00    +0.000 OA
ATOM      8  S   UNL     1       1.059   9.684  18.923  0.00  0.00    +0.000 S 
ATOM      9  H   UNL     1      -0.428  11.378  20.299  0.00  0.00    +0.000 HD
ENDROOT
BRANCH   1  11
ATOM     10  N   UNL     1       3.528   6.539  18.536  0.00  0.00    +0.000 N 
ATOM     11  C   UNL     1       2.800   7.635  18.108  0.00  0.00    +0.000 C 
ATOM     12  O   UNL     1       2.774   8.036  16.947  0.00  0.00    +0.000 OA
ATOM     13  H   UNL     1       3.128   6.104  19.363  0.00  0.00    +0.000 HD
BRANCH  10  21
ATOM     14  C   UNL     1       2.317   3.903  17.652  0.00  0.00    +0.000 C 
ATOM     15  C   UNL     1       3.683   4.398  17.266  0.00  0.00    +0.000 A 
ATOM     16  C   UNL     1       4.431   3.618  16.359  0.00  0.00    +0.000 A 
ATOM     17  C   UNL     1       5.668   4.047  15.874  0.00  0.00    +0.000 A 
ATOM     18  C   UNL     1       6.185   5.268  16.286  0.00  0.00    +0.000 A 
ATOM     19  C   UNL     1       5.458   6.057  17.177  0.00  0.00    +0.000 A 
ATOM     20 CL   UNL     1       6.146   7.574  17.660  0.00  0.00    +0.000 Cl
ATOM     21  C   UNL     1       4.215   5.629  17.693  0.00  0.00    +0.000 A 
ENDBRANCH  10  21
ENDBRANCH   1  11
BRANCH   6  22
ATOM     22  C   UNL     1      -1.295  12.153  22.624  0.00  0.00    +0.000 C 
ATOM     23  C   UNL     1      -2.188  12.622  21.441  0.00  0.00    +0.000 C 
ATOM     24  C   UNL     1      -3.323  12.865  22.447  0.00  0.00    +0.000 C 
ATOM     25  C   UNL     1      -2.617  11.887  23.402  0.00  0.00    +0.000 C 
ENDBRANCH   6  22
TORSDOF 3
ENDMDL
MODEL 8
REMARK VINA RESULT:      -6.9      6.388      8.515
REMARK  Name = 
REMARK  4 active torsions:
REMARK  status: ('A' for Active; 'I' for Inactive)
REMARK    1  A    between atoms: C_1  and  C_2
REMARK    2  A    between atoms: C_8  and  N_9
REMARK    3  A    between atoms: C_10  and  C_12
REMARK    4  A    between atoms: C_17  and  C_19
REMARK                            x       y       z     vdW  Elec       q    Type
REMARK                         _______ _______ _______ _____ _____    ______ ____
ROOT
ATOM      1  C   UNL     1       1.522   8.628  19.462  0.00  0.00    +0.000 A 
ATOM      2  C   UNL     1       1.888   7.529  20.216  0.00  0.00    +0.000 A 
ATOM      3  N   UNL     1       2.716   6.621  19.587  0.00  0.00    +0.000 NA
ATOM      4  C   UNL     1       2.979   7.028  18.374  0.00  0.00    +0.000 A 
ATOM      5  N   UNL     1       3.706   6.408  17.392  0.00  0.00    +0.000 N 
ATOM      6  C   UNL     1       4.114   5.093  17.523  0.00  0.00    +0.000 C 
ATOM      7  O   UNL     1       3.815   4.357  18.465  0.00  0.00    +0.000 OA
ATOM      8  S   UNL     1       2.323   8.542  17.937  0.00  0.00    +0.000 S 
ATOM      9  H   UNL     1       3.880   6.925  16.545  0.00  0.00    +0.000 HD
ENDROOT
BRANCH   1  11
ATOM     10  N   UNL     1       0.992  10.404  20.957  0.00  0.00    +0.000 N 
ATOM     11  C   UNL     1       0.602   9.691  19.837  0.00  0.00    +0.000 C 
ATOM     12  O   UNL     1      -0.381   9.963  19.152  0.00  0.00    +0.000 OA
ATOM     13  H   UNL     1       1.990  10.332  21.138  0.00  0.00    +0.000 HD
BRANCH  10  21
ATOM     14  C   UNL     1       1.625  13.055  19.627  0.00  0.00    +0.000 C 
ATOM     15  C   UNL     1       0.697  12.875  20.797  0.00  0.00    +0.000 A 
ATOM     16  C   UNL     1       0.003  14.011  21.264  0.00  0.00    +0.000 A 
ATOM     17  C   UNL     1      -0.947  13.919  22.283  0.00  0.00    +0.000 A 
ATOM     18  C   UNL     1      -1.225  12.686  22.859  0.00  0.00    +0.000 A 
ATOM     19  C   UNL     1      -0.555  11.550  22.406  0.00  0.00    +0.000 A 
ATOM     20 CL   UNL     1      -0.939  10.034  23.156  0.00  0.00    +0.000 Cl
ATOM     21  C   UNL     1       0.423  11.628  21.391  0.00  0.00    +0.000 A 
ENDBRANCH  10  21
ENDBRANCH   1  11
BRANCH   6  22
ATOM     22  C   UNL     1       4.984   4.581  16.335  0.00  0.00    +0.000 C 
ATOM     23  C   UNL     1       5.416   5.661  15.303  0.00  0.00    +0.000 C 
ATOM     24  C   UNL     1       6.797   4.991  15.242  0.00  0.00    +0.000 C 
ATOM     25  C   UNL     1       6.500   4.370  16.617  0.00  0.00    +0.000 C 
ENDBRANCH   6  22
TORSDOF 3
ENDMDL
MODEL 9
REMARK VINA RESULT:      -6.8      5.702      8.039
REMARK  Name = 
REMARK  4 active torsions:
REMARK  status: ('A' for Active; 'I' for Inactive)
REMARK    1  A    between atoms: C_1  and  C_2
REMARK    2  A    between atoms: C_8  and  N_9
REMARK    3  A    between atoms: C_10  and  C_12
REMARK    4  A    between atoms: C_17  and  C_19
REMARK                            x       y       z     vdW  Elec       q    Type
REMARK                         _______ _______ _______ _____ _____    ______ ____
ROOT
ATOM      1  C   UNL     1       1.984   7.889  19.449  0.00  0.00    +0.000 A 
ATOM      2  C   UNL     1       2.290   6.710  20.102  0.00  0.00    +0.000 A 
ATOM      3  N   UNL     1       3.126   5.848  19.421  0.00  0.00    +0.000 NA
ATOM      4  C   UNL     1       3.455   6.369  18.269  0.00  0.00    +0.000 A 
ATOM      5  N   UNL     1       4.213   5.831  17.262  0.00  0.00    +0.000 N 
ATOM      6  C   UNL     1       4.586   4.500  17.276  0.00  0.00    +0.000 C 
ATOM      7  O   UNL     1       4.227   3.681  18.124  0.00  0.00    +0.000 OA
ATOM      8  S   UNL     1       2.854   7.936  17.960  0.00  0.00    +0.000 S 
ATOM      9  H   UNL     1       4.439   6.427  16.481  0.00  0.00    +0.000 HD
ENDROOT
BRANCH   1  11
ATOM     10  N   UNL     1       0.910   9.962  18.978  0.00  0.00    +0.000 N 
ATOM     11  C   UNL     1       1.071   8.932  19.889  0.00  0.00    +0.000 C 
ATOM     12  O   UNL     1       0.449   8.840  20.944  0.00  0.00    +0.000 OA
ATOM     13  H   UNL     1       1.151   9.685  18.030  0.00  0.00    +0.000 HD
BRANCH  10  21
ATOM     14  C   UNL     1      -1.726   9.727  17.498  0.00  0.00    +0.000 C 
ATOM     15  C   UNL     1      -1.323  10.888  18.365  0.00  0.00    +0.000 A 
ATOM     16  C   UNL     1      -2.272  11.911  18.574  0.00  0.00    +0.000 A 
ATOM     17  C   UNL     1      -2.017  12.978  19.438  0.00  0.00    +0.000 A 
ATOM     18  C   UNL     1      -0.805  13.046  20.113  0.00  0.00    +0.000 A 
ATOM     19  C   UNL     1       0.143  12.040  19.925  0.00  0.00    +0.000 A 
ATOM     20 CL   UNL     1       1.640  12.169  20.793  0.00  0.00    +0.000 Cl
ATOM     21  C   UNL     1      -0.090  10.965  19.041  0.00  0.00    +0.000 A 
ENDBRANCH  10  21
ENDBRANCH   1  11
BRANCH   6  22
ATOM     22  C   UNL     1       5.499   4.088  16.083  0.00  0.00    +0.000 C 
ATOM     23  C   UNL     1       5.465   5.036  14.851  0.00  0.00    +0.000 C 
ATOM     24  C   UNL     1       6.985   4.856  14.721  0.00  0.00    +0.000 C 
ATOM     25  C   UNL     1       7.011   4.441  16.202  0.00  0.00    +0.000 C 
ENDBRANCH   6  22
TORSDOF 3
ENDMDL
