MODEL 1
REMARK VINA RESULT:      -9.2      0.000      0.000
REMARK  Name = 
REMARK  6 active torsions:
REMARK  status: ('A' for Active; 'I' for Inactive)
REMARK    1  A    between atoms: N_1  and  C_2
REMARK    2  A    between atoms: C_2  and  C_3
REMARK    3  A    between atoms: C_2  and  C_13
REMARK    4  A    between atoms: C_3  and  C_4
REMARK    5  A    between atoms: N_15  and  N_16
REMARK    6  A    between atoms: C_17  and  C_18
REMARK                            x       y       z     vdW  Elec       q    Type
REMARK                         _______ _______ _______ _____ _____    ______ ____
ROOT
ATOM      1  C   UNL     1       7.346   6.222  17.878  0.00  0.00    +0.000 C 
ATOM      2  O   UNL     1       7.796   5.839  18.959  0.00  0.00    +0.000 OA
ATOM      3  N   UNL     1       7.464   7.524  17.399  0.00  0.00    +0.000 N 
ATOM      4  H   UNL     1       7.032   7.812  16.529  0.00  0.00    +0.000 HD
ENDROOT
BRANCH   3   5
ATOM      5  N   UNL     1       8.120   8.443  18.158  0.00  0.00    +0.000 NA
ATOM      6  C   UNL     1       8.378   9.590  17.618  0.00  0.00    +0.000 C 
BRANCH   6   7
ATOM      7  C   UNL     1       9.053  10.648  18.401  0.00  0.00    +0.000 A 
ATOM      8  C   UNL     1       9.402  10.419  19.731  0.00  0.00    +0.000 A 
ATOM      9  C   UNL     1       9.990  11.441  20.477  0.00  0.00    +0.000 A 
ATOM     10  C   UNL     1      10.229  12.690  19.922  0.00  0.00    +0.000 A 
ATOM     11  N   UNL     1      10.772  13.656  20.686  0.00  0.00    +0.000 NA
ATOM     12  C   UNL     1      10.963  14.854  20.094  0.00  0.00    +0.000 A 
ATOM     13  C   UNL     1      10.634  15.080  18.773  0.00  0.00    +0.000 A 
ATOM     14  N   UNL     1      10.095  14.119  17.987  0.00  0.00    +0.000 NA
ATOM     15  C   UNL     1       9.886  12.920  18.564  0.00  0.00    +0.000 A 
ATOM     16  C   UNL     1       9.310  11.893  17.820  0.00  0.00    +0.000 A 
ENDBRANCH   6   7
ENDBRANCH   3   5
BRANCH   1  17
ATOM     17  C   UNL     1       6.567   5.263  16.944  0.00  0.00    +0.000 C 
BRANCH  17  18
ATOM     18  N   UNL     1       7.468   4.831  15.840  0.00  0.00    +0.000 NA
ATOM     19  H   UNL     1       7.991   4.016  16.169  0.00  0.00    +0.000 HD
ATOM     20  H   UNL     1       8.192   5.546  15.734  0.00  0.00    +0.000 HD
ENDBRANCH  17  18
BRANCH  17  21
ATOM     21  C   UNL     1       5.299   5.963  16.419  0.00  0.00    +0.000 C 
BRANCH  21  22
ATOM     22  C   UNL     1       4.090   5.819  17.293  0.00  0.00    +0.000 A 
ATOM     23  C   UNL     1       3.483   6.834  18.008  0.00  0.00    +0.000 A 
ATOM     24  N   UNL     1       2.435   6.306  18.708  0.00  0.00    +0.000 N 
ATOM     25  C   UNL     1       2.350   4.952  18.486  0.00  0.00    +0.000 A 
ATOM     26  C   UNL     1       1.458   4.010  19.012  0.00  0.00    +0.000 A 
ATOM     27  C   UNL     1       1.604   2.682  18.603  0.00  0.00    +0.000 A 
ATOM     28  C   UNL     1       2.598   2.315  17.699  0.00  0.00    +0.000 A 
ATOM     29  C   UNL     1       3.481   3.272  17.184  0.00  0.00    +0.000 A 
ATOM     30  C   UNL     1       3.364   4.618  17.586  0.00  0.00    +0.000 A 
ATOM     31  H   UNL     1       1.815   6.829  19.311  0.00  0.00    +0.000 HD
ENDBRANCH  21  22
ENDBRANCH  17  21
ENDBRANCH   1  17
TORSDOF 6
ENDMDL
MODEL 2
REMARK VINA RESULT:      -9.2      1.207      1.734
REMARK  Name = 
REMARK  6 active torsions:
REMARK  status: ('A' for Active; 'I' for Inactive)
REMARK    1  A    between atoms: N_1  and  C_2
REMARK    2  A    between atoms: C_2  and  C_3
REMARK    3  A    between atoms: C_2  and  C_13
REMARK    4  A    between atoms: C_3  and  C_4
REMARK    5  A    between atoms: N_15  and  N_16
REMARK    6  A    between atoms: C_17  and  C_18
REMARK                            x       y       z     vdW  Elec       q    Type
REMARK                         _______ _______ _______ _____ _____    ______ ____
ROOT
ATOM      1  C   UNL     1       7.526   5.891  18.628  0.00  0.00    +0.000 C 
ATOM      2  O   UNL     1       7.929   5.663  19.770  0.00  0.00    +0.000 OA
ATOM      3  N   UNL     1       7.780   7.069  17.930  0.00  0.00    +0.000 N 
ATOM      4  H   UNL     1       7.384   7.240  17.014  0.00  0.00    +0.000 HD
ENDROOT
BRANCH   3   5
ATOM      5  N   UNL     1       8.523   8.038  18.532  0.00  0.00    +0.000 NA
ATOM      6  C   UNL     1       8.393   9.248  18.094  0.00  0.00    +0.000 C 
BRANCH   6   7
ATOM      7  C   UNL     1       9.142  10.355  18.729  0.00  0.00    +0.000 A 
ATOM      8  C   UNL     1       9.144  10.494  20.116  0.00  0.00    +0.000 A 
ATOM      9  C   UNL     1       9.807  11.571  20.703  0.00  0.00    +0.000 A 
ATOM     10  C   UNL     1      10.464  12.518  19.930  0.00  0.00    +0.000 A 
ATOM     11  N   UNL     1      11.068  13.557  20.535  0.00  0.00    +0.000 NA
ATOM     12  C   UNL     1      11.674  14.453  19.728  0.00  0.00    +0.000 A 
ATOM     13  C   UNL     1      11.689  14.311  18.355  0.00  0.00    +0.000 A 
ATOM     14  N   UNL     1      11.094  13.269  17.729  0.00  0.00    +0.000 NA
ATOM     15  C   UNL     1      10.475  12.370  18.518  0.00  0.00    +0.000 A 
ATOM     16  C   UNL     1       9.820  11.287  17.938  0.00  0.00    +0.000 A 
ENDBRANCH   6   7
ENDBRANCH   3   5
BRANCH   1  17
ATOM     17  C   UNL     1       6.658   4.864  17.859  0.00  0.00    +0.000 C 
BRANCH  17  18
ATOM     18  N   UNL     1       7.347   4.508  16.589  0.00  0.00    +0.000 NA
ATOM     19  H   UNL     1       6.702   4.708  15.820  0.00  0.00    +0.000 HD
ATOM     20  H   UNL     1       7.436   3.489  16.560  0.00  0.00    +0.000 HD
ENDBRANCH  17  18
BRANCH  17  21
ATOM     21  C   UNL     1       5.255   5.451  17.613  0.00  0.00    +0.000 C 
BRANCH  21  22
ATOM     22  C   UNL     1       4.125   4.478  17.777  0.00  0.00    +0.000 A 
ATOM     23  C   UNL     1       3.842   3.419  16.935  0.00  0.00    +0.000 A 
ATOM     24  N   UNL     1       2.720   2.787  17.395  0.00  0.00    +0.000 N 
ATOM     25  C   UNL     1       2.242   3.425  18.515  0.00  0.00    +0.000 A 
ATOM     26  C   UNL     1       1.113   3.145  19.294  0.00  0.00    +0.000 A 
ATOM     27  C   UNL     1       0.866   3.969  20.394  0.00  0.00    +0.000 A 
ATOM     28  C   UNL     1       1.719   5.025  20.706  0.00  0.00    +0.000 A 
ATOM     29  C   UNL     1       2.844   5.289  19.915  0.00  0.00    +0.000 A 
ATOM     30  C   UNL     1       3.113   4.480  18.791  0.00  0.00    +0.000 A 
ATOM     31  H   UNL     1       2.295   1.975  16.970  0.00  0.00    +0.000 HD
ENDBRANCH  21  22
ENDBRANCH  17  21
ENDBRANCH   1  17
TORSDOF 6
ENDMDL
MODEL 3
REMARK VINA RESULT:      -8.8      1.256      1.517
REMARK  Name = 
REMARK  6 active torsions:
REMARK  status: ('A' for Active; 'I' for Inactive)
REMARK    1  A    between atoms: N_1  and  C_2
REMARK    2  A    between atoms: C_2  and  C_3
REMARK    3  A    between atoms: C_2  and  C_13
REMARK    4  A    between atoms: C_3  and  C_4
REMARK    5  A    between atoms: N_15  and  N_16
REMARK    6  A    between atoms: C_17  and  C_18
REMARK                            x       y       z     vdW  Elec       q    Type
REMARK                         _______ _______ _______ _____ _____    ______ ____
ROOT
ATOM      1  C   UNL     1       7.479   6.596  17.917  0.00  0.00    +0.000 C 
ATOM      2  O   UNL     1       7.992   6.210  18.969  0.00  0.00    +0.000 OA
ATOM      3  N   UNL     1       7.631   7.878  17.397  0.00  0.00    +0.000 N 
ATOM      4  H   UNL     1       7.148   8.172  16.557  0.00  0.00    +0.000 HD
ENDROOT
BRANCH   3   5
ATOM      5  N   UNL     1       8.397   8.773  18.078  0.00  0.00    +0.000 NA
ATOM      6  C   UNL     1       8.309  10.017  17.735  0.00  0.00    +0.000 C 
BRANCH   6   7
ATOM      7  C   UNL     1       9.085  11.048  18.461  0.00  0.00    +0.000 A 
ATOM      8  C   UNL     1       9.516  10.809  19.765  0.00  0.00    +0.000 A 
ATOM      9  C   UNL     1      10.200  11.806  20.460  0.00  0.00    +0.000 A 
ATOM     10  C   UNL     1      10.455  13.040  19.881  0.00  0.00    +0.000 A 
ATOM     11  N   UNL     1      11.093  13.984  20.597  0.00  0.00    +0.000 NA
ATOM     12  C   UNL     1      11.296  15.169  19.984  0.00  0.00    +0.000 A 
ATOM     13  C   UNL     1      10.885  15.404  18.688  0.00  0.00    +0.000 A 
ATOM     14  N   UNL     1      10.249  14.466  17.949  0.00  0.00    +0.000 NA
ATOM     15  C   UNL     1      10.028  13.279  18.548  0.00  0.00    +0.000 A 
ATOM     16  C   UNL     1       9.356  12.277  17.854  0.00  0.00    +0.000 A 
ENDBRANCH   6   7
ENDBRANCH   3   5
BRANCH   1  17
ATOM     17  C   UNL     1       6.574   5.664  17.072  0.00  0.00    +0.000 C 
BRANCH  17  18
ATOM     18  N   UNL     1       6.698   6.045  15.639  0.00  0.00    +0.000 NA
ATOM     19  H   UNL     1       6.134   6.887  15.493  0.00  0.00    +0.000 HD
ATOM     20  H   UNL     1       6.207   5.337  15.087  0.00  0.00    +0.000 HD
ENDBRANCH  17  18
BRANCH  17  21
ATOM     21  C   UNL     1       5.121   5.755  17.574  0.00  0.00    +0.000 C 
BRANCH  21  22
ATOM     22  C   UNL     1       4.648   4.571  18.363  0.00  0.00    +0.000 A 
ATOM     23  C   UNL     1       5.437   3.762  19.158  0.00  0.00    +0.000 A 
ATOM     24  N   UNL     1       4.654   2.771  19.683  0.00  0.00    +0.000 N 
ATOM     25  C   UNL     1       3.363   2.897  19.228  0.00  0.00    +0.000 A 
ATOM     26  C   UNL     1       2.241   2.098  19.480  0.00  0.00    +0.000 A 
ATOM     27  C   UNL     1       1.035   2.468  18.879  0.00  0.00    +0.000 A 
ATOM     28  C   UNL     1       0.956   3.597  18.067  0.00  0.00    +0.000 A 
ATOM     29  C   UNL     1       2.089   4.384  17.827  0.00  0.00    +0.000 A 
ATOM     30  C   UNL     1       3.322   4.029  18.412  0.00  0.00    +0.000 A 
ATOM     31  H   UNL     1       4.976   2.045  20.306  0.00  0.00    +0.000 HD
ENDBRANCH  21  22
ENDBRANCH  17  21
ENDBRANCH   1  17
TORSDOF 6
ENDMDL
MODEL 4
REMARK VINA RESULT:      -8.6      1.085      1.591
REMARK  Name = 
REMARK  6 active torsions:
REMARK  status: ('A' for Active; 'I' for Inactive)
REMARK    1  A    between atoms: N_1  and  C_2
REMARK    2  A    between atoms: C_2  and  C_3
REMARK    3  A    between atoms: C_2  and  C_13
REMARK    4  A    between atoms: C_3  and  C_4
REMARK    5  A    between atoms: N_15  and  N_16
REMARK    6  A    between atoms: C_17  and  C_18
REMARK                            x       y       z     vdW  Elec       q    Type
REMARK                         _______ _______ _______ _____ _____    ______ ____
ROOT
ATOM      1  C   UNL     1       7.558   6.524  17.386  0.00  0.00    +0.000 C 
ATOM      2  O   UNL     1       7.674   6.868  16.209  0.00  0.00    +0.000 OA
ATOM      3  N   UNL     1       7.871   7.336  18.473  0.00  0.00    +0.000 N 
ATOM      4  H   UNL     1       7.813   6.995  19.425  0.00  0.00    +0.000 HD
ENDROOT
BRANCH   3   5
ATOM      5  N   UNL     1       8.332   8.595  18.237  0.00  0.00    +0.000 NA
ATOM      6  C   UNL     1       8.907   9.213  19.216  0.00  0.00    +0.000 C 
BRANCH   6   7
ATOM      7  C   UNL     1       9.466  10.569  19.017  0.00  0.00    +0.000 A 
ATOM      8  C   UNL     1       9.993  10.933  17.778  0.00  0.00    +0.000 A 
ATOM      9  C   UNL     1      10.567  12.194  17.615  0.00  0.00    +0.000 A 
ATOM     10  C   UNL     1      10.630  13.096  18.667  0.00  0.00    +0.000 A 
ATOM     11  N   UNL     1      11.217  14.292  18.474  0.00  0.00    +0.000 NA
ATOM     12  C   UNL     1      11.263  15.118  19.540  0.00  0.00    +0.000 A 
ATOM     13  C   UNL     1      10.729  14.767  20.763  0.00  0.00    +0.000 A 
ATOM     14  N   UNL     1      10.128  13.574  20.975  0.00  0.00    +0.000 NA
ATOM     15  C   UNL     1      10.081  12.731  19.924  0.00  0.00    +0.000 A 
ATOM     16  C   UNL     1       9.501  11.475  20.080  0.00  0.00    +0.000 A 
ENDBRANCH   6   7
ENDBRANCH   3   5
BRANCH   1  17
ATOM     17  C   UNL     1       7.059   5.107  17.766  0.00  0.00    +0.000 C 
BRANCH  17  18
ATOM     18  N   UNL     1       8.210   4.165  17.720  0.00  0.00    +0.000 NA
ATOM     19  H   UNL     1       8.264   3.698  18.629  0.00  0.00    +0.000 HD
ATOM     20  H   UNL     1       9.067   4.723  17.694  0.00  0.00    +0.000 HD
ENDBRANCH  17  18
BRANCH  17  21
ATOM     21  C   UNL     1       5.923   4.683  16.816  0.00  0.00    +0.000 C 
BRANCH  21  22
ATOM     22  C   UNL     1       4.538   4.929  17.337  0.00  0.00    +0.000 A 
ATOM     23  C   UNL     1       3.968   6.167  17.564  0.00  0.00    +0.000 A 
ATOM     24  N   UNL     1       2.712   5.980  18.070  0.00  0.00    +0.000 N 
ATOM     25  C   UNL     1       2.449   4.638  18.204  0.00  0.00    +0.000 A 
ATOM     26  C   UNL     1       1.311   3.991  18.701  0.00  0.00    +0.000 A 
ATOM     27  C   UNL     1       1.317   2.594  18.717  0.00  0.00    +0.000 A 
ATOM     28  C   UNL     1       2.414   1.875  18.247  0.00  0.00    +0.000 A 
ATOM     29  C   UNL     1       3.543   2.540  17.753  0.00  0.00    +0.000 A 
ATOM     30  C   UNL     1       3.569   3.950  17.734  0.00  0.00    +0.000 A 
ATOM     31  H   UNL     1       2.069   6.719  18.320  0.00  0.00    +0.000 HD
ENDBRANCH  21  22
ENDBRANCH  17  21
ENDBRANCH   1  17
TORSDOF 6
ENDMDL
MODEL 5
REMARK VINA RESULT:      -8.6      1.798      2.217
REMARK  Name = 
REMARK  6 active torsions:
REMARK  status: ('A' for Active; 'I' for Inactive)
REMARK    1  A    between atoms: N_1  and  C_2
REMARK    2  A    between atoms: C_2  and  C_3
REMARK    3  A    between atoms: C_2  and  C_13
REMARK    4  A    between atoms: C_3  and  C_4
REMARK    5  A    between atoms: N_15  and  N_16
REMARK    6  A    between atoms: C_17  and  C_18
REMARK                            x       y       z     vdW  Elec       q    Type
REMARK                         _______ _______ _______ _____ _____    ______ ____
ROOT
ATOM      1  C   UNL     1       7.756   7.177  18.160  0.00  0.00    +0.000 C 
ATOM      2  O   UNL     1       7.570   7.266  16.946  0.00  0.00    +0.000 OA
ATOM      3  N   UNL     1       8.413   8.138  18.924  0.00  0.00    +0.000 N 
ATOM      4  H   UNL     1       8.593   8.001  19.911  0.00  0.00    +0.000 HD
ENDROOT
BRANCH   3   5
ATOM      5  N   UNL     1       8.881   9.256  18.305  0.00  0.00    +0.000 NA
ATOM      6  C   UNL     1       9.161  10.277  19.049  0.00  0.00    +0.000 C 
BRANCH   6   7
ATOM      7  C   UNL     1       9.712  11.511  18.445  0.00  0.00    +0.000 A 
ATOM      8  C   UNL     1      10.979  11.499  17.863  0.00  0.00    +0.000 A 
ATOM      9  C   UNL     1      11.512  12.679  17.344  0.00  0.00    +0.000 A 
ATOM     10  C   UNL     1      10.807  13.873  17.402  0.00  0.00    +0.000 A 
ATOM     11  N   UNL     1      11.370  14.994  16.915  0.00  0.00    +0.000 NA
ATOM     12  C   UNL     1      10.642  16.125  17.017  0.00  0.00    +0.000 A 
ATOM     13  C   UNL     1       9.381  16.138  17.578  0.00  0.00    +0.000 A 
ATOM     14  N   UNL     1       8.795  15.020  18.066  0.00  0.00    +0.000 NA
ATOM     15  C   UNL     1       9.511  13.882  17.983  0.00  0.00    +0.000 A 
ATOM     16  C   UNL     1       8.979  12.699  18.489  0.00  0.00    +0.000 A 
ENDBRANCH   6   7
ENDBRANCH   3   5
BRANCH   1  17
ATOM     17  C   UNL     1       7.279   5.938  18.960  0.00  0.00    +0.000 C 
BRANCH  17  18
ATOM     18  N   UNL     1       8.454   5.319  19.632  0.00  0.00    +0.000 NA
ATOM     19  H   UNL     1       9.297   5.681  19.177  0.00  0.00    +0.000 HD
ATOM     20  H   UNL     1       8.464   4.326  19.385  0.00  0.00    +0.000 HD
ENDBRANCH  17  18
BRANCH  17  21
ATOM     21  C   UNL     1       6.565   4.953  18.015  0.00  0.00    +0.000 C 
BRANCH  21  22
ATOM     22  C   UNL     1       5.067   5.012  18.056  0.00  0.00    +0.000 A 
ATOM     23  C   UNL     1       4.276   5.935  17.399  0.00  0.00    +0.000 A 
ATOM     24  N   UNL     1       2.968   5.685  17.708  0.00  0.00    +0.000 N 
ATOM     25  C   UNL     1       2.881   4.624  18.578  0.00  0.00    +0.000 A 
ATOM     26  C   UNL     1       1.756   4.043  19.175  0.00  0.00    +0.000 A 
ATOM     27  C   UNL     1       1.965   2.956  20.029  0.00  0.00    +0.000 A 
ATOM     28  C   UNL     1       3.247   2.468  20.266  0.00  0.00    +0.000 A 
ATOM     29  C   UNL     1       4.361   3.062  19.659  0.00  0.00    +0.000 A 
ATOM     30  C   UNL     1       4.181   4.167  18.801  0.00  0.00    +0.000 A 
ATOM     31  H   UNL     1       2.177   6.208  17.358  0.00  0.00    +0.000 HD
ENDBRANCH  21  22
ENDBRANCH  17  21
ENDBRANCH   1  17
TORSDOF 6
ENDMDL
MODEL 6
REMARK VINA RESULT:      -8.5      1.137      1.796
REMARK  Name = 
REMARK  6 active torsions:
REMARK  status: ('A' for Active; 'I' for Inactive)
REMARK    1  A    between atoms: N_1  and  C_2
REMARK    2  A    between atoms: C_2  and  C_3
REMARK    3  A    between atoms: C_2  and  C_13
REMARK    4  A    between atoms: C_3  and  C_4
REMARK    5  A    between atoms: N_15  and  N_16
REMARK    6  A    between atoms: C_17  and  C_18
REMARK                            x       y       z     vdW  Elec       q    Type
REMARK                         _______ _______ _______ _____ _____    ______ ____
ROOT
ATOM      1  C   UNL     1       7.220   6.561  17.499  0.00  0.00    +0.000 C 
ATOM      2  O   UNL     1       7.566   6.294  18.651  0.00  0.00    +0.000 OA
ATOM      3  N   UNL     1       7.140   7.854  16.987  0.00  0.00    +0.000 N 
ATOM      4  H   UNL     1       6.799   8.035  16.051  0.00  0.00    +0.000 HD
ENDROOT
BRANCH   3   5
ATOM      5  N   UNL     1       7.466   8.899  17.796  0.00  0.00    +0.000 NA
ATOM      6  C   UNL     1       8.659   9.386  17.690  0.00  0.00    +0.000 C 
BRANCH   6   7
ATOM      7  C   UNL     1       9.065  10.548  18.512  0.00  0.00    +0.000 A 
ATOM      8  C   UNL     1       9.468  10.363  19.834  0.00  0.00    +0.000 A 
ATOM      9  C   UNL     1       9.797  11.469  20.618  0.00  0.00    +0.000 A 
ATOM     10  C   UNL     1       9.726  12.758  20.108  0.00  0.00    +0.000 A 
ATOM     11  N   UNL     1      10.026  13.798  20.907  0.00  0.00    +0.000 NA
ATOM     12  C   UNL     1       9.920  15.027  20.359  0.00  0.00    +0.000 A 
ATOM     13  C   UNL     1       9.538  15.213  19.046  0.00  0.00    +0.000 A 
ATOM     14  N   UNL     1       9.240  14.179  18.225  0.00  0.00    +0.000 NA
ATOM     15  C   UNL     1       9.330  12.946  18.758  0.00  0.00    +0.000 A 
ATOM     16  C   UNL     1       9.012  11.837  17.977  0.00  0.00    +0.000 A 
ENDBRANCH   6   7
ENDBRANCH   3   5
BRANCH   1  17
ATOM     17  C   UNL     1       6.811   5.449  16.501  0.00  0.00    +0.000 C 
BRANCH  17  18
ATOM     18  N   UNL     1       7.593   5.620  15.246  0.00  0.00    +0.000 NA
ATOM     19  H   UNL     1       8.562   5.817  15.509  0.00  0.00    +0.000 HD
ATOM     20  H   UNL     1       7.288   6.493  14.808  0.00  0.00    +0.000 HD
ENDBRANCH  17  18
BRANCH  17  21
ATOM     21  C   UNL     1       5.292   5.507  16.251  0.00  0.00    +0.000 C 
BRANCH  21  22
ATOM     22  C   UNL     1       4.461   4.734  17.231  0.00  0.00    +0.000 A 
ATOM     23  C   UNL     1       4.329   3.360  17.272  0.00  0.00    +0.000 A 
ATOM     24  N   UNL     1       3.463   3.036  18.280  0.00  0.00    +0.000 N 
ATOM     25  C   UNL     1       3.001   4.176  18.892  0.00  0.00    +0.000 A 
ATOM     26  C   UNL     1       2.087   4.324  19.942  0.00  0.00    +0.000 A 
ATOM     27  C   UNL     1       1.799   5.622  20.373  0.00  0.00    +0.000 A 
ATOM     28  C   UNL     1       2.410   6.725  19.780  0.00  0.00    +0.000 A 
ATOM     29  C   UNL     1       3.322   6.558  18.732  0.00  0.00    +0.000 A 
ATOM     30  C   UNL     1       3.624   5.259  18.269  0.00  0.00    +0.000 A 
ATOM     31  H   UNL     1       3.192   2.097  18.534  0.00  0.00    +0.000 HD
ENDBRANCH  21  22
ENDBRANCH  17  21
ENDBRANCH   1  17
TORSDOF 6
ENDMDL
MODEL 7
REMARK VINA RESULT:      -8.4      1.566      1.764
REMARK  Name = 
REMARK  6 active torsions:
REMARK  status: ('A' for Active; 'I' for Inactive)
REMARK    1  A    between atoms: N_1  and  C_2
REMARK    2  A    between atoms: C_2  and  C_3
REMARK    3  A    between atoms: C_2  and  C_13
REMARK    4  A    between atoms: C_3  and  C_4
REMARK    5  A    between atoms: N_15  and  N_16
REMARK    6  A    between atoms: C_17  and  C_18
REMARK                            x       y       z     vdW  Elec       q    Type
REMARK                         _______ _______ _______ _____ _____    ______ ____
ROOT
ATOM      1  C   UNL     1       6.386   7.011  16.993  0.00  0.00    +0.000 C 
ATOM      2  O   UNL     1       5.401   7.609  17.428  0.00  0.00    +0.000 OA
ATOM      3  N   UNL     1       7.670   7.549  16.948  0.00  0.00    +0.000 N 
ATOM      4  H   UNL     1       8.444   7.044  16.532  0.00  0.00    +0.000 HD
ENDROOT
BRANCH   3   5
ATOM      5  N   UNL     1       7.867   8.812  17.415  0.00  0.00    +0.000 NA
ATOM      6  C   UNL     1       8.716   8.967  18.378  0.00  0.00    +0.000 C 
BRANCH   6   7
ATOM      7  C   UNL     1       9.006  10.319  18.906  0.00  0.00    +0.000 A 
ATOM      8  C   UNL     1       9.385  10.483  20.238  0.00  0.00    +0.000 A 
ATOM      9  C   UNL     1       9.604  11.765  20.741  0.00  0.00    +0.000 A 
ATOM     10  C   UNL     1       9.446  12.888  19.942  0.00  0.00    +0.000 A 
ATOM     11  N   UNL     1       9.639  14.108  20.474  0.00  0.00    +0.000 NA
ATOM     12  C   UNL     1       9.452  15.161  19.651  0.00  0.00    +0.000 A 
ATOM     13  C   UNL     1       9.093  15.002  18.328  0.00  0.00    +0.000 A 
ATOM     14  N   UNL     1       8.901  13.783  17.772  0.00  0.00    +0.000 NA
ATOM     15  C   UNL     1       9.073  12.720  18.582  0.00  0.00    +0.000 A 
ATOM     16  C   UNL     1       8.866  11.437  18.081  0.00  0.00    +0.000 A 
ENDBRANCH   6   7
ENDBRANCH   3   5
BRANCH   1  17
ATOM     17  C   UNL     1       6.272   5.576  16.421  0.00  0.00    +0.000 C 
BRANCH  17  18
ATOM     18  N   UNL     1       6.748   5.581  15.011  0.00  0.00    +0.000 NA
ATOM     19  H   UNL     1       6.091   5.023  14.460  0.00  0.00    +0.000 HD
ATOM     20  H   UNL     1       7.610   5.031  14.974  0.00  0.00    +0.000 HD
ENDBRANCH  17  18
BRANCH  17  21
ATOM     21  C   UNL     1       4.817   5.083  16.541  0.00  0.00    +0.000 C 
BRANCH  21  22
ATOM     22  C   UNL     1       4.527   4.258  17.759  0.00  0.00    +0.000 A 
ATOM     23  C   UNL     1       5.466   3.766  18.645  0.00  0.00    +0.000 A 
ATOM     24  N   UNL     1       4.819   3.035  19.602  0.00  0.00    +0.000 N 
ATOM     25  C   UNL     1       3.468   3.016  19.352  0.00  0.00    +0.000 A 
ATOM     26  C   UNL     1       2.436   2.374  20.046  0.00  0.00    +0.000 A 
ATOM     27  C   UNL     1       1.135   2.531  19.561  0.00  0.00    +0.000 A 
ATOM     28  C   UNL     1       0.879   3.305  18.432  0.00  0.00    +0.000 A 
ATOM     29  C   UNL     1       1.925   3.939  17.750  0.00  0.00    +0.000 A 
ATOM     30  C   UNL     1       3.250   3.790  18.211  0.00  0.00    +0.000 A 
ATOM     31  H   UNL     1       5.267   2.567  20.378  0.00  0.00    +0.000 HD
ENDBRANCH  21  22
ENDBRANCH  17  21
ENDBRANCH   1  17
TORSDOF 6
ENDMDL
MODEL 8
REMARK VINA RESULT:      -8.4      1.451      1.621
REMARK  Name = 
REMARK  6 active torsions:
REMARK  status: ('A' for Active; 'I' for Inactive)
REMARK    1  A    between atoms: N_1  and  C_2
REMARK    2  A    between atoms: C_2  and  C_3
REMARK    3  A    between atoms: C_2  and  C_13
REMARK    4  A    between atoms: C_3  and  C_4
REMARK    5  A    between atoms: N_15  and  N_16
REMARK    6  A    between atoms: C_17  and  C_18
REMARK                            x       y       z     vdW  Elec       q    Type
REMARK                         _______ _______ _______ _____ _____    ______ ____
ROOT
ATOM      1  C   UNL     1       7.045   7.050  17.485  0.00  0.00    +0.000 C 
ATOM      2  O   UNL     1       6.537   7.780  16.633  0.00  0.00    +0.000 OA
ATOM      3  N   UNL     1       8.066   7.445  18.346  0.00  0.00    +0.000 N 
ATOM      4  H   UNL     1       8.495   6.797  18.996  0.00  0.00    +0.000 HD
ENDROOT
BRANCH   3   5
ATOM      5  N   UNL     1       8.541   8.718  18.256  0.00  0.00    +0.000 NA
ATOM      6  C   UNL     1       8.971   9.273  19.342  0.00  0.00    +0.000 C 
BRANCH   6   7
ATOM      7  C   UNL     1       9.537  10.640  19.307  0.00  0.00    +0.000 A 
ATOM      8  C   UNL     1       9.604  11.399  20.475  0.00  0.00    +0.000 A 
ATOM      9  C   UNL     1      10.089  12.706  20.423  0.00  0.00    +0.000 A 
ATOM     10  C   UNL     1      10.502  13.272  19.226  0.00  0.00    +0.000 A 
ATOM     11  N   UNL     1      10.936  14.545  19.216  0.00  0.00    +0.000 NA
ATOM     12  C   UNL     1      11.307  15.045  18.018  0.00  0.00    +0.000 A 
ATOM     13  C   UNL     1      11.257  14.292  16.862  0.00  0.00    +0.000 A 
ATOM     14  N   UNL     1      10.830  13.008  16.854  0.00  0.00    +0.000 NA
ATOM     15  C   UNL     1      10.446  12.495  18.039  0.00  0.00    +0.000 A 
ATOM     16  C   UNL     1       9.971  11.187  18.098  0.00  0.00    +0.000 A 
ENDBRANCH   6   7
ENDBRANCH   3   5
BRANCH   1  17
ATOM     17  C   UNL     1       6.592   5.579  17.661  0.00  0.00    +0.000 C 
BRANCH  17  18
ATOM     18  N   UNL     1       7.607   4.686  17.039  0.00  0.00    +0.000 NA
ATOM     19  H   UNL     1       8.413   5.264  16.785  0.00  0.00    +0.000 HD
ATOM     20  H   UNL     1       7.241   4.386  16.132  0.00  0.00    +0.000 HD
ENDBRANCH  17  18
BRANCH  17  21
ATOM     21  C   UNL     1       5.194   5.388  17.043  0.00  0.00    +0.000 C 
BRANCH  21  22
ATOM     22  C   UNL     1       4.050   5.738  17.946  0.00  0.00    +0.000 A 
ATOM     23  C   UNL     1       3.399   6.956  17.993  0.00  0.00    +0.000 A 
ATOM     24  N   UNL     1       2.438   6.899  18.964  0.00  0.00    +0.000 N 
ATOM     25  C   UNL     1       2.457   5.669  19.578  0.00  0.00    +0.000 A 
ATOM     26  C   UNL     1       1.678   5.180  20.633  0.00  0.00    +0.000 A 
ATOM     27  C   UNL     1       1.915   3.871  21.060  0.00  0.00    +0.000 A 
ATOM     28  C   UNL     1       2.886   3.082  20.449  0.00  0.00    +0.000 A 
ATOM     29  C   UNL     1       3.656   3.588  19.394  0.00  0.00    +0.000 A 
ATOM     30  C   UNL     1       3.446   4.910  18.949  0.00  0.00    +0.000 A 
ATOM     31  H   UNL     1       1.809   7.652  19.205  0.00  0.00    +0.000 HD
ENDBRANCH  21  22
ENDBRANCH  17  21
ENDBRANCH   1  17
TORSDOF 6
ENDMDL
MODEL 9
REMARK VINA RESULT:      -8.4      1.866      2.382
REMARK  Name = 
REMARK  6 active torsions:
REMARK  status: ('A' for Active; 'I' for Inactive)
REMARK    1  A    between atoms: N_1  and  C_2
REMARK    2  A    between atoms: C_2  and  C_3
REMARK    3  A    between atoms: C_2  and  C_13
REMARK    4  A    between atoms: C_3  and  C_4
REMARK    5  A    between atoms: N_15  and  N_16
REMARK    6  A    between atoms: C_17  and  C_18
REMARK                            x       y       z     vdW  Elec       q    Type
REMARK                         _______ _______ _______ _____ _____    ______ ____
ROOT
ATOM      1  C   UNL     1       6.720   6.869  17.479  0.00  0.00    +0.000 C 
ATOM      2  O   UNL     1       6.152   7.439  16.547  0.00  0.00    +0.000 OA
ATOM      3  N   UNL     1       7.842   7.369  18.136  0.00  0.00    +0.000 N 
ATOM      4  H   UNL     1       8.312   6.843  18.862  0.00  0.00    +0.000 HD
ENDROOT
BRANCH   3   5
ATOM      5  N   UNL     1       8.352   8.567  17.738  0.00  0.00    +0.000 NA
ATOM      6  C   UNL     1       8.592   9.447  18.654  0.00  0.00    +0.000 C 
BRANCH   6   7
ATOM      7  C   UNL     1       9.183  10.756  18.294  0.00  0.00    +0.000 A 
ATOM      8  C   UNL     1      10.528  10.840  17.935  0.00  0.00    +0.000 A 
ATOM      9  C   UNL     1      11.090  12.085  17.650  0.00  0.00    +0.000 A 
ATOM     10  C   UNL     1      10.337  13.247  17.723  0.00  0.00    +0.000 A 
ATOM     11  N   UNL     1      10.926  14.430  17.468  0.00  0.00    +0.000 NA
ATOM     12  C   UNL     1      10.145  15.526  17.573  0.00  0.00    +0.000 A 
ATOM     13  C   UNL     1       8.810  15.445  17.913  0.00  0.00    +0.000 A 
ATOM     14  N   UNL     1       8.198  14.264  18.166  0.00  0.00    +0.000 NA
ATOM     15  C   UNL     1       8.964  13.160  18.076  0.00  0.00    +0.000 A 
ATOM     16  C   UNL     1       8.405  11.914  18.349  0.00  0.00    +0.000 A 
ENDBRANCH   6   7
ENDBRANCH   3   5
BRANCH   1  17
ATOM     17  C   UNL     1       6.234   5.493  17.999  0.00  0.00    +0.000 C 
BRANCH  17  18
ATOM     18  N   UNL     1       7.373   4.535  17.961  0.00  0.00    +0.000 NA
ATOM     19  H   UNL     1       7.389   4.038  18.856  0.00  0.00    +0.000 HD
ATOM     20  H   UNL     1       8.237   5.081  17.982  0.00  0.00    +0.000 HD
ENDBRANCH  17  18
BRANCH  17  21
ATOM     21  C   UNL     1       5.040   5.010  17.154  0.00  0.00    +0.000 C 
BRANCH  21  22
ATOM     22  C   UNL     1       4.174   3.978  17.814  0.00  0.00    +0.000 A 
ATOM     23  C   UNL     1       4.137   2.633  17.500  0.00  0.00    +0.000 A 
ATOM     24  N   UNL     1       3.203   2.027  18.294  0.00  0.00    +0.000 N 
ATOM     25  C   UNL     1       2.604   2.954  19.112  0.00  0.00    +0.000 A 
ATOM     26  C   UNL     1       1.583   2.791  20.057  0.00  0.00    +0.000 A 
ATOM     27  C   UNL     1       1.164   3.924  20.759  0.00  0.00    +0.000 A 
ATOM     28  C   UNL     1       1.748   5.167  20.529  0.00  0.00    +0.000 A 
ATOM     29  C   UNL     1       2.768   5.311  19.580  0.00  0.00    +0.000 A 
ATOM     30  C   UNL     1       3.205   4.186  18.849  0.00  0.00    +0.000 A 
ATOM     31  H   UNL     1       2.975   1.043  18.277  0.00  0.00    +0.000 HD
ENDBRANCH  21  22
ENDBRANCH  17  21
ENDBRANCH   1  17
TORSDOF 6
ENDMDL
