MODEL 1
REMARK VINA RESULT:      -9.0      0.000      0.000
REMARK  Name = 
REMARK  1 active torsions:
REMARK  status: ('A' for Active; 'I' for Inactive)
REMARK    1  A    between atoms: C_10  and  C_11
REMARK                            x       y       z     vdW  Elec       q    Type
REMARK                         _______ _______ _______ _____ _____    ______ ____
ROOT
ATOM      1  O   UNL     1       3.999   1.725  17.758  0.00  0.00    +0.000 OA
ATOM      2  C   UNL     1       3.742   2.907  17.886  0.00  0.00    +0.000 C 
ATOM      3  C   UNL     1       4.454   3.918  17.063  0.00  0.00    +0.000 A 
ATOM      4  C   UNL     1       5.220   3.423  15.984  0.00  0.00    +0.000 A 
ATOM      5  C   UNL     1       5.804   4.301  15.081  0.00  0.00    +0.000 A 
ATOM      6  C   UNL     1       5.629   5.669  15.257  0.00  0.00    +0.000 A 
ATOM      7  C   UNL     1       4.880   6.167  16.341  0.00  0.00    +0.000 A 
ATOM      8  C   UNL     1       4.283   5.309  17.286  0.00  0.00    +0.000 A 
ATOM      9  C   UNL     1       3.297   5.795  18.361  0.00  0.00    +0.000 C 
ATOM     10  C   UNL     1       3.270   7.112  18.726  0.00  0.00    +0.000 C 
ATOM     11  C   UNL     1       2.468   4.770  18.951  0.00  0.00    +0.000 A 
ATOM     12  S   UNL     1       1.188   5.004  20.068  0.00  0.00    +0.000 S 
ATOM     13  C   UNL     1       0.925   3.324  20.257  0.00  0.00    +0.000 A 
ATOM     14  C   UNL     1       1.792   2.579  19.497  0.00  0.00    +0.000 A 
ATOM     15  C   UNL     1       2.686   3.407  18.758  0.00  0.00    +0.000 A 
ENDROOT
BRANCH  10  16
ATOM     16  C   UNL     1       2.113   7.983  18.895  0.00  0.00    +0.000 A 
ATOM     17  C   UNL     1       1.795   8.783  17.814  0.00  0.00    +0.000 A 
ATOM     18  N   UNL     1       0.672   9.477  18.157  0.00  0.00    +0.000 N 
ATOM     19  C   UNL     1       0.770   9.705  19.498  0.00  0.00    +0.000 A 
ATOM     20  C   UNL     1       0.311  10.798  20.256  0.00  0.00    +0.000 A 
ATOM     21  C   UNL     1       0.341  10.659  21.636  0.00  0.00    +0.000 A 
ATOM     22  C   UNL     1       0.725   9.454  22.208  0.00  0.00    +0.000 A 
ATOM     23  C   UNL     1       1.269   8.398  21.425  0.00  0.00    +0.000 A 
ATOM     24  C   UNL     1       1.398   8.565  20.026  0.00  0.00    +0.000 A 
ATOM     25  H   UNL     1      -0.225   9.231  17.765  0.00  0.00    +0.000 HD
ENDBRANCH  10  16
TORSDOF 1
ENDMDL
MODEL 2
REMARK VINA RESULT:      -8.5      2.696      6.825
REMARK  Name = 
REMARK  1 active torsions:
REMARK  status: ('A' for Active; 'I' for Inactive)
REMARK    1  A    between atoms: C_10  and  C_11
REMARK                            x       y       z     vdW  Elec       q    Type
REMARK                         _______ _______ _______ _____ _____    ______ ____
ROOT
ATOM      1  O   UNL     1       1.682   4.712  21.400  0.00  0.00    +0.000 OA
ATOM      2  C   UNL     1       2.298   4.903  20.368  0.00  0.00    +0.000 C 
ATOM      3  C   UNL     1       2.207   6.214  19.676  0.00  0.00    +0.000 A 
ATOM      4  C   UNL     1       1.602   7.265  20.401  0.00  0.00    +0.000 A 
ATOM      5  C   UNL     1       1.599   8.555  19.889  0.00  0.00    +0.000 A 
ATOM      6  C   UNL     1       2.195   8.795  18.655  0.00  0.00    +0.000 A 
ATOM      7  C   UNL     1       2.785   7.747  17.923  0.00  0.00    +0.000 A 
ATOM      8  C   UNL     1       2.797   6.422  18.402  0.00  0.00    +0.000 A 
ATOM      9  C   UNL     1       3.599   5.292  17.738  0.00  0.00    +0.000 C 
ATOM     10  C   UNL     1       3.997   5.404  16.435  0.00  0.00    +0.000 C 
ATOM     11  C   UNL     1       3.847   4.136  18.568  0.00  0.00    +0.000 A 
ATOM     12  S   UNL     1       4.817   2.779  18.172  0.00  0.00    +0.000 S 
ATOM     13  C   UNL     1       4.420   1.959  19.620  0.00  0.00    +0.000 A 
ATOM     14  C   UNL     1       3.557   2.685  20.402  0.00  0.00    +0.000 A 
ATOM     15  C   UNL     1       3.218   3.928  19.794  0.00  0.00    +0.000 A 
ENDROOT
BRANCH  10  16
ATOM     16  C   UNL     1       5.309   5.129  15.861  0.00  0.00    +0.000 A 
ATOM     17  C   UNL     1       6.342   5.937  16.296  0.00  0.00    +0.000 A 
ATOM     18  N   UNL     1       7.474   5.492  15.680  0.00  0.00    +0.000 N 
ATOM     19  C   UNL     1       7.081   5.050  14.450  0.00  0.00    +0.000 A 
ATOM     20  C   UNL     1       7.777   5.067  13.228  0.00  0.00    +0.000 A 
ATOM     21  C   UNL     1       7.226   4.340  12.183  0.00  0.00    +0.000 A 
ATOM     22  C   UNL     1       6.091   3.569  12.393  0.00  0.00    +0.000 A 
ATOM     23  C   UNL     1       5.356   3.640  13.609  0.00  0.00    +0.000 A 
ATOM     24  C   UNL     1       5.806   4.493  14.644  0.00  0.00    +0.000 A 
ATOM     25  H   UNL     1       8.166   4.965  16.192  0.00  0.00    +0.000 HD
ENDBRANCH  10  16
TORSDOF 1
ENDMDL
MODEL 3
REMARK VINA RESULT:      -7.2      2.627      6.677
REMARK  Name = 
REMARK  1 active torsions:
REMARK  status: ('A' for Active; 'I' for Inactive)
REMARK    1  A    between atoms: C_10  and  C_11
REMARK                            x       y       z     vdW  Elec       q    Type
REMARK                         _______ _______ _______ _____ _____    ______ ____
ROOT
ATOM      1  O   UNL     1       0.487   7.212  21.529  0.00  0.00    +0.000 OA
ATOM      2  C   UNL     1       1.260   7.141  20.592  0.00  0.00    +0.000 C 
ATOM      3  C   UNL     1       1.458   8.311  19.698  0.00  0.00    +0.000 A 
ATOM      4  C   UNL     1       0.919   9.539  20.143  0.00  0.00    +0.000 A 
ATOM      5  C   UNL     1       1.175  10.709  19.442  0.00  0.00    +0.000 A 
ATOM      6  C   UNL     1       1.963  10.654  18.298  0.00  0.00    +0.000 A 
ATOM      7  C   UNL     1       2.489   9.429  17.843  0.00  0.00    +0.000 A 
ATOM      8  C   UNL     1       2.241   8.218  18.518  0.00  0.00    +0.000 A 
ATOM      9  C   UNL     1       2.954   6.900  18.176  0.00  0.00    +0.000 C 
ATOM     10  C   UNL     1       3.539   6.731  16.953  0.00  0.00    +0.000 C 
ATOM     11  C   UNL     1       2.913   5.887  19.205  0.00  0.00    +0.000 A 
ATOM     12  S   UNL     1       3.720   4.375  19.187  0.00  0.00    +0.000 S 
ATOM     13  C   UNL     1       3.012   3.877  20.663  0.00  0.00    +0.000 A 
ATOM     14  C   UNL     1       2.165   4.828  21.174  0.00  0.00    +0.000 A 
ATOM     15  C   UNL     1       2.098   5.977  20.333  0.00  0.00    +0.000 A 
ENDROOT
BRANCH  10  16
ATOM     16  C   UNL     1       4.863   6.203  16.646  0.00  0.00    +0.000 A 
ATOM     17  C   UNL     1       5.933   6.980  17.047  0.00  0.00    +0.000 A 
ATOM     18  N   UNL     1       7.063   6.295  16.710  0.00  0.00    +0.000 N 
ATOM     19  C   UNL     1       6.766   5.629  15.557  0.00  0.00    +0.000 A 
ATOM     20  C   UNL     1       7.600   5.300  14.473  0.00  0.00    +0.000 A 
ATOM     21  C   UNL     1       7.087   4.415  13.535  0.00  0.00    +0.000 A 
ATOM     22  C   UNL     1       5.844   3.830  13.735  0.00  0.00    +0.000 A 
ATOM     23  C   UNL     1       4.985   4.247  14.789  0.00  0.00    +0.000 A 
ATOM     24  C   UNL     1       5.415   5.262  15.675  0.00  0.00    +0.000 A 
ATOM     25  H   UNL     1       7.615   5.831  17.417  0.00  0.00    +0.000 HD
ENDBRANCH  10  16
TORSDOF 1
ENDMDL
MODEL 4
REMARK VINA RESULT:      -7.1      6.677     10.281
REMARK  Name = 
REMARK  1 active torsions:
REMARK  status: ('A' for Active; 'I' for Inactive)
REMARK    1  A    between atoms: C_10  and  C_11
REMARK                            x       y       z     vdW  Elec       q    Type
REMARK                         _______ _______ _______ _____ _____    ______ ____
ROOT
ATOM      1  O   UNL     1      -7.138  11.526  18.184  0.00  0.00    +0.000 OA
ATOM      2  C   UNL     1      -6.142  11.787  18.831  0.00  0.00    +0.000 C 
ATOM      3  C   UNL     1      -6.265  12.253  20.236  0.00  0.00    +0.000 A 
ATOM      4  C   UNL     1      -7.540  12.122  20.831  0.00  0.00    +0.000 A 
ATOM      5  C   UNL     1      -7.713  12.401  22.179  0.00  0.00    +0.000 A 
ATOM      6  C   UNL     1      -6.618  12.813  22.932  0.00  0.00    +0.000 A 
ATOM      7  C   UNL     1      -5.350  12.959  22.339  0.00  0.00    +0.000 A 
ATOM      8  C   UNL     1      -5.135  12.699  20.970  0.00  0.00    +0.000 A 
ATOM      9  C   UNL     1      -3.739  12.650  20.329  0.00  0.00    +0.000 C 
ATOM     10  C   UNL     1      -2.679  13.260  20.941  0.00  0.00    +0.000 C 
ATOM     11  C   UNL     1      -3.663  11.968  19.059  0.00  0.00    +0.000 A 
ATOM     12  S   UNL     1      -2.242  11.627  18.163  0.00  0.00    +0.000 S 
ATOM     13  C   UNL     1      -3.119  10.958  16.854  0.00  0.00    +0.000 A 
ATOM     14  C   UNL     1      -4.473  10.992  17.072  0.00  0.00    +0.000 A 
ATOM     15  C   UNL     1      -4.788  11.582  18.331  0.00  0.00    +0.000 A 
ENDROOT
BRANCH  10  16
ATOM     16  C   UNL     1      -1.341  12.732  21.175  0.00  0.00    +0.000 A 
ATOM     17  C   UNL     1      -0.392  13.043  20.219  0.00  0.00    +0.000 A 
ATOM     18  N   UNL     1       0.784  12.499  20.644  0.00  0.00    +0.000 N 
ATOM     19  C   UNL     1       0.450  11.348  21.296  0.00  0.00    +0.000 A 
ATOM     20  C   UNL     1       1.157  10.137  21.394  0.00  0.00    +0.000 A 
ATOM     21  C   UNL     1       0.688   9.211  22.315  0.00  0.00    +0.000 A 
ATOM     22  C   UNL     1      -0.374   9.532  23.148  0.00  0.00    +0.000 A 
ATOM     23  C   UNL     1      -1.128  10.725  22.968  0.00  0.00    +0.000 A 
ATOM     24  C   UNL     1      -0.771  11.622  21.933  0.00  0.00    +0.000 A 
ATOM     25  H   UNL     1       1.515  13.083  21.024  0.00  0.00    +0.000 HD
ENDBRANCH  10  16
TORSDOF 1
ENDMDL
MODEL 5
REMARK VINA RESULT:      -7.1      3.265      6.846
REMARK  Name = 
REMARK  1 active torsions:
REMARK  status: ('A' for Active; 'I' for Inactive)
REMARK    1  A    between atoms: C_10  and  C_11
REMARK                            x       y       z     vdW  Elec       q    Type
REMARK                         _______ _______ _______ _____ _____    ______ ____
ROOT
ATOM      1  O   UNL     1       0.676   6.475  20.551  0.00  0.00    +0.000 OA
ATOM      2  C   UNL     1       1.707   5.978  20.139  0.00  0.00    +0.000 C 
ATOM      3  C   UNL     1       2.125   4.631  20.607  0.00  0.00    +0.000 A 
ATOM      4  C   UNL     1       1.159   3.888  21.322  0.00  0.00    +0.000 A 
ATOM      5  C   UNL     1       1.414   2.571  21.676  0.00  0.00    +0.000 A 
ATOM      6  C   UNL     1       2.630   1.997  21.321  0.00  0.00    +0.000 A 
ATOM      7  C   UNL     1       3.601   2.740  20.622  0.00  0.00    +0.000 A 
ATOM      8  C   UNL     1       3.386   4.083  20.256  0.00  0.00    +0.000 A 
ATOM      9  C   UNL     1       4.326   4.865  19.324  0.00  0.00    +0.000 C 
ATOM     10  C   UNL     1       5.616   4.450  19.142  0.00  0.00    +0.000 C 
ATOM     11  C   UNL     1       3.759   6.047  18.720  0.00  0.00    +0.000 A 
ATOM     12  S   UNL     1       4.496   7.049  17.540  0.00  0.00    +0.000 S 
ATOM     13  C   UNL     1       3.199   8.166  17.547  0.00  0.00    +0.000 A 
ATOM     14  C   UNL     1       2.215   7.805  18.433  0.00  0.00    +0.000 A 
ATOM     15  C   UNL     1       2.540   6.597  19.115  0.00  0.00    +0.000 A 
ENDROOT
BRANCH  10  16
ATOM     16  C   UNL     1       6.354   4.305  17.893  0.00  0.00    +0.000 A 
ATOM     17  C   UNL     1       7.634   4.825  17.882  0.00  0.00    +0.000 A 
ATOM     18  N   UNL     1       8.159   4.550  16.654  0.00  0.00    +0.000 N 
ATOM     19  C   UNL     1       7.113   4.610  15.779  0.00  0.00    +0.000 A 
ATOM     20  C   UNL     1       7.095   5.015  14.432  0.00  0.00    +0.000 A 
ATOM     21  C   UNL     1       5.935   4.754  13.716  0.00  0.00    +0.000 A 
ATOM     22  C   UNL     1       4.897   4.044  14.304  0.00  0.00    +0.000 A 
ATOM     23  C   UNL     1       4.904   3.726  15.691  0.00  0.00    +0.000 A 
ATOM     24  C   UNL     1       6.006   4.115  16.487  0.00  0.00    +0.000 A 
ATOM     25  H   UNL     1       8.853   3.825  16.540  0.00  0.00    +0.000 HD
ENDBRANCH  10  16
TORSDOF 1
ENDMDL
MODEL 6
REMARK VINA RESULT:      -7.1      5.732      8.318
REMARK  Name = 
REMARK  1 active torsions:
REMARK  status: ('A' for Active; 'I' for Inactive)
REMARK    1  A    between atoms: C_10  and  C_11
REMARK                            x       y       z     vdW  Elec       q    Type
REMARK                         _______ _______ _______ _____ _____    ______ ____
ROOT
ATOM      1  O   UNL     1      -0.005   9.248  17.254  0.00  0.00    +0.000 OA
ATOM      2  C   UNL     1      -0.628   9.953  18.024  0.00  0.00    +0.000 C 
ATOM      3  C   UNL     1      -1.910  10.572  17.599  0.00  0.00    +0.000 A 
ATOM      4  C   UNL     1      -2.466  10.095  16.392  0.00  0.00    +0.000 A 
ATOM      5  C   UNL     1      -3.727  10.515  15.990  0.00  0.00    +0.000 A 
ATOM      6  C   UNL     1      -4.428  11.412  16.789  0.00  0.00    +0.000 A 
ATOM      7  C   UNL     1      -3.869  11.901  17.985  0.00  0.00    +0.000 A 
ATOM      8  C   UNL     1      -2.588  11.510  18.421  0.00  0.00    +0.000 A 
ATOM      9  C   UNL     1      -2.025  11.858  19.808  0.00  0.00    +0.000 C 
ATOM     10  C   UNL     1      -2.548  12.900  20.521  0.00  0.00    +0.000 C 
ATOM     11  C   UNL     1      -0.916  11.045  20.250  0.00  0.00    +0.000 A 
ATOM     12  S   UNL     1      -0.161  11.091  21.788  0.00  0.00    +0.000 S 
ATOM     13  C   UNL     1       1.026   9.943  21.340  0.00  0.00    +0.000 A 
ATOM     14  C   UNL     1       0.874   9.525  20.042  0.00  0.00    +0.000 A 
ATOM     15  C   UNL     1      -0.233  10.166  19.411  0.00  0.00    +0.000 A 
ENDROOT
BRANCH  10  16
ATOM     16  C   UNL     1      -2.934  12.934  21.927  0.00  0.00    +0.000 A 
ATOM     17  C   UNL     1      -4.254  12.631  22.199  0.00  0.00    +0.000 A 
ATOM     18  N   UNL     1      -4.395  12.675  23.555  0.00  0.00    +0.000 N 
ATOM     19  C   UNL     1      -3.547  13.653  23.987  0.00  0.00    +0.000 A 
ATOM     20  C   UNL     1      -3.676  14.535  25.075  0.00  0.00    +0.000 A 
ATOM     21  C   UNL     1      -2.554  15.273  25.420  0.00  0.00    +0.000 A 
ATOM     22  C   UNL     1      -1.350  15.062  24.762  0.00  0.00    +0.000 A 
ATOM     23  C   UNL     1      -1.268  14.233  23.608  0.00  0.00    +0.000 A 
ATOM     24  C   UNL     1      -2.433  13.584  23.134  0.00  0.00    +0.000 A 
ATOM     25  H   UNL     1      -4.476  11.824  24.093  0.00  0.00    +0.000 HD
ENDBRANCH  10  16
TORSDOF 1
ENDMDL
MODEL 7
REMARK VINA RESULT:      -7.0      6.484      8.912
REMARK  Name = 
REMARK  1 active torsions:
REMARK  status: ('A' for Active; 'I' for Inactive)
REMARK    1  A    between atoms: C_10  and  C_11
REMARK                            x       y       z     vdW  Elec       q    Type
REMARK                         _______ _______ _______ _____ _____    ______ ____
ROOT
ATOM      1  O   UNL     1       0.230   9.651  17.940  0.00  0.00    +0.000 OA
ATOM      2  C   UNL     1      -0.666  10.301  18.444  0.00  0.00    +0.000 C 
ATOM      3  C   UNL     1      -1.882  10.632  17.658  0.00  0.00    +0.000 A 
ATOM      4  C   UNL     1      -2.041   9.949  16.431  0.00  0.00    +0.000 A 
ATOM      5  C   UNL     1      -3.211  10.092  15.699  0.00  0.00    +0.000 A 
ATOM      6  C   UNL     1      -4.218  10.918  16.186  0.00  0.00    +0.000 A 
ATOM      7  C   UNL     1      -4.057  11.613  17.400  0.00  0.00    +0.000 A 
ATOM      8  C   UNL     1      -2.879  11.505  18.166  0.00  0.00    +0.000 A 
ATOM      9  C   UNL     1      -2.739  12.080  19.585  0.00  0.00    +0.000 C 
ATOM     10  C   UNL     1      -3.577  13.073  20.010  0.00  0.00    +0.000 C 
ATOM     11  C   UNL     1      -1.663  11.529  20.374  0.00  0.00    +0.000 A 
ATOM     12  S   UNL     1      -1.330  11.858  22.024  0.00  0.00    +0.000 S 
ATOM     13  C   UNL     1       0.094  10.909  22.020  0.00  0.00    +0.000 A 
ATOM     14  C   UNL     1       0.334  10.349  20.790  0.00  0.00    +0.000 A 
ATOM     15  C   UNL     1      -0.666  10.714  19.842  0.00  0.00    +0.000 A 
ENDROOT
BRANCH  10  16
ATOM     16  C   UNL     1      -4.300  13.170  21.272  0.00  0.00    +0.000 A 
ATOM     17  C   UNL     1      -5.449  12.408  21.372  0.00  0.00    +0.000 A 
ATOM     18  N   UNL     1      -5.942  12.606  22.628  0.00  0.00    +0.000 N 
ATOM     19  C   UNL     1      -5.641  13.897  22.949  0.00  0.00    +0.000 A 
ATOM     20  C   UNL     1      -6.353  14.811  23.746  0.00  0.00    +0.000 A 
ATOM     21  C   UNL     1      -5.697  15.983  24.093  0.00  0.00    +0.000 A 
ATOM     22  C   UNL     1      -4.370  16.173  23.731  0.00  0.00    +0.000 A 
ATOM     23  C   UNL     1      -3.702  15.277  22.851  0.00  0.00    +0.000 A 
ATOM     24  C   UNL     1      -4.394  14.149  22.352  0.00  0.00    +0.000 A 
ATOM     25  H   UNL     1      -5.853  11.890  23.335  0.00  0.00    +0.000 HD
ENDBRANCH  10  16
TORSDOF 1
ENDMDL
MODEL 8
REMARK VINA RESULT:      -7.0      8.784     11.584
REMARK  Name = 
REMARK  1 active torsions:
REMARK  status: ('A' for Active; 'I' for Inactive)
REMARK    1  A    between atoms: C_10  and  C_11
REMARK                            x       y       z     vdW  Elec       q    Type
REMARK                         _______ _______ _______ _____ _____    ______ ____
ROOT
ATOM      1  O   UNL     1       4.110  14.831  23.502  0.00  0.00    +0.000 OA
ATOM      2  C   UNL     1       5.255  14.561  23.194  0.00  0.00    +0.000 C 
ATOM      3  C   UNL     1       6.179  13.973  24.198  0.00  0.00    +0.000 A 
ATOM      4  C   UNL     1       5.592  13.520  25.400  0.00  0.00    +0.000 A 
ATOM      5  C   UNL     1       6.355  12.833  26.334  0.00  0.00    +0.000 A 
ATOM      6  C   UNL     1       7.701  12.603  26.071  0.00  0.00    +0.000 A 
ATOM      7  C   UNL     1       8.293  13.067  24.880  0.00  0.00    +0.000 A 
ATOM      8  C   UNL     1       7.556  13.780  23.914  0.00  0.00    +0.000 A 
ATOM      9  C   UNL     1       8.105  14.127  22.521  0.00  0.00    +0.000 C 
ATOM     10  C   UNL     1       9.453  14.139  22.296  0.00  0.00    +0.000 C 
ATOM     11  C   UNL     1       7.111  14.464  21.529  0.00  0.00    +0.000 A 
ATOM     12  S   UNL     1       7.387  14.763  19.863  0.00  0.00    +0.000 S 
ATOM     13  C   UNL     1       5.750  15.167  19.572  0.00  0.00    +0.000 A 
ATOM     14  C   UNL     1       4.991  15.090  20.712  0.00  0.00    +0.000 A 
ATOM     15  C   UNL     1       5.773  14.699  21.838  0.00  0.00    +0.000 A 
ENDROOT
BRANCH  10  16
ATOM     16  C   UNL     1      10.193  13.547  21.187  0.00  0.00    +0.000 A 
ATOM     17  C   UNL     1      10.927  14.425  20.413  0.00  0.00    +0.000 A 
ATOM     18  N   UNL     1      11.569  13.674  19.472  0.00  0.00    +0.000 N 
ATOM     19  C   UNL     1      10.727  12.641  19.180  0.00  0.00    +0.000 A 
ATOM     20  C   UNL     1      10.537  11.957  17.966  0.00  0.00    +0.000 A 
ATOM     21  C   UNL     1       9.782  10.794  18.013  0.00  0.00    +0.000 A 
ATOM     22  C   UNL     1       9.328  10.307  19.231  0.00  0.00    +0.000 A 
ATOM     23  C   UNL     1       9.456  11.063  20.430  0.00  0.00    +0.000 A 
ATOM     24  C   UNL     1      10.086  12.329  20.390  0.00  0.00    +0.000 A 
ATOM     25  H   UNL     1      12.560  13.493  19.546  0.00  0.00    +0.000 HD
ENDBRANCH  10  16
TORSDOF 1
ENDMDL
MODEL 9
REMARK VINA RESULT:      -7.0      2.866      6.254
REMARK  Name = 
REMARK  1 active torsions:
REMARK  status: ('A' for Active; 'I' for Inactive)
REMARK    1  A    between atoms: C_10  and  C_11
REMARK                            x       y       z     vdW  Elec       q    Type
REMARK                         _______ _______ _______ _____ _____    ______ ____
ROOT
ATOM      1  O   UNL     1       0.383   7.404  21.425  0.00  0.00    +0.000 OA
ATOM      2  C   UNL     1       1.169   7.388  20.497  0.00  0.00    +0.000 C 
ATOM      3  C   UNL     1       1.376   8.606  19.673  0.00  0.00    +0.000 A 
ATOM      4  C   UNL     1       0.827   9.806  20.178  0.00  0.00    +0.000 A 
ATOM      5  C   UNL     1       1.090  11.014  19.548  0.00  0.00    +0.000 A 
ATOM      6  C   UNL     1       1.894  11.025  18.414  0.00  0.00    +0.000 A 
ATOM      7  C   UNL     1       2.431   9.829  17.898  0.00  0.00    +0.000 A 
ATOM      8  C   UNL     1       2.177   8.582  18.502  0.00  0.00    +0.000 A 
ATOM      9  C   UNL     1       2.898   7.286  18.097  0.00  0.00    +0.000 C 
ATOM     10  C   UNL     1       3.502   7.188  16.874  0.00  0.00    +0.000 C 
ATOM     11  C   UNL     1       2.846   6.218  19.067  0.00  0.00    +0.000 A 
ATOM     12  S   UNL     1       3.657   4.710  18.975  0.00  0.00    +0.000 S 
ATOM     13  C   UNL     1       2.930   4.129  20.411  0.00  0.00    +0.000 A 
ATOM     14  C   UNL     1       2.073   5.048  20.962  0.00  0.00    +0.000 A 
ATOM     15  C   UNL     1       2.014   6.242  20.185  0.00  0.00    +0.000 A 
ENDROOT
BRANCH  10  16
ATOM     16  C   UNL     1       4.831   6.680  16.557  0.00  0.00    +0.000 A 
ATOM     17  C   UNL     1       4.945   5.978  15.373  0.00  0.00    +0.000 A 
ATOM     18  N   UNL     1       6.259   5.635  15.245  0.00  0.00    +0.000 N 
ATOM     19  C   UNL     1       6.713   5.418  16.513  0.00  0.00    +0.000 A 
ATOM     20  C   UNL     1       7.689   4.515  16.973  0.00  0.00    +0.000 A 
ATOM     21  C   UNL     1       8.117   4.670  18.283  0.00  0.00    +0.000 A 
ATOM     22  C   UNL     1       7.654   5.731  19.048  0.00  0.00    +0.000 A 
ATOM     23  C   UNL     1       6.602   6.575  18.592  0.00  0.00    +0.000 A 
ATOM     24  C   UNL     1       6.033   6.347  17.318  0.00  0.00    +0.000 A 
ATOM     25  H   UNL     1       6.855   6.114  14.586  0.00  0.00    +0.000 HD
ENDBRANCH  10  16
TORSDOF 1
ENDMDL
