MODEL 1
REMARK VINA RESULT:      -8.3      0.000      0.000
REMARK  Name = 
REMARK  7 active torsions:
REMARK  status: ('A' for Active; 'I' for Inactive)
REMARK    1  A    between atoms: C_1  and  C_2
REMARK    2  A    between atoms: C_3  and  C_4
REMARK    3  A    between atoms: C_4  and  O_5
REMARK    4  A    between atoms: O_5  and  C_6
REMARK    5  A    between atoms: C_9  and  C_10
REMARK    6  A    between atoms: N_12  and  C_13
REMARK    7  A    between atoms: C_24  and  C_25
REMARK                            x       y       z     vdW  Elec       q    Type
REMARK                         _______ _______ _______ _____ _____    ______ ____
ROOT
ATOM      1  C   UNL     1       2.929   6.726  18.576  0.00  0.00    +0.000 A 
ATOM      2  C   UNL     1       2.583   6.011  19.717  0.00  0.00    +0.000 A 
ATOM      3  C   UNL     1       1.800   6.588  20.700  0.00  0.00    +0.000 A 
ATOM      4  C   UNL     1       1.367   7.906  20.582  0.00  0.00    +0.000 A 
ATOM      5  C   UNL     1       1.794   8.757  19.540  0.00  0.00    +0.000 A 
ATOM      6  C   UNL     1       2.559   8.109  18.506  0.00  0.00    +0.000 A 
ATOM      7  C   UNL     1       1.119  10.161  19.372  0.00  0.00    +0.000 C 
ATOM      8  C   UNL     1      -0.354   9.794  19.745  0.00  0.00    +0.000 C 
ATOM      9  C   UNL     1      -0.287   9.407  21.253  0.00  0.00    +0.000 C 
ATOM     10  O   UNL     1       0.359   8.172  21.469  0.00  0.00    +0.000 OA
ATOM     11  N   UNL     1       1.288  11.323  20.354  0.00  0.00    +0.000 NA
ATOM     12  C   UNL     1       0.947  12.276  19.533  0.00  0.00    +0.000 C 
ATOM     13  C   UNL     1      -0.417  12.874  19.195  0.00  0.00    +0.000 C 
ATOM     14  C   UNL     1       1.706  12.032  18.308  0.00  0.00    +0.000 C 
ATOM     15  N   UNL     1       2.342  13.114  17.741  0.00  0.00    +0.000 N 
ATOM     16  N   UNL     1       1.509  10.791  18.018  0.00  0.00    +0.000 NA
ATOM     17  H   UNL     1       2.961  13.530  18.447  0.00  0.00    +0.000 HD
ATOM     18  H   UNL     1       1.701  13.897  17.613  0.00  0.00    +0.000 HD
ENDROOT
BRANCH   1  21
ATOM     19  C   UNL     1       4.997   5.893  17.386  0.00  0.00    +0.000 C 
ATOM     20  O   UNL     1       5.862   6.159  18.226  0.00  0.00    +0.000 OA
ATOM     21  N   UNL     1       3.607   6.061  17.507  0.00  0.00    +0.000 N 
ATOM     22  H   UNL     1       3.049   5.645  16.770  0.00  0.00    +0.000 HD
BRANCH  19  26
ATOM     23  C   UNL     1       6.316   4.098  13.716  0.00  0.00    +0.000 A 
ATOM     24  C   UNL     1       5.210   3.550  14.361  0.00  0.00    +0.000 A 
ATOM     25  C   UNL     1       4.765   4.151  15.565  0.00  0.00    +0.000 A 
ATOM     26  C   UNL     1       5.454   5.247  16.089  0.00  0.00    +0.000 A 
ATOM     27  N   UNL     1       6.562   5.766  15.491  0.00  0.00    +0.000 NA
ATOM     28  C   UNL     1       6.964   5.163  14.335  0.00  0.00    +0.000 A 
BRANCH  23  29
ATOM     29  O   UNL     1       6.676   3.512  12.538  0.00  0.00    +0.000 OA
BRANCH  29  30
ATOM     30  C   UNL     1       5.795   2.489  12.058  0.00  0.00    +0.000 C 
BRANCH  30  33
ATOM     31  C   UNL     1       2.773   4.279   9.597  0.00  0.00    +0.000 C 
ATOM     32  C   UNL     1       3.806   3.671  10.438  0.00  0.00    +0.000 C 
ATOM     33  C   UNL     1       4.724   3.125  11.185  0.00  0.00    +0.000 C 
ENDBRANCH  30  33
ENDBRANCH  29  30
ENDBRANCH  23  29
ENDBRANCH  19  26
ENDBRANCH   1  21
TORSDOF 5
ENDMDL
MODEL 2
REMARK VINA RESULT:      -8.0      3.185     10.624
REMARK  Name = 
REMARK  7 active torsions:
REMARK  status: ('A' for Active; 'I' for Inactive)
REMARK    1  A    between atoms: C_1  and  C_2
REMARK    2  A    between atoms: C_3  and  C_4
REMARK    3  A    between atoms: C_4  and  O_5
REMARK    4  A    between atoms: O_5  and  C_6
REMARK    5  A    between atoms: C_9  and  C_10
REMARK    6  A    between atoms: N_12  and  C_13
REMARK    7  A    between atoms: C_24  and  C_25
REMARK                            x       y       z     vdW  Elec       q    Type
REMARK                         _______ _______ _______ _____ _____    ______ ____
ROOT
ATOM      1  C   UNL     1       1.805   7.014  20.416  0.00  0.00    +0.000 A 
ATOM      2  C   UNL     1       1.313   5.922  21.120  0.00  0.00    +0.000 A 
ATOM      3  C   UNL     1       1.771   4.645  20.850  0.00  0.00    +0.000 A 
ATOM      4  C   UNL     1       2.714   4.424  19.848  0.00  0.00    +0.000 A 
ATOM      5  C   UNL     1       3.154   5.446  18.981  0.00  0.00    +0.000 A 
ATOM      6  C   UNL     1       2.702   6.769  19.326  0.00  0.00    +0.000 A 
ATOM      7  C   UNL     1       4.349   5.162  18.006  0.00  0.00    +0.000 C 
ATOM      8  C   UNL     1       5.234   4.260  18.928  0.00  0.00    +0.000 C 
ATOM      9  C   UNL     1       4.388   2.967  19.133  0.00  0.00    +0.000 C 
ATOM     10  O   UNL     1       3.267   3.178  19.962  0.00  0.00    +0.000 OA
ATOM     11  N   UNL     1       4.278   4.211  16.809  0.00  0.00    +0.000 NA
ATOM     12  C   UNL     1       5.290   4.706  16.153  0.00  0.00    +0.000 C 
ATOM     13  C   UNL     1       6.781   4.383  16.210  0.00  0.00    +0.000 C 
ATOM     14  C   UNL     1       5.089   6.153  16.151  0.00  0.00    +0.000 C 
ATOM     15  N   UNL     1       5.257   6.805  14.949  0.00  0.00    +0.000 N 
ATOM     16  N   UNL     1       4.859   6.475  17.378  0.00  0.00    +0.000 NA
ATOM     17  H   UNL     1       4.631   6.374  14.258  0.00  0.00    +0.000 HD
ATOM     18  H   UNL     1       6.151   6.568  14.519  0.00  0.00    +0.000 HD
ENDROOT
BRANCH   1  21
ATOM     19  C   UNL     1       0.198   8.715  21.372  0.00  0.00    +0.000 C 
ATOM     20  O   UNL     1      -0.720   7.976  21.738  0.00  0.00    +0.000 OA
ATOM     21  N   UNL     1       1.431   8.336  20.816  0.00  0.00    +0.000 N 
ATOM     22  H   UNL     1       2.116   9.078  20.719  0.00  0.00    +0.000 HD
BRANCH  19  26
ATOM     23  C   UNL     1      -0.250  12.941  21.980  0.00  0.00    +0.000 A 
ATOM     24  C   UNL     1      -1.014  12.075  22.759  0.00  0.00    +0.000 A 
ATOM     25  C   UNL     1      -0.855  10.679  22.569  0.00  0.00    +0.000 A 
ATOM     26  C   UNL     1       0.029  10.208  21.597  0.00  0.00    +0.000 A 
ATOM     27  N   UNL     1       0.750  11.044  20.800  0.00  0.00    +0.000 NA
ATOM     28  C   UNL     1       0.572  12.380  21.007  0.00  0.00    +0.000 A 
BRANCH  23  29
ATOM     29  O   UNL     1      -0.405  14.272  22.234  0.00  0.00    +0.000 OA
BRANCH  29  30
ATOM     30  C   UNL     1      -1.623  14.642  22.891  0.00  0.00    +0.000 C 
BRANCH  30  33
ATOM     31  C   UNL     1      -0.695  16.342  26.717  0.00  0.00    +0.000 C 
ATOM     32  C   UNL     1      -1.010  15.760  25.412  0.00  0.00    +0.000 C 
ATOM     33  C   UNL     1      -1.293  15.244  24.248  0.00  0.00    +0.000 C 
ENDBRANCH  30  33
ENDBRANCH  29  30
ENDBRANCH  23  29
ENDBRANCH  19  26
ENDBRANCH   1  21
TORSDOF 5
ENDMDL
MODEL 3
REMARK VINA RESULT:      -8.0      2.092      3.358
REMARK  Name = 
REMARK  7 active torsions:
REMARK  status: ('A' for Active; 'I' for Inactive)
REMARK    1  A    between atoms: C_1  and  C_2
REMARK    2  A    between atoms: C_3  and  C_4
REMARK    3  A    between atoms: C_4  and  O_5
REMARK    4  A    between atoms: O_5  and  C_6
REMARK    5  A    between atoms: C_9  and  C_10
REMARK    6  A    between atoms: N_12  and  C_13
REMARK    7  A    between atoms: C_24  and  C_25
REMARK                            x       y       z     vdW  Elec       q    Type
REMARK                         _______ _______ _______ _____ _____    ______ ____
ROOT
ATOM      1  C   UNL     1       1.487   9.478  18.583  0.00  0.00    +0.000 A 
ATOM      2  C   UNL     1       0.267   9.218  19.196  0.00  0.00    +0.000 A 
ATOM      3  C   UNL     1      -0.530  10.255  19.646  0.00  0.00    +0.000 A 
ATOM      4  C   UNL     1      -0.114  11.579  19.521  0.00  0.00    +0.000 A 
ATOM      5  C   UNL     1       1.170  11.931  19.056  0.00  0.00    +0.000 A 
ATOM      6  C   UNL     1       1.950  10.833  18.543  0.00  0.00    +0.000 A 
ATOM      7  C   UNL     1       1.495  13.437  18.768  0.00  0.00    +0.000 C 
ATOM      8  C   UNL     1       0.120  13.896  18.181  0.00  0.00    +0.000 C 
ATOM      9  C   UNL     1      -0.871  13.779  19.377  0.00  0.00    +0.000 C 
ATOM     10  O   UNL     1      -1.159  12.441  19.715  0.00  0.00    +0.000 OA
ATOM     11  N   UNL     1       1.619  14.514  19.847  0.00  0.00    +0.000 NA
ATOM     12  C   UNL     1       2.315  15.363  19.146  0.00  0.00    +0.000 C 
ATOM     13  C   UNL     1       1.882  16.483  18.202  0.00  0.00    +0.000 C 
ATOM     14  C   UNL     1       3.393  14.585  18.541  0.00  0.00    +0.000 C 
ATOM     15  N   UNL     1       4.664  15.113  18.615  0.00  0.00    +0.000 N 
ATOM     16  N   UNL     1       2.823  13.566  17.993  0.00  0.00    +0.000 NA
ATOM     17  H   UNL     1       4.882  15.287  19.604  0.00  0.00    +0.000 HD
ATOM     18  H   UNL     1       4.686  16.076  18.279  0.00  0.00    +0.000 HD
ENDROOT
BRANCH   1  21
ATOM     19  C   UNL     1       2.681   7.251  18.651  0.00  0.00    +0.000 C 
ATOM     20  O   UNL     1       2.428   6.896  19.806  0.00  0.00    +0.000 OA
ATOM     21  N   UNL     1       2.221   8.402  17.991  0.00  0.00    +0.000 N 
ATOM     22  H   UNL     1       2.414   8.445  16.996  0.00  0.00    +0.000 HD
BRANCH  19  26
ATOM     23  C   UNL     1       5.111   4.662  16.238  0.00  0.00    +0.000 A 
ATOM     24  C   UNL     1       4.088   4.096  16.994  0.00  0.00    +0.000 A 
ATOM     25  C   UNL     1       3.276   4.952  17.780  0.00  0.00    +0.000 A 
ATOM     26  C   UNL     1       3.534   6.323  17.803  0.00  0.00    +0.000 A 
ATOM     27  N   UNL     1       4.558   6.885  17.101  0.00  0.00    +0.000 NA
ATOM     28  C   UNL     1       5.321   6.033  16.358  0.00  0.00    +0.000 A 
BRANCH  23  29
ATOM     29  O   UNL     1       5.833   3.802  15.464  0.00  0.00    +0.000 OA
BRANCH  29  30
ATOM     30  C   UNL     1       6.358   4.350  14.249  0.00  0.00    +0.000 C 
BRANCH  30  33
ATOM     31  C   UNL     1       3.883   3.114  10.972  0.00  0.00    +0.000 C 
ATOM     32  C   UNL     1       4.730   3.535  12.089  0.00  0.00    +0.000 C 
ATOM     33  C   UNL     1       5.481   3.911  13.086  0.00  0.00    +0.000 C 
ENDBRANCH  30  33
ENDBRANCH  29  30
ENDBRANCH  23  29
ENDBRANCH  19  26
ENDBRANCH   1  21
TORSDOF 5
ENDMDL
MODEL 4
REMARK VINA RESULT:      -8.0      3.105      9.627
REMARK  Name = 
REMARK  7 active torsions:
REMARK  status: ('A' for Active; 'I' for Inactive)
REMARK    1  A    between atoms: C_1  and  C_2
REMARK    2  A    between atoms: C_3  and  C_4
REMARK    3  A    between atoms: C_4  and  O_5
REMARK    4  A    between atoms: O_5  and  C_6
REMARK    5  A    between atoms: C_9  and  C_10
REMARK    6  A    between atoms: N_12  and  C_13
REMARK    7  A    between atoms: C_24  and  C_25
REMARK                            x       y       z     vdW  Elec       q    Type
REMARK                         _______ _______ _______ _____ _____    ______ ____
ROOT
ATOM      1  C   UNL     1       1.855   7.428  19.945  0.00  0.00    +0.000 A 
ATOM      2  C   UNL     1       1.367   6.457  20.811  0.00  0.00    +0.000 A 
ATOM      3  C   UNL     1       1.863   5.166  20.775  0.00  0.00    +0.000 A 
ATOM      4  C   UNL     1       2.842   4.806  19.851  0.00  0.00    +0.000 A 
ATOM      5  C   UNL     1       3.284   5.678  18.834  0.00  0.00    +0.000 A 
ATOM      6  C   UNL     1       2.791   7.027  18.937  0.00  0.00    +0.000 A 
ATOM      7  C   UNL     1       4.515   5.267  17.954  0.00  0.00    +0.000 C 
ATOM      8  C   UNL     1       5.392   4.561  19.039  0.00  0.00    +0.000 C 
ATOM      9  C   UNL     1       4.572   3.298  19.439  0.00  0.00    +0.000 C 
ATOM     10  O   UNL     1       3.420   3.613  20.190  0.00  0.00    +0.000 OA
ATOM     11  N   UNL     1       4.504   4.126  16.935  0.00  0.00    +0.000 NA
ATOM     12  C   UNL     1       5.524   4.531  16.231  0.00  0.00    +0.000 C 
ATOM     13  C   UNL     1       7.020   4.265  16.382  0.00  0.00    +0.000 C 
ATOM     14  C   UNL     1       5.289   5.950  15.977  0.00  0.00    +0.000 C 
ATOM     15  N   UNL     1       5.478   6.394  14.686  0.00  0.00    +0.000 N 
ATOM     16  N   UNL     1       5.013   6.470  17.125  0.00  0.00    +0.000 NA
ATOM     17  H   UNL     1       4.884   5.834  14.063  0.00  0.00    +0.000 HD
ATOM     18  H   UNL     1       6.390   6.113  14.327  0.00  0.00    +0.000 HD
ENDROOT
BRANCH   1  21
ATOM     19  C   UNL     1       1.025   9.651  19.075  0.00  0.00    +0.000 C 
ATOM     20  O   UNL     1       0.821   9.368  17.892  0.00  0.00    +0.000 OA
ATOM     21  N   UNL     1       1.437   8.787  20.103  0.00  0.00    +0.000 N 
ATOM     22  H   UNL     1       1.405   9.172  21.041  0.00  0.00    +0.000 HD
BRANCH  19  26
ATOM     23  C   UNL     1       0.269  13.697  20.298  0.00  0.00    +0.000 A 
ATOM     24  C   UNL     1      -0.673  12.722  20.616  0.00  0.00    +0.000 A 
ATOM     25  C   UNL     1      -0.417  11.383  20.226  0.00  0.00    +0.000 A 
ATOM     26  C   UNL     1       0.744  11.079  19.513  0.00  0.00    +0.000 A 
ATOM     27  N   UNL     1       1.653  12.030  19.159  0.00  0.00    +0.000 NA
ATOM     28  C   UNL     1       1.375  13.307  19.548  0.00  0.00    +0.000 A 
BRANCH  23  29
ATOM     29  O   UNL     1      -0.002  14.960  20.736  0.00  0.00    +0.000 OA
BRANCH  29  30
ATOM     30  C   UNL     1      -1.179  15.568  20.192  0.00  0.00    +0.000 C 
BRANCH  30  33
ATOM     31  C   UNL     1      -0.068  18.084  16.903  0.00  0.00    +0.000 C 
ATOM     32  C   UNL     1      -0.445  17.226  18.027  0.00  0.00    +0.000 C 
ATOM     33  C   UNL     1      -0.784  16.460  19.026  0.00  0.00    +0.000 C 
ENDBRANCH  30  33
ENDBRANCH  29  30
ENDBRANCH  23  29
ENDBRANCH  19  26
ENDBRANCH   1  21
TORSDOF 5
ENDMDL
MODEL 5
REMARK VINA RESULT:      -7.9      2.378      4.026
REMARK  Name = 
REMARK  7 active torsions:
REMARK  status: ('A' for Active; 'I' for Inactive)
REMARK    1  A    between atoms: C_1  and  C_2
REMARK    2  A    between atoms: C_3  and  C_4
REMARK    3  A    between atoms: C_4  and  O_5
REMARK    4  A    between atoms: O_5  and  C_6
REMARK    5  A    between atoms: C_9  and  C_10
REMARK    6  A    between atoms: N_12  and  C_13
REMARK    7  A    between atoms: C_24  and  C_25
REMARK                            x       y       z     vdW  Elec       q    Type
REMARK                         _______ _______ _______ _____ _____    ______ ____
ROOT
ATOM      1  C   UNL     1       1.055   9.091  21.172  0.00  0.00    +0.000 A 
ATOM      2  C   UNL     1       0.352   8.608  22.269  0.00  0.00    +0.000 A 
ATOM      3  C   UNL     1      -0.519   9.428  22.964  0.00  0.00    +0.000 A 
ATOM      4  C   UNL     1      -0.687  10.761  22.597  0.00  0.00    +0.000 A 
ATOM      5  C   UNL     1       0.096  11.379  21.599  0.00  0.00    +0.000 A 
ATOM      6  C   UNL     1       0.949  10.485  20.859  0.00  0.00    +0.000 A 
ATOM      7  C   UNL     1      -0.279  12.823  21.115  0.00  0.00    +0.000 C 
ATOM      8  C   UNL     1      -1.838  12.721  21.163  0.00  0.00    +0.000 C 
ATOM      9  C   UNL     1      -2.170  12.559  22.676  0.00  0.00    +0.000 C 
ATOM     10  O   UNL     1      -1.805  11.292  23.179  0.00  0.00    +0.000 OA
ATOM     11  N   UNL     1      -0.136  14.083  21.971  0.00  0.00    +0.000 NA
ATOM     12  C   UNL     1      -0.122  14.941  20.990  0.00  0.00    +0.000 C 
ATOM     13  C   UNL     1      -1.258  15.665  20.270  0.00  0.00    +0.000 C 
ATOM     14  C   UNL     1       0.834  14.415  20.020  0.00  0.00    +0.000 C 
ATOM     15  N   UNL     1       1.753  15.302  19.503  0.00  0.00    +0.000 N 
ATOM     16  N   UNL     1       0.500  13.183  19.833  0.00  0.00    +0.000 NA
ATOM     17  H   UNL     1       2.263  15.730  20.286  0.00  0.00    +0.000 HD
ATOM     18  H   UNL     1       1.298  16.139  19.138  0.00  0.00    +0.000 HD
ENDROOT
BRANCH   1  21
ATOM     19  C   UNL     1       1.947   8.204  18.979  0.00  0.00    +0.000 C 
ATOM     20  O   UNL     1       1.523   9.063  18.200  0.00  0.00    +0.000 OA
ATOM     21  N   UNL     1       1.830   8.187  20.379  0.00  0.00    +0.000 N 
ATOM     22  H   UNL     1       2.374   7.476  20.856  0.00  0.00    +0.000 HD
BRANCH  19  26
ATOM     23  C   UNL     1       4.184   4.931  17.333  0.00  0.00    +0.000 A 
ATOM     24  C   UNL     1       4.545   6.227  16.974  0.00  0.00    +0.000 A 
ATOM     25  C   UNL     1       3.816   7.308  17.529  0.00  0.00    +0.000 A 
ATOM     26  C   UNL     1       2.746   7.055  18.388  0.00  0.00    +0.000 A 
ATOM     27  N   UNL     1       2.356   5.792  18.715  0.00  0.00    +0.000 NA
ATOM     28  C   UNL     1       3.076   4.774  18.162  0.00  0.00    +0.000 A 
BRANCH  23  29
ATOM     29  O   UNL     1       4.945   3.927  16.809  0.00  0.00    +0.000 OA
BRANCH  29  30
ATOM     30  C   UNL     1       6.181   4.333  16.210  0.00  0.00    +0.000 C 
BRANCH  30  33
ATOM     31  C   UNL     1       6.109   3.338  12.040  0.00  0.00    +0.000 C 
ATOM     32  C   UNL     1       6.132   3.679  13.462  0.00  0.00    +0.000 C 
ATOM     33  C   UNL     1       6.155   3.981  14.730  0.00  0.00    +0.000 C 
ENDBRANCH  30  33
ENDBRANCH  29  30
ENDBRANCH  23  29
ENDBRANCH  19  26
ENDBRANCH   1  21
TORSDOF 5
ENDMDL
MODEL 6
REMARK VINA RESULT:      -7.9      3.181      9.949
REMARK  Name = 
REMARK  7 active torsions:
REMARK  status: ('A' for Active; 'I' for Inactive)
REMARK    1  A    between atoms: C_1  and  C_2
REMARK    2  A    between atoms: C_3  and  C_4
REMARK    3  A    between atoms: C_4  and  O_5
REMARK    4  A    between atoms: O_5  and  C_6
REMARK    5  A    between atoms: C_9  and  C_10
REMARK    6  A    between atoms: N_12  and  C_13
REMARK    7  A    between atoms: C_24  and  C_25
REMARK                            x       y       z     vdW  Elec       q    Type
REMARK                         _______ _______ _______ _____ _____    ______ ____
ROOT
ATOM      1  C   UNL     1       1.795   7.030  20.394  0.00  0.00    +0.000 A 
ATOM      2  C   UNL     1       1.285   5.949  21.102  0.00  0.00    +0.000 A 
ATOM      3  C   UNL     1       1.729   4.665  20.844  0.00  0.00    +0.000 A 
ATOM      4  C   UNL     1       2.676   4.425  19.850  0.00  0.00    +0.000 A 
ATOM      5  C   UNL     1       3.135   5.436  18.979  0.00  0.00    +0.000 A 
ATOM      6  C   UNL     1       2.697   6.767  19.312  0.00  0.00    +0.000 A 
ATOM      7  C   UNL     1       4.333   5.130  18.015  0.00  0.00    +0.000 C 
ATOM      8  C   UNL     1       5.200   4.225  18.949  0.00  0.00    +0.000 C 
ATOM      9  C   UNL     1       4.338   2.944  19.157  0.00  0.00    +0.000 C 
ATOM     10  O   UNL     1       3.213   3.173  19.977  0.00  0.00    +0.000 OA
ATOM     11  N   UNL     1       4.259   4.173  16.824  0.00  0.00    +0.000 NA
ATOM     12  C   UNL     1       5.281   4.651  16.171  0.00  0.00    +0.000 C 
ATOM     13  C   UNL     1       6.768   4.310  16.241  0.00  0.00    +0.000 C 
ATOM     14  C   UNL     1       5.098   6.100  16.158  0.00  0.00    +0.000 C 
ATOM     15  N   UNL     1       5.282   6.742  14.952  0.00  0.00    +0.000 N 
ATOM     16  N   UNL     1       4.863   6.434  17.381  0.00  0.00    +0.000 NA
ATOM     17  H   UNL     1       4.655   6.313  14.260  0.00  0.00    +0.000 HD
ATOM     18  H   UNL     1       6.176   6.491  14.530  0.00  0.00    +0.000 HD
ENDROOT
BRANCH   1  21
ATOM     19  C   UNL     1       0.215   8.751  21.359  0.00  0.00    +0.000 C 
ATOM     20  O   UNL     1      -0.697   8.021  21.756  0.00  0.00    +0.000 OA
ATOM     21  N   UNL     1       1.434   8.359  20.781  0.00  0.00    +0.000 N 
ATOM     22  H   UNL     1       2.119   9.097  20.659  0.00  0.00    +0.000 HD
BRANCH  19  26
ATOM     23  C   UNL     1      -0.205  12.987  21.914  0.00  0.00    +0.000 A 
ATOM     24  C   UNL     1      -0.973  12.136  22.705  0.00  0.00    +0.000 A 
ATOM     25  C   UNL     1      -0.824  10.737  22.532  0.00  0.00    +0.000 A 
ATOM     26  C   UNL     1       0.056  10.248  21.565  0.00  0.00    +0.000 A 
ATOM     27  N   UNL     1       0.781  11.069  20.756  0.00  0.00    +0.000 NA
ATOM     28  C   UNL     1       0.612  12.409  20.947  0.00  0.00    +0.000 A 
BRANCH  23  29
ATOM     29  O   UNL     1      -0.352  14.323  22.151  0.00  0.00    +0.000 OA
BRANCH  29  30
ATOM     30  C   UNL     1      -1.563  14.911  21.664  0.00  0.00    +0.000 C 
BRANCH  30  33
ATOM     31  C   UNL     1      -0.680  17.271  18.195  0.00  0.00    +0.000 C 
ATOM     32  C   UNL     1      -0.983  16.468  19.380  0.00  0.00    +0.000 C 
ATOM     33  C   UNL     1      -1.250  15.749  20.435  0.00  0.00    +0.000 C 
ENDBRANCH  30  33
ENDBRANCH  29  30
ENDBRANCH  23  29
ENDBRANCH  19  26
ENDBRANCH   1  21
TORSDOF 5
ENDMDL
MODEL 7
REMARK VINA RESULT:      -7.9      3.755     10.875
REMARK  Name = 
REMARK  7 active torsions:
REMARK  status: ('A' for Active; 'I' for Inactive)
REMARK    1  A    between atoms: C_1  and  C_2
REMARK    2  A    between atoms: C_3  and  C_4
REMARK    3  A    between atoms: C_4  and  O_5
REMARK    4  A    between atoms: O_5  and  C_6
REMARK    5  A    between atoms: C_9  and  C_10
REMARK    6  A    between atoms: N_12  and  C_13
REMARK    7  A    between atoms: C_24  and  C_25
REMARK                            x       y       z     vdW  Elec       q    Type
REMARK                         _______ _______ _______ _____ _____    ______ ____
ROOT
ATOM      1  C   UNL     1       1.977   8.301  19.152  0.00  0.00    +0.000 A 
ATOM      2  C   UNL     1       2.835   8.696  18.132  0.00  0.00    +0.000 A 
ATOM      3  C   UNL     1       3.601   7.764  17.455  0.00  0.00    +0.000 A 
ATOM      4  C   UNL     1       3.552   6.416  17.801  0.00  0.00    +0.000 A 
ATOM      5  C   UNL     1       2.832   5.944  18.920  0.00  0.00    +0.000 A 
ATOM      6  C   UNL     1       2.002   6.929  19.565  0.00  0.00    +0.000 A 
ATOM      7  C   UNL     1       2.673   4.399  19.133  0.00  0.00    +0.000 C 
ATOM      8  C   UNL     1       2.511   3.942  17.646  0.00  0.00    +0.000 C 
ATOM      9  C   UNL     1       3.891   4.255  16.992  0.00  0.00    +0.000 C 
ATOM     10  O   UNL     1       4.111   5.638  16.824  0.00  0.00    +0.000 OA
ATOM     11  N   UNL     1       3.820   3.457  19.506  0.00  0.00    +0.000 NA
ATOM     12  C   UNL     1       3.085   2.494  19.987  0.00  0.00    +0.000 C 
ATOM     13  C   UNL     1       2.434   1.291  19.308  0.00  0.00    +0.000 C 
ATOM     14  C   UNL     1       2.134   3.137  20.891  0.00  0.00    +0.000 C 
ATOM     15  N   UNL     1       1.960   2.558  22.129  0.00  0.00    +0.000 N 
ATOM     16  N   UNL     1       1.616   4.109  20.219  0.00  0.00    +0.000 NA
ATOM     17  H   UNL     1       2.877   2.495  22.587  0.00  0.00    +0.000 HD
ATOM     18  H   UNL     1       1.758   1.561  22.048  0.00  0.00    +0.000 HD
ENDROOT
BRANCH   1  21
ATOM     19  C   UNL     1       0.961   9.550  21.100  0.00  0.00    +0.000 C 
ATOM     20  O   UNL     1       1.675   9.148  22.023  0.00  0.00    +0.000 OA
ATOM     21  N   UNL     1       1.085   9.257  19.732  0.00  0.00    +0.000 N 
ATOM     22  H   UNL     1       0.497   9.802  19.110  0.00  0.00    +0.000 HD
BRANCH  19  26
ATOM     23  C   UNL     1      -2.171  12.331  22.043  0.00  0.00    +0.000 A 
ATOM     24  C   UNL     1      -1.682  11.514  23.060  0.00  0.00    +0.000 A 
ATOM     25  C   UNL     1      -0.638  10.607  22.752  0.00  0.00    +0.000 A 
ATOM     26  C   UNL     1      -0.148  10.529  21.447  0.00  0.00    +0.000 A 
ATOM     27  N   UNL     1      -0.647  11.292  20.434  0.00  0.00    +0.000 NA
ATOM     28  C   UNL     1      -1.652  12.152  20.764  0.00  0.00    +0.000 A 
BRANCH  23  29
ATOM     29  O   UNL     1      -3.143  13.219  22.401  0.00  0.00    +0.000 OA
BRANCH  29  30
ATOM     30  C   UNL     1      -3.630  13.101  23.743  0.00  0.00    +0.000 C 
BRANCH  30  33
ATOM     31  C   UNL     1      -7.916  13.185  23.690  0.00  0.00    +0.000 C 
ATOM     32  C   UNL     1      -6.453  13.158  23.710  0.00  0.00    +0.000 C 
ATOM     33  C   UNL     1      -5.150  13.132  23.725  0.00  0.00    +0.000 C 
ENDBRANCH  30  33
ENDBRANCH  29  30
ENDBRANCH  23  29
ENDBRANCH  19  26
ENDBRANCH   1  21
TORSDOF 5
ENDMDL
MODEL 8
REMARK VINA RESULT:      -7.9      2.250      3.792
REMARK  Name = 
REMARK  7 active torsions:
REMARK  status: ('A' for Active; 'I' for Inactive)
REMARK    1  A    between atoms: C_1  and  C_2
REMARK    2  A    between atoms: C_3  and  C_4
REMARK    3  A    between atoms: C_4  and  O_5
REMARK    4  A    between atoms: O_5  and  C_6
REMARK    5  A    between atoms: C_9  and  C_10
REMARK    6  A    between atoms: N_12  and  C_13
REMARK    7  A    between atoms: C_24  and  C_25
REMARK                            x       y       z     vdW  Elec       q    Type
REMARK                         _______ _______ _______ _____ _____    ______ ____
ROOT
ATOM      1  C   UNL     1       1.296   9.623  18.217  0.00  0.00    +0.000 A 
ATOM      2  C   UNL     1      -0.085   9.497  18.120  0.00  0.00    +0.000 A 
ATOM      3  C   UNL     1      -0.912  10.567  18.410  0.00  0.00    +0.000 A 
ATOM      4  C   UNL     1      -0.381  11.783  18.834  0.00  0.00    +0.000 A 
ATOM      5  C   UNL     1       0.992  11.957  19.111  0.00  0.00    +0.000 A 
ATOM      6  C   UNL     1       1.829  10.844  18.743  0.00  0.00    +0.000 A 
ATOM      7  C   UNL     1       1.538  13.398  19.401  0.00  0.00    +0.000 C 
ATOM      8  C   UNL     1       0.667  14.219  18.396  0.00  0.00    +0.000 C 
ATOM      9  C   UNL     1      -0.787  14.077  18.937  0.00  0.00    +0.000 C 
ATOM     10  O   UNL     1      -1.312  12.781  18.749  0.00  0.00    +0.000 OA
ATOM     11  N   UNL     1       1.209  14.208  20.656  0.00  0.00    +0.000 NA
ATOM     12  C   UNL     1       2.226  15.020  20.593  0.00  0.00    +0.000 C 
ATOM     13  C   UNL     1       2.402  16.360  19.880  0.00  0.00    +0.000 C 
ATOM     14  C   UNL     1       3.394  14.173  20.365  0.00  0.00    +0.000 C 
ATOM     15  N   UNL     1       4.506  14.418  21.141  0.00  0.00    +0.000 N 
ATOM     16  N   UNL     1       3.081  13.406  19.376  0.00  0.00    +0.000 NA
ATOM     17  H   UNL     1       4.229  14.358  22.128  0.00  0.00    +0.000 HD
ATOM     18  H   UNL     1       4.769  15.404  21.113  0.00  0.00    +0.000 HD
ENDROOT
BRANCH   1  21
ATOM     19  C   UNL     1       2.489   7.413  18.505  0.00  0.00    +0.000 C 
ATOM     20  O   UNL     1       2.047   7.060  19.602  0.00  0.00    +0.000 OA
ATOM     21  N   UNL     1       2.134   8.555  17.767  0.00  0.00    +0.000 N 
ATOM     22  H   UNL     1       2.494   8.595  16.820  0.00  0.00    +0.000 HD
BRANCH  19  26
ATOM     23  C   UNL     1       5.287   4.780  16.589  0.00  0.00    +0.000 A 
ATOM     24  C   UNL     1       5.513   6.152  16.518  0.00  0.00    +0.000 A 
ATOM     25  C   UNL     1       4.598   7.021  17.163  0.00  0.00    +0.000 A 
ATOM     26  C   UNL     1       3.486   6.493  17.821  0.00  0.00    +0.000 A 
ATOM     27  N   UNL     1       3.230   5.156  17.862  0.00  0.00    +0.000 NA
ATOM     28  C   UNL     1       4.129   4.348  17.230  0.00  0.00    +0.000 A 
BRANCH  23  29
ATOM     29  O   UNL     1       6.221   3.985  15.992  0.00  0.00    +0.000 OA
BRANCH  29  30
ATOM     30  C   UNL     1       6.791   4.497  14.782  0.00  0.00    +0.000 C 
BRANCH  30  33
ATOM     31  C   UNL     1       4.469   3.120  11.450  0.00  0.00    +0.000 C 
ATOM     32  C   UNL     1       5.260   3.593  12.587  0.00  0.00    +0.000 C 
ATOM     33  C   UNL     1       5.967   4.010  13.600  0.00  0.00    +0.000 C 
ENDBRANCH  30  33
ENDBRANCH  29  30
ENDBRANCH  23  29
ENDBRANCH  19  26
ENDBRANCH   1  21
TORSDOF 5
ENDMDL
MODEL 9
REMARK VINA RESULT:      -7.8      3.301     10.119
REMARK  Name = 
REMARK  7 active torsions:
REMARK  status: ('A' for Active; 'I' for Inactive)
REMARK    1  A    between atoms: C_1  and  C_2
REMARK    2  A    between atoms: C_3  and  C_4
REMARK    3  A    between atoms: C_4  and  O_5
REMARK    4  A    between atoms: O_5  and  C_6
REMARK    5  A    between atoms: C_9  and  C_10
REMARK    6  A    between atoms: N_12  and  C_13
REMARK    7  A    between atoms: C_24  and  C_25
REMARK                            x       y       z     vdW  Elec       q    Type
REMARK                         _______ _______ _______ _____ _____    ______ ____
ROOT
ATOM      1  C   UNL     1       1.629   7.115  19.938  0.00  0.00    +0.000 A 
ATOM      2  C   UNL     1       1.250   6.105  20.814  0.00  0.00    +0.000 A 
ATOM      3  C   UNL     1       1.902   4.885  20.809  0.00  0.00    +0.000 A 
ATOM      4  C   UNL     1       2.932   4.633  19.906  0.00  0.00    +0.000 A 
ATOM      5  C   UNL     1       3.281   5.537  18.880  0.00  0.00    +0.000 A 
ATOM      6  C   UNL     1       2.624   6.817  18.951  0.00  0.00    +0.000 A 
ATOM      7  C   UNL     1       4.568   5.267  18.026  0.00  0.00    +0.000 C 
ATOM      8  C   UNL     1       5.506   4.691  19.135  0.00  0.00    +0.000 C 
ATOM      9  C   UNL     1       4.841   3.343  19.546  0.00  0.00    +0.000 C 
ATOM     10  O   UNL     1       3.647   3.527  20.275  0.00  0.00    +0.000 OA
ATOM     11  N   UNL     1       4.714   4.116  17.027  0.00  0.00    +0.000 NA
ATOM     12  C   UNL     1       5.687   4.632  16.331  0.00  0.00    +0.000 C 
ATOM     13  C   UNL     1       7.202   4.555  16.508  0.00  0.00    +0.000 C 
ATOM     14  C   UNL     1       5.284   6.008  16.048  0.00  0.00    +0.000 C 
ATOM     15  N   UNL     1       5.439   6.450  14.752  0.00  0.00    +0.000 N 
ATOM     16  N   UNL     1       4.928   6.508  17.182  0.00  0.00    +0.000 NA
ATOM     17  H   UNL     1       4.929   5.811  14.131  0.00  0.00    +0.000 HD
ATOM     18  H   UNL     1       6.385   6.278  14.411  0.00  0.00    +0.000 HD
ENDROOT
BRANCH   1  21
ATOM     19  C   UNL     1       1.002   9.192  21.235  0.00  0.00    +0.000 C 
ATOM     20  O   UNL     1       1.565   8.965  22.310  0.00  0.00    +0.000 OA
ATOM     21  N   UNL     1       1.045   8.414  20.066  0.00  0.00    +0.000 N 
ATOM     22  H   UNL     1       0.642   8.842  19.239  0.00  0.00    +0.000 HD
BRANCH  19  26
ATOM     23  C   UNL     1      -1.201  12.864  20.933  0.00  0.00    +0.000 A 
ATOM     24  C   UNL     1      -1.328  11.929  19.908  0.00  0.00    +0.000 A 
ATOM     25  C   UNL     1      -0.613  10.710  20.015  0.00  0.00    +0.000 A 
ATOM     26  C   UNL     1       0.218  10.487  21.114  0.00  0.00    +0.000 A 
ATOM     27  N   UNL     1       0.383  11.411  22.102  0.00  0.00    +0.000 NA
ATOM     28  C   UNL     1      -0.317  12.573  21.968  0.00  0.00    +0.000 A 
BRANCH  23  29
ATOM     29  O   UNL     1      -1.946  14.000  20.805  0.00  0.00    +0.000 OA
BRANCH  29  30
ATOM     30  C   UNL     1      -3.366  13.821  20.856  0.00  0.00    +0.000 C 
BRANCH  30  33
ATOM     31  C   UNL     1      -4.460  12.380  24.744  0.00  0.00    +0.000 C 
ATOM     32  C   UNL     1      -4.088  12.869  23.416  0.00  0.00    +0.000 C 
ATOM     33  C   UNL     1      -3.754  13.309  22.235  0.00  0.00    +0.000 C 
ENDBRANCH  30  33
ENDBRANCH  29  30
ENDBRANCH  23  29
ENDBRANCH  19  26
ENDBRANCH   1  21
TORSDOF 5
ENDMDL
