MODEL 1
REMARK VINA RESULT:      -7.5      0.000      0.000
REMARK  Name = 
REMARK  2 active torsions:
REMARK  status: ('A' for Active; 'I' for Inactive)
REMARK    1  A    between atoms: C_2  and  C_3
REMARK    2  A    between atoms: C_4  and  C_5
REMARK                            x       y       z     vdW  Elec       q    Type
REMARK                         _______ _______ _______ _____ _____    ______ ____
ROOT
ATOM      1  O   UNL     1       1.518   3.296  21.742  0.00  0.00    +0.000 OA
ATOM      2  C   UNL     1       1.917   3.890  20.739  0.00  0.00    +0.000 C 
ATOM      3  N   UNL     1       2.755   3.249  19.868  0.00  0.00    +0.000 N 
ATOM      4  C   UNL     1       3.412   3.794  18.801  0.00  0.00    +0.000 A 
ATOM      5  N   UNL     1       3.545   5.054  18.488  0.00  0.00    +0.000 NA
ATOM      6  C   UNL     1       4.274   5.181  17.326  0.00  0.00    +0.000 A 
ATOM      7  C   UNL     1       4.617   6.396  16.703  0.00  0.00    +0.000 A 
ATOM      8  C   UNL     1       5.352   6.380  15.517  0.00  0.00    +0.000 A 
ATOM      9  C   UNL     1       5.734   5.172  14.947  0.00  0.00    +0.000 A 
ATOM     10  C   UNL     1       5.407   3.948  15.547  0.00  0.00    +0.000 A 
ATOM     11  C   UNL     1       4.684   3.976  16.750  0.00  0.00    +0.000 A 
ATOM     12  S   UNL     1       4.163   2.674  17.760  0.00  0.00    +0.000 S 
ATOM     13  H   UNL     1       2.918   2.272  20.064  0.00  0.00    +0.000 HD
ENDROOT
BRANCH   2  14
ATOM     14  C   UNL     1       1.424   5.253  20.419  0.00  0.00    +0.000 C 
ATOM     15  C   UNL     1       1.996   6.372  20.886  0.00  0.00    +0.000 C 
BRANCH  15  16
ATOM     16  C   UNL     1       1.462   7.701  20.548  0.00  0.00    +0.000 A 
ATOM     17  C   UNL     1       0.629   8.422  21.422  0.00  0.00    +0.000 A 
ATOM     18  C   UNL     1       0.079   9.648  21.044  0.00  0.00    +0.000 A 
ATOM     19  C   UNL     1       0.380  10.179  19.794  0.00  0.00    +0.000 A 
ATOM     20 CL   UNL     1      -0.324  11.672  19.310  0.00  0.00    +0.000 Cl
ATOM     21  C   UNL     1       1.241   9.503  18.933  0.00  0.00    +0.000 A 
ATOM     22  C   UNL     1       1.784   8.270  19.310  0.00  0.00    +0.000 A 
ENDBRANCH  15  16
ENDBRANCH   2  14
TORSDOF 2
ENDMDL
MODEL 2
REMARK VINA RESULT:      -7.4      0.149      1.063
REMARK  Name = 
REMARK  2 active torsions:
REMARK  status: ('A' for Active; 'I' for Inactive)
REMARK    1  A    between atoms: C_2  and  C_3
REMARK    2  A    between atoms: C_4  and  C_5
REMARK                            x       y       z     vdW  Elec       q    Type
REMARK                         _______ _______ _______ _____ _____    ______ ____
ROOT
ATOM      1  O   UNL     1       1.458   3.264  21.732  0.00  0.00    +0.000 OA
ATOM      2  C   UNL     1       1.874   3.847  20.731  0.00  0.00    +0.000 C 
ATOM      3  N   UNL     1       2.716   3.193  19.874  0.00  0.00    +0.000 N 
ATOM      4  C   UNL     1       3.391   3.725  18.811  0.00  0.00    +0.000 A 
ATOM      5  N   UNL     1       3.540   4.982  18.491  0.00  0.00    +0.000 NA
ATOM      6  C   UNL     1       4.284   5.094  17.337  0.00  0.00    +0.000 A 
ATOM      7  C   UNL     1       4.645   6.301  16.711  0.00  0.00    +0.000 A 
ATOM      8  C   UNL     1       5.394   6.271  15.533  0.00  0.00    +0.000 A 
ATOM      9  C   UNL     1       5.772   5.055  14.975  0.00  0.00    +0.000 A 
ATOM     10  C   UNL     1       5.425   3.839  15.580  0.00  0.00    +0.000 A 
ATOM     11  C   UNL     1       4.688   3.882  16.773  0.00  0.00    +0.000 A 
ATOM     12  S   UNL     1       4.143   2.590  17.785  0.00  0.00    +0.000 S 
ATOM     13  H   UNL     1       2.867   2.216  20.077  0.00  0.00    +0.000 HD
ENDROOT
BRANCH   2  14
ATOM     14  C   UNL     1       1.398   5.213  20.395  0.00  0.00    +0.000 C 
ATOM     15  C   UNL     1       1.954   6.329  20.889  0.00  0.00    +0.000 C 
BRANCH  15  16
ATOM     16  C   UNL     1       1.437   7.660  20.535  0.00  0.00    +0.000 A 
ATOM     17  C   UNL     1       1.720   8.272  19.300  0.00  0.00    +0.000 A 
ATOM     18  C   UNL     1       1.277   9.566  19.021  0.00  0.00    +0.000 A 
ATOM     19  C   UNL     1       0.520  10.251  19.966  0.00  0.00    +0.000 A 
ATOM     20 CL   UNL     1       0.000  11.859  19.640  0.00  0.00    +0.000 Cl
ATOM     21  C   UNL     1       0.188   9.643  21.174  0.00  0.00    +0.000 A 
ATOM     22  C   UNL     1       0.641   8.351  21.456  0.00  0.00    +0.000 A 
ENDBRANCH  15  16
ENDBRANCH   2  14
TORSDOF 2
ENDMDL
MODEL 3
REMARK VINA RESULT:      -7.3      3.295      6.640
REMARK  Name = 
REMARK  2 active torsions:
REMARK  status: ('A' for Active; 'I' for Inactive)
REMARK    1  A    between atoms: C_2  and  C_3
REMARK    2  A    between atoms: C_4  and  C_5
REMARK                            x       y       z     vdW  Elec       q    Type
REMARK                         _______ _______ _______ _____ _____    ______ ____
ROOT
ATOM      1  O   UNL     1       3.874   2.200  19.847  0.00  0.00    +0.000 OA
ATOM      2  C   UNL     1       3.785   3.369  19.474  0.00  0.00    +0.000 C 
ATOM      3  N   UNL     1       2.951   4.225  20.140  0.00  0.00    +0.000 N 
ATOM      4  C   UNL     1       2.612   5.499  19.777  0.00  0.00    +0.000 A 
ATOM      5  N   UNL     1       2.841   6.108  18.646  0.00  0.00    +0.000 NA
ATOM      6  C   UNL     1       2.343   7.392  18.689  0.00  0.00    +0.000 A 
ATOM      7  C   UNL     1       2.406   8.329  17.641  0.00  0.00    +0.000 A 
ATOM      8  C   UNL     1       1.871   9.606  17.823  0.00  0.00    +0.000 A 
ATOM      9  C   UNL     1       1.290   9.954  19.036  0.00  0.00    +0.000 A 
ATOM     10  C   UNL     1       1.214   9.039  20.096  0.00  0.00    +0.000 A 
ATOM     11  C   UNL     1       1.738   7.753  19.895  0.00  0.00    +0.000 A 
ATOM     12  S   UNL     1       1.768   6.391  20.959  0.00  0.00    +0.000 S 
ATOM     13  H   UNL     1       2.525   3.852  20.976  0.00  0.00    +0.000 HD
ENDROOT
BRANCH   2  14
ATOM     14  C   UNL     1       4.640   3.883  18.374  0.00  0.00    +0.000 C 
ATOM     15  C   UNL     1       4.497   3.510  17.094  0.00  0.00    +0.000 C 
BRANCH  15  16
ATOM     16  C   UNL     1       5.379   4.039  16.042  0.00  0.00    +0.000 A 
ATOM     17  C   UNL     1       5.230   3.687  14.688  0.00  0.00    +0.000 A 
ATOM     18  C   UNL     1       6.127   4.148  13.723  0.00  0.00    +0.000 A 
ATOM     19  C   UNL     1       7.167   4.991  14.099  0.00  0.00    +0.000 A 
ATOM     20 CL   UNL     1       8.295   5.533  12.918  0.00  0.00    +0.000 Cl
ATOM     21  C   UNL     1       7.303   5.390  15.427  0.00  0.00    +0.000 A 
ATOM     22  C   UNL     1       6.409   4.920  16.394  0.00  0.00    +0.000 A 
ENDBRANCH  15  16
ENDBRANCH   2  14
TORSDOF 2
ENDMDL
MODEL 4
REMARK VINA RESULT:      -7.2      3.273      6.540
REMARK  Name = 
REMARK  2 active torsions:
REMARK  status: ('A' for Active; 'I' for Inactive)
REMARK    1  A    between atoms: C_2  and  C_3
REMARK    2  A    between atoms: C_4  and  C_5
REMARK                            x       y       z     vdW  Elec       q    Type
REMARK                         _______ _______ _______ _____ _____    ______ ____
ROOT
ATOM      1  O   UNL     1       3.620   2.332  20.178  0.00  0.00    +0.000 OA
ATOM      2  C   UNL     1       3.581   3.487  19.755  0.00  0.00    +0.000 C 
ATOM      3  N   UNL     1       2.744   4.391  20.350  0.00  0.00    +0.000 N 
ATOM      4  C   UNL     1       2.456   5.658  19.923  0.00  0.00    +0.000 A 
ATOM      5  N   UNL     1       2.751   6.214  18.780  0.00  0.00    +0.000 NA
ATOM      6  C   UNL     1       2.288   7.511  18.751  0.00  0.00    +0.000 A 
ATOM      7  C   UNL     1       2.422   8.403  17.670  0.00  0.00    +0.000 A 
ATOM      8  C   UNL     1       1.916   9.700  17.778  0.00  0.00    +0.000 A 
ATOM      9  C   UNL     1       1.294  10.112  18.950  0.00  0.00    +0.000 A 
ATOM     10  C   UNL     1       1.147   9.244  20.040  0.00  0.00    +0.000 A 
ATOM     11  C   UNL     1       1.643   7.937  19.914  0.00  0.00    +0.000 A 
ATOM     12  S   UNL     1       1.589   6.619  21.031  0.00  0.00    +0.000 S 
ATOM     13  H   UNL     1       2.272   4.063  21.181  0.00  0.00    +0.000 HD
ENDROOT
BRANCH   2  14
ATOM     14  C   UNL     1       4.496   3.932  18.675  0.00  0.00    +0.000 C 
ATOM     15  C   UNL     1       4.426   3.477  17.416  0.00  0.00    +0.000 C 
BRANCH  15  16
ATOM     16  C   UNL     1       5.365   3.941  16.383  0.00  0.00    +0.000 A 
ATOM     17  C   UNL     1       6.557   4.619  16.699  0.00  0.00    +0.000 A 
ATOM     18  C   UNL     1       7.392   5.112  15.695  0.00  0.00    +0.000 A 
ATOM     19  C   UNL     1       7.056   4.906  14.361  0.00  0.00    +0.000 A 
ATOM     20 CL   UNL     1       8.065   5.541  13.120  0.00  0.00    +0.000 Cl
ATOM     21  C   UNL     1       5.906   4.194  14.027  0.00  0.00    +0.000 A 
ATOM     22  C   UNL     1       5.066   3.709  15.035  0.00  0.00    +0.000 A 
ENDBRANCH  15  16
ENDBRANCH   2  14
TORSDOF 2
ENDMDL
MODEL 5
REMARK VINA RESULT:      -7.2      3.237      6.412
REMARK  Name = 
REMARK  2 active torsions:
REMARK  status: ('A' for Active; 'I' for Inactive)
REMARK    1  A    between atoms: C_2  and  C_3
REMARK    2  A    between atoms: C_4  and  C_5
REMARK                            x       y       z     vdW  Elec       q    Type
REMARK                         _______ _______ _______ _____ _____    ______ ____
ROOT
ATOM      1  O   UNL     1       2.406   3.697  21.217  0.00  0.00    +0.000 OA
ATOM      2  C   UNL     1       2.525   4.780  20.644  0.00  0.00    +0.000 C 
ATOM      3  N   UNL     1       1.815   5.859  21.092  0.00  0.00    +0.000 N 
ATOM      4  C   UNL     1       1.704   7.083  20.493  0.00  0.00    +0.000 A 
ATOM      5  N   UNL     1       2.078   7.435  19.294  0.00  0.00    +0.000 NA
ATOM      6  C   UNL     1       1.796   8.766  19.080  0.00  0.00    +0.000 A 
ATOM      7  C   UNL     1       2.055   9.478  17.893  0.00  0.00    +0.000 A 
ATOM      8  C   UNL     1       1.729  10.833  17.815  0.00  0.00    +0.000 A 
ATOM      9  C   UNL     1       1.161  11.480  18.906  0.00  0.00    +0.000 A 
ATOM     10  C   UNL     1       0.891  10.794  20.099  0.00  0.00    +0.000 A 
ATOM     11  C   UNL     1       1.206   9.428  20.160  0.00  0.00    +0.000 A 
ATOM     12  S   UNL     1       0.968   8.292  21.441  0.00  0.00    +0.000 S 
ATOM     13  H   UNL     1       1.298   5.713  21.947  0.00  0.00    +0.000 HD
ENDROOT
BRANCH   2  14
ATOM     14  C   UNL     1       3.499   4.948  19.536  0.00  0.00    +0.000 C 
ATOM     15  C   UNL     1       3.272   4.524  18.285  0.00  0.00    +0.000 C 
BRANCH  15  16
ATOM     16  C   UNL     1       4.276   4.705  17.224  0.00  0.00    +0.000 A 
ATOM     17  C   UNL     1       4.619   5.973  16.721  0.00  0.00    +0.000 A 
ATOM     18  C   UNL     1       5.521   6.108  15.664  0.00  0.00    +0.000 A 
ATOM     19  C   UNL     1       6.112   4.973  15.118  0.00  0.00    +0.000 A 
ATOM     20 CL   UNL     1       7.197   5.132  13.792  0.00  0.00    +0.000 Cl
ATOM     21  C   UNL     1       5.822   3.712  15.634  0.00  0.00    +0.000 A 
ATOM     22  C   UNL     1       4.911   3.579  16.686  0.00  0.00    +0.000 A 
ENDBRANCH  15  16
ENDBRANCH   2  14
TORSDOF 2
ENDMDL
MODEL 6
REMARK VINA RESULT:      -7.1      4.567      7.748
REMARK  Name = 
REMARK  2 active torsions:
REMARK  status: ('A' for Active; 'I' for Inactive)
REMARK    1  A    between atoms: C_2  and  C_3
REMARK    2  A    between atoms: C_4  and  C_5
REMARK                            x       y       z     vdW  Elec       q    Type
REMARK                         _______ _______ _______ _____ _____    ______ ____
ROOT
ATOM      1  O   UNL     1       3.069   8.531  16.755  0.00  0.00    +0.000 OA
ATOM      2  C   UNL     1       2.346   8.651  17.744  0.00  0.00    +0.000 C 
ATOM      3  N   UNL     1       1.681   9.829  17.951  0.00  0.00    +0.000 N 
ATOM      4  C   UNL     1       0.968  10.192  19.059  0.00  0.00    +0.000 A 
ATOM      5  N   UNL     1       0.918   9.600  20.221  0.00  0.00    +0.000 NA
ATOM      6  C   UNL     1       0.070  10.283  21.065  0.00  0.00    +0.000 A 
ATOM      7  C   UNL     1      -0.214   9.932  22.399  0.00  0.00    +0.000 A 
ATOM      8  C   UNL     1      -1.106  10.707  23.142  0.00  0.00    +0.000 A 
ATOM      9  C   UNL     1      -1.718  11.814  22.566  0.00  0.00    +0.000 A 
ATOM     10  C   UNL     1      -1.452  12.186  21.241  0.00  0.00    +0.000 A 
ATOM     11  C   UNL     1      -0.540  11.410  20.509  0.00  0.00    +0.000 A 
ATOM     12  S   UNL     1       0.040  11.612  18.893  0.00  0.00    +0.000 S 
ATOM     13  H   UNL     1       1.757  10.506  17.205  0.00  0.00    +0.000 HD
ENDROOT
BRANCH   2  14
ATOM     14  C   UNL     1       2.114   7.505  18.658  0.00  0.00    +0.000 C 
ATOM     15  C   UNL     1       2.359   6.231  18.319  0.00  0.00    +0.000 C 
BRANCH  15  16
ATOM     16  C   UNL     1       2.101   5.128  19.258  0.00  0.00    +0.000 A 
ATOM     17  C   UNL     1       1.333   4.003  18.905  0.00  0.00    +0.000 A 
ATOM     18  C   UNL     1       1.044   3.008  19.840  0.00  0.00    +0.000 A 
ATOM     19  C   UNL     1       1.546   3.114  21.133  0.00  0.00    +0.000 A 
ATOM     20 CL   UNL     1       1.164   1.906  22.298  0.00  0.00    +0.000 Cl
ATOM     21  C   UNL     1       2.349   4.195  21.488  0.00  0.00    +0.000 A 
ATOM     22  C   UNL     1       2.630   5.196  20.552  0.00  0.00    +0.000 A 
ENDBRANCH  15  16
ENDBRANCH   2  14
TORSDOF 2
ENDMDL
MODEL 7
REMARK VINA RESULT:      -7.1      4.876      7.807
REMARK  Name = 
REMARK  2 active torsions:
REMARK  status: ('A' for Active; 'I' for Inactive)
REMARK    1  A    between atoms: C_2  and  C_3
REMARK    2  A    between atoms: C_4  and  C_5
REMARK                            x       y       z     vdW  Elec       q    Type
REMARK                         _______ _______ _______ _____ _____    ______ ____
ROOT
ATOM      1  O   UNL     1       7.720   7.153  17.669  0.00  0.00    +0.000 OA
ATOM      2  C   UNL     1       6.807   6.340  17.522  0.00  0.00    +0.000 C 
ATOM      3  N   UNL     1       5.753   6.349  18.393  0.00  0.00    +0.000 N 
ATOM      4  C   UNL     1       4.741   5.433  18.476  0.00  0.00    +0.000 A 
ATOM      5  N   UNL     1       4.651   4.269  17.893  0.00  0.00    +0.000 NA
ATOM      6  C   UNL     1       3.463   3.659  18.232  0.00  0.00    +0.000 A 
ATOM      7  C   UNL     1       3.041   2.390  17.792  0.00  0.00    +0.000 A 
ATOM      8  C   UNL     1       1.802   1.894  18.203  0.00  0.00    +0.000 A 
ATOM      9  C   UNL     1       0.985   2.653  19.032  0.00  0.00    +0.000 A 
ATOM     10  C   UNL     1       1.383   3.919  19.485  0.00  0.00    +0.000 A 
ATOM     11  C   UNL     1       2.638   4.400  19.081  0.00  0.00    +0.000 A 
ATOM     12  S   UNL     1       3.441   5.876  19.486  0.00  0.00    +0.000 S 
ATOM     13  H   UNL     1       5.749   7.107  19.060  0.00  0.00    +0.000 HD
ENDROOT
BRANCH   2  14
ATOM     14  C   UNL     1       6.793   5.419  16.358  0.00  0.00    +0.000 C 
ATOM     15  C   UNL     1       6.288   5.751  15.161  0.00  0.00    +0.000 C 
BRANCH  15  16
ATOM     16  C   UNL     1       6.287   4.796  14.042  0.00  0.00    +0.000 A 
ATOM     17  C   UNL     1       5.232   3.890  13.826  0.00  0.00    +0.000 A 
ATOM     18  C   UNL     1       5.293   2.947  12.799  0.00  0.00    +0.000 A 
ATOM     19  C   UNL     1       6.399   2.920  11.957  0.00  0.00    +0.000 A 
ATOM     20 CL   UNL     1       6.494   1.737  10.711  0.00  0.00    +0.000 Cl
ATOM     21  C   UNL     1       7.431   3.841  12.123  0.00  0.00    +0.000 A 
ATOM     22  C   UNL     1       7.373   4.779  13.158  0.00  0.00    +0.000 A 
ENDBRANCH  15  16
ENDBRANCH   2  14
TORSDOF 2
ENDMDL
MODEL 8
REMARK VINA RESULT:      -7.0      3.331      6.546
REMARK  Name = 
REMARK  2 active torsions:
REMARK  status: ('A' for Active; 'I' for Inactive)
REMARK    1  A    between atoms: C_2  and  C_3
REMARK    2  A    between atoms: C_4  and  C_5
REMARK                            x       y       z     vdW  Elec       q    Type
REMARK                         _______ _______ _______ _____ _____    ______ ____
ROOT
ATOM      1  O   UNL     1       1.941   4.128  21.215  0.00  0.00    +0.000 OA
ATOM      2  C   UNL     1       2.131   5.213  20.667  0.00  0.00    +0.000 C 
ATOM      3  N   UNL     1       1.518   6.332  21.162  0.00  0.00    +0.000 N 
ATOM      4  C   UNL     1       1.489   7.577  20.598  0.00  0.00    +0.000 A 
ATOM      5  N   UNL     1       1.861   7.933  19.399  0.00  0.00    +0.000 NA
ATOM      6  C   UNL     1       1.679   9.288  19.228  0.00  0.00    +0.000 A 
ATOM      7  C   UNL     1       1.965  10.010  18.054  0.00  0.00    +0.000 A 
ATOM      8  C   UNL     1       1.744  11.388  18.020  0.00  0.00    +0.000 A 
ATOM      9  C   UNL     1       1.254  12.046  19.142  0.00  0.00    +0.000 A 
ATOM     10  C   UNL     1       0.960  11.350  20.323  0.00  0.00    +0.000 A 
ATOM     11  C   UNL     1       1.169   9.962  20.340  0.00  0.00    +0.000 A 
ATOM     12  S   UNL     1       0.873   8.813  21.597  0.00  0.00    +0.000 S 
ATOM     13  H   UNL     1       1.012   6.202  22.026  0.00  0.00    +0.000 HD
ENDROOT
BRANCH   2  14
ATOM     14  C   UNL     1       3.089   5.337  19.539  0.00  0.00    +0.000 C 
ATOM     15  C   UNL     1       3.077   4.528  18.470  0.00  0.00    +0.000 C 
BRANCH  15  16
ATOM     16  C   UNL     1       4.055   4.685  17.383  0.00  0.00    +0.000 A 
ATOM     17  C   UNL     1       4.632   3.583  16.725  0.00  0.00    +0.000 A 
ATOM     18  C   UNL     1       5.612   3.762  15.747  0.00  0.00    +0.000 A 
ATOM     19  C   UNL     1       6.005   5.049  15.397  0.00  0.00    +0.000 A 
ATOM     20 CL   UNL     1       7.238   5.273  14.217  0.00  0.00    +0.000 Cl
ATOM     21  C   UNL     1       5.412   6.154  16.003  0.00  0.00    +0.000 A 
ATOM     22  C   UNL     1       4.436   5.973  16.989  0.00  0.00    +0.000 A 
ENDBRANCH  15  16
ENDBRANCH   2  14
TORSDOF 2
ENDMDL
MODEL 9
REMARK VINA RESULT:      -7.0      4.814      7.703
REMARK  Name = 
REMARK  2 active torsions:
REMARK  status: ('A' for Active; 'I' for Inactive)
REMARK    1  A    between atoms: C_2  and  C_3
REMARK    2  A    between atoms: C_4  and  C_5
REMARK                            x       y       z     vdW  Elec       q    Type
REMARK                         _______ _______ _______ _____ _____    ______ ____
ROOT
ATOM      1  O   UNL     1       7.915   6.786  18.301  0.00  0.00    +0.000 OA
ATOM      2  C   UNL     1       6.962   6.045  18.060  0.00  0.00    +0.000 C 
ATOM      3  N   UNL     1       5.879   6.050  18.895  0.00  0.00    +0.000 N 
ATOM      4  C   UNL     1       4.812   5.195  18.873  0.00  0.00    +0.000 A 
ATOM      5  N   UNL     1       4.676   4.088  18.195  0.00  0.00    +0.000 NA
ATOM      6  C   UNL     1       3.442   3.527  18.446  0.00  0.00    +0.000 A 
ATOM      7  C   UNL     1       2.962   2.325  17.892  0.00  0.00    +0.000 A 
ATOM      8  C   UNL     1       1.682   1.876  18.222  0.00  0.00    +0.000 A 
ATOM      9  C   UNL     1       0.882   2.616  19.084  0.00  0.00    +0.000 A 
ATOM     10  C   UNL     1       1.337   3.815  19.650  0.00  0.00    +0.000 A 
ATOM     11  C   UNL     1       2.632   4.248  19.326  0.00  0.00    +0.000 A 
ATOM     12  S   UNL     1       3.505   5.635  19.874  0.00  0.00    +0.000 S 
ATOM     13  H   UNL     1       5.895   6.751  19.622  0.00  0.00    +0.000 HD
ENDROOT
BRANCH   2  14
ATOM     14  C   UNL     1       6.935   5.221  16.825  0.00  0.00    +0.000 C 
ATOM     15  C   UNL     1       6.570   5.699  15.627  0.00  0.00    +0.000 C 
BRANCH  15  16
ATOM     16  C   UNL     1       6.549   4.837  14.435  0.00  0.00    +0.000 A 
ATOM     17  C   UNL     1       7.490   4.965  13.398  0.00  0.00    +0.000 A 
ATOM     18  C   UNL     1       7.401   4.182  12.246  0.00  0.00    +0.000 A 
ATOM     19  C   UNL     1       6.384   3.241  12.132  0.00  0.00    +0.000 A 
ATOM     20 CL   UNL     1       6.250   2.298  10.699  0.00  0.00    +0.000 Cl
ATOM     21  C   UNL     1       5.470   3.065  13.170  0.00  0.00    +0.000 A 
ATOM     22  C   UNL     1       5.556   3.857  14.319  0.00  0.00    +0.000 A 
ENDBRANCH  15  16
ENDBRANCH   2  14
TORSDOF 2
ENDMDL
