MODEL 1
REMARK VINA RESULT:      -6.1      0.000      0.000
REMARK  Name = 
REMARK  10 active torsions:
REMARK  status: ('A' for Active; 'I' for Inactive)
REMARK    1  A    between atoms: C_2  and  C_3
REMARK    2  A    between atoms: C_3  and  N_4
REMARK    3  A    between atoms: N_4  and  N_5
REMARK    4  A    between atoms: C_6  and  C_8
REMARK    5  A    between atoms: C_8  and  C_9
REMARK    6  A    between atoms: C_8  and  N_10
REMARK    7  A    between atoms: C_17  and  C_18
REMARK    8  A    between atoms: N_20  and  C_21
REMARK    9  A    between atoms: C_21  and  C_22
REMARK   10  A    between atoms: C_21  and  C_28
REMARK                            x       y       z     vdW  Elec       q    Type
REMARK                         _______ _______ _______ _____ _____    ______ ____
ROOT
ATOM      1  N   UNL     1      -0.501  12.169  19.762  0.00  0.00    +0.000 N 
ATOM      2  C   UNL     1      -0.830  13.535  19.768  0.00  0.00    +0.000 C 
ATOM      3  O   UNL     1      -0.892  14.166  18.707  0.00  0.00    +0.000 OA
ATOM      4  N   UNL     1      -1.127  14.202  20.938  0.00  0.00    +0.000 N 
ATOM      5  C   UNL     1      -1.441  15.633  20.901  0.00  0.00    +0.000 C 
ATOM      6  C   UNL     1      -0.820  16.172  22.174  0.00  0.00    +0.000 C 
ATOM      7  C   UNL     1      -1.003  15.037  23.175  0.00  0.00    +0.000 C 
ATOM      8  C   UNL     1      -1.161  13.762  22.328  0.00  0.00    +0.000 C 
ENDROOT
BRANCH   1   9
ATOM      9  N   UNL     1      -0.576  11.315  20.927  0.00  0.00    +0.000 N 
ATOM     10  C   UNL     1       0.513  10.730  21.582  0.00  0.00    +0.000 C 
ATOM     11  O   UNL     1       1.684  11.098  21.501  0.00  0.00    +0.000 OA
ATOM     12  H   UNL     1      -1.411  11.442  21.483  0.00  0.00    +0.000 HD
BRANCH  10  13
ATOM     13  C   UNL     1       0.133   9.497  22.440  0.00  0.00    +0.000 C 
ATOM     14  C   UNL     1      -0.265   8.344  21.542  0.00  0.00    +0.000 C 
BRANCH  13  15
ATOM     15  N   UNL     1      -0.974   9.823  23.368  0.00  0.00    +0.000 NA
ATOM     16  H   UNL     1      -1.377  10.717  23.075  0.00  0.00    +0.000 HD
ATOM     17  H   UNL     1      -0.583  10.030  24.290  0.00  0.00    +0.000 HD
ENDBRANCH  13  15
ENDBRANCH  10  13
ENDBRANCH   1   9
BRANCH   8  18
ATOM     18  C   UNL     1      -2.483  13.028  22.696  0.00  0.00    +0.000 C 
ATOM     19  O   UNL     1      -2.517  12.191  23.593  0.00  0.00    +0.000 OA
ATOM     20  N   UNL     1      -3.561  13.309  21.890  0.00  0.00    +0.000 N 
ATOM     21  H   UNL     1      -3.500  14.123  21.291  0.00  0.00    +0.000 HD
BRANCH  20  22
ATOM     22  C   UNL     1      -4.853  12.626  21.968  0.00  0.00    +0.000 C 
BRANCH  22  23
ATOM     23  C   UNL     1      -5.859  13.510  22.696  0.00  0.00    +0.000 A 
ATOM     24  C   UNL     1      -6.125  14.802  22.233  0.00  0.00    +0.000 A 
ATOM     25  C   UNL     1      -7.156  15.553  22.799  0.00  0.00    +0.000 A 
ATOM     26  C   UNL     1      -7.908  15.017  23.841  0.00  0.00    +0.000 A 
ATOM     27  C   UNL     1      -7.620  13.746  24.338  0.00  0.00    +0.000 A 
ATOM     28  C   UNL     1      -6.592  12.993  23.775  0.00  0.00    +0.000 A 
ENDBRANCH  22  23
BRANCH  22  29
ATOM     29  C   UNL     1      -5.365  12.185  20.582  0.00  0.00    +0.000 A 
ATOM     30  C   UNL     1      -6.612  11.570  20.444  0.00  0.00    +0.000 A 
ATOM     31  C   UNL     1      -7.159  11.212  19.216  0.00  0.00    +0.000 A 
ATOM     32  C   UNL     1      -6.422  11.402  18.063  0.00  0.00    +0.000 A 
ATOM     33  C   UNL     1      -5.159  11.991  18.157  0.00  0.00    +0.000 A 
ATOM     34  C   UNL     1      -4.655  12.408  19.396  0.00  0.00    +0.000 A 
ENDBRANCH  22  29
ENDBRANCH  20  22
ENDBRANCH   8  18
BRANCH   1  35
ATOM     35  C   UNL     1      -0.413  11.508  18.449  0.00  0.00    +0.000 C 
BRANCH  35  37
ATOM     36  C   UNL     1      -1.766   9.847  17.048  0.00  0.00    +0.000 C 
ATOM     37  C   UNL     1      -1.640  10.779  17.996  0.00  0.00    +0.000 C 
ENDBRANCH  35  37
ENDBRANCH   1  35
TORSDOF 9
ENDMDL
MODEL 2
REMARK VINA RESULT:      -6.1      0.866      1.277
REMARK  Name = 
REMARK  10 active torsions:
REMARK  status: ('A' for Active; 'I' for Inactive)
REMARK    1  A    between atoms: C_2  and  C_3
REMARK    2  A    between atoms: C_3  and  N_4
REMARK    3  A    between atoms: N_4  and  N_5
REMARK    4  A    between atoms: C_6  and  C_8
REMARK    5  A    between atoms: C_8  and  C_9
REMARK    6  A    between atoms: C_8  and  N_10
REMARK    7  A    between atoms: C_17  and  C_18
REMARK    8  A    between atoms: N_20  and  C_21
REMARK    9  A    between atoms: C_21  and  C_22
REMARK   10  A    between atoms: C_21  and  C_28
REMARK                            x       y       z     vdW  Elec       q    Type
REMARK                         _______ _______ _______ _____ _____    ______ ____
ROOT
ATOM      1  N   UNL     1      -0.272  11.535  19.491  0.00  0.00    +0.000 N 
ATOM      2  C   UNL     1      -0.605  12.891  19.337  0.00  0.00    +0.000 C 
ATOM      3  O   UNL     1      -0.635  13.402  18.212  0.00  0.00    +0.000 OA
ATOM      4  N   UNL     1      -0.942  13.681  20.417  0.00  0.00    +0.000 N 
ATOM      5  C   UNL     1      -1.259  15.097  20.213  0.00  0.00    +0.000 C 
ATOM      6  C   UNL     1      -0.681  15.776  21.438  0.00  0.00    +0.000 C 
ATOM      7  C   UNL     1      -0.892  14.756  22.552  0.00  0.00    +0.000 C 
ATOM      8  C   UNL     1      -1.019  13.396  21.845  0.00  0.00    +0.000 C 
ENDROOT
BRANCH   1   9
ATOM      9  N   UNL     1      -0.381  10.813  20.740  0.00  0.00    +0.000 N 
ATOM     10  C   UNL     1       0.686  10.448  21.568  0.00  0.00    +0.000 C 
ATOM     11  O   UNL     1       1.808  10.949  21.559  0.00  0.00    +0.000 OA
ATOM     12  H   UNL     1      -1.284  10.894  21.190  0.00  0.00    +0.000 HD
BRANCH  10  13
ATOM     13  C   UNL     1       0.353   9.279  22.530  0.00  0.00    +0.000 C 
ATOM     14  C   UNL     1      -0.478   8.236  21.811  0.00  0.00    +0.000 C 
BRANCH  13  15
ATOM     15  N   UNL     1      -0.373   9.771  23.724  0.00  0.00    +0.000 NA
ATOM     16  H   UNL     1      -0.007   9.275  24.541  0.00  0.00    +0.000 HD
ATOM     17  H   UNL     1      -1.345   9.457  23.673  0.00  0.00    +0.000 HD
ENDBRANCH  13  15
ENDBRANCH  10  13
ENDBRANCH   1   9
BRANCH   8  18
ATOM     18  C   UNL     1      -2.349  12.697  22.249  0.00  0.00    +0.000 C 
ATOM     19  O   UNL     1      -2.355  11.721  22.994  0.00  0.00    +0.000 OA
ATOM     20  N   UNL     1      -3.483  13.184  21.642  0.00  0.00    +0.000 N 
ATOM     21  H   UNL     1      -3.419  14.084  21.183  0.00  0.00    +0.000 HD
BRANCH  20  22
ATOM     22  C   UNL     1      -4.812  12.584  21.768  0.00  0.00    +0.000 C 
BRANCH  22  23
ATOM     23  C   UNL     1      -5.719  13.508  22.573  0.00  0.00    +0.000 A 
ATOM     24  C   UNL     1      -5.816  14.863  22.242  0.00  0.00    +0.000 A 
ATOM     25  C   UNL     1      -6.761  15.675  22.872  0.00  0.00    +0.000 A 
ATOM     26  C   UNL     1      -7.595  15.133  23.847  0.00  0.00    +0.000 A 
ATOM     27  C   UNL     1      -7.474  13.793  24.213  0.00  0.00    +0.000 A 
ATOM     28  C   UNL     1      -6.533  12.980  23.586  0.00  0.00    +0.000 A 
ENDBRANCH  22  23
BRANCH  22  29
ATOM     29  C   UNL     1      -5.421  12.223  20.398  0.00  0.00    +0.000 A 
ATOM     30  C   UNL     1      -4.636  12.240  19.242  0.00  0.00    +0.000 A 
ATOM     31  C   UNL     1      -5.109  11.859  17.989  0.00  0.00    +0.000 A 
ATOM     32  C   UNL     1      -6.435  11.506  17.843  0.00  0.00    +0.000 A 
ATOM     33  C   UNL     1      -7.263  11.500  18.968  0.00  0.00    +0.000 A 
ATOM     34  C   UNL     1      -6.751  11.819  20.233  0.00  0.00    +0.000 A 
ENDBRANCH  22  29
ENDBRANCH  20  22
ENDBRANCH   8  18
BRANCH   1  35
ATOM     35  C   UNL     1      -0.139  10.734  18.262  0.00  0.00    +0.000 C 
BRANCH  35  37
ATOM     36  C   UNL     1       1.665   8.919  18.207  0.00  0.00    +0.000 C 
ATOM     37  C   UNL     1       1.217  10.160  17.994  0.00  0.00    +0.000 C 
ENDBRANCH  35  37
ENDBRANCH   1  35
TORSDOF 9
ENDMDL
MODEL 3
REMARK VINA RESULT:      -6.1      4.312      9.288
REMARK  Name = 
REMARK  10 active torsions:
REMARK  status: ('A' for Active; 'I' for Inactive)
REMARK    1  A    between atoms: C_2  and  C_3
REMARK    2  A    between atoms: C_3  and  N_4
REMARK    3  A    between atoms: N_4  and  N_5
REMARK    4  A    between atoms: C_6  and  C_8
REMARK    5  A    between atoms: C_8  and  C_9
REMARK    6  A    between atoms: C_8  and  N_10
REMARK    7  A    between atoms: C_17  and  C_18
REMARK    8  A    between atoms: N_20  and  C_21
REMARK    9  A    between atoms: C_21  and  C_22
REMARK   10  A    between atoms: C_21  and  C_28
REMARK                            x       y       z     vdW  Elec       q    Type
REMARK                         _______ _______ _______ _____ _____    ______ ____
ROOT
ATOM      1  N   UNL     1      -0.432  11.749  19.489  0.00  0.00    +0.000 N 
ATOM      2  C   UNL     1      -0.922  10.842  20.443  0.00  0.00    +0.000 C 
ATOM      3  O   UNL     1      -2.122  10.834  20.737  0.00  0.00    +0.000 OA
ATOM      4  N   UNL     1      -0.099   9.915  21.049  0.00  0.00    +0.000 N 
ATOM      5  C   UNL     1      -0.648   9.004  22.057  0.00  0.00    +0.000 C 
ATOM      6  C   UNL     1       0.475   8.863  23.065  0.00  0.00    +0.000 C 
ATOM      7  C   UNL     1       1.738   8.921  22.213  0.00  0.00    +0.000 C 
ATOM      8  C   UNL     1       1.329   9.650  20.921  0.00  0.00    +0.000 C 
ENDROOT
BRANCH   1   9
ATOM      9  N   UNL     1       0.912  11.714  18.955  0.00  0.00    +0.000 N 
ATOM     10  C   UNL     1       1.944  12.601  19.282  0.00  0.00    +0.000 C 
ATOM     11  O   UNL     1       1.990  13.313  20.283  0.00  0.00    +0.000 OA
ATOM     12  H   UNL     1       1.200  10.807  18.612  0.00  0.00    +0.000 HD
BRANCH  10  13
ATOM     13  C   UNL     1       3.074  12.657  18.222  0.00  0.00    +0.000 C 
ATOM     14  C   UNL     1       3.206  14.065  17.680  0.00  0.00    +0.000 C 
BRANCH  13  15
ATOM     15  N   UNL     1       2.805  11.710  17.116  0.00  0.00    +0.000 NA
ATOM     16  H   UNL     1       2.240  10.942  17.489  0.00  0.00    +0.000 HD
ATOM     17  H   UNL     1       3.680  11.252  16.852  0.00  0.00    +0.000 HD
ENDBRANCH  13  15
ENDBRANCH  10  13
ENDBRANCH   1   9
BRANCH   8  18
ATOM     18  C   UNL     1       1.672   8.781  19.676  0.00  0.00    +0.000 C 
ATOM     19  O   UNL     1       1.470   9.192  18.538  0.00  0.00    +0.000 OA
ATOM     20  N   UNL     1       2.116   7.507  19.947  0.00  0.00    +0.000 N 
ATOM     21  H   UNL     1       2.415   7.306  20.893  0.00  0.00    +0.000 HD
BRANCH  20  22
ATOM     22  C   UNL     1       2.356   6.482  18.931  0.00  0.00    +0.000 C 
BRANCH  22  23
ATOM     23  C   UNL     1       3.836   6.457  18.565  0.00  0.00    +0.000 A 
ATOM     24  C   UNL     1       4.732   5.683  19.308  0.00  0.00    +0.000 A 
ATOM     25  C   UNL     1       6.053   5.533  18.882  0.00  0.00    +0.000 A 
ATOM     26  C   UNL     1       6.480   6.175  17.722  0.00  0.00    +0.000 A 
ATOM     27  C   UNL     1       5.604   6.984  17.000  0.00  0.00    +0.000 A 
ATOM     28  C   UNL     1       4.285   7.135  17.422  0.00  0.00    +0.000 A 
ENDBRANCH  22  23
BRANCH  22  29
ATOM     29  C   UNL     1       1.845   5.095  19.370  0.00  0.00    +0.000 A 
ATOM     30  C   UNL     1       1.523   4.120  18.421  0.00  0.00    +0.000 A 
ATOM     31  C   UNL     1       1.122   2.830  18.754  0.00  0.00    +0.000 A 
ATOM     32  C   UNL     1       0.962   2.490  20.083  0.00  0.00    +0.000 A 
ATOM     33  C   UNL     1       1.248   3.441  21.065  0.00  0.00    +0.000 A 
ATOM     34  C   UNL     1       1.717   4.713  20.711  0.00  0.00    +0.000 A 
ENDBRANCH  22  29
ENDBRANCH  20  22
ENDBRANCH   8  18
BRANCH   1  35
ATOM     35  C   UNL     1      -1.426  12.545  18.749  0.00  0.00    +0.000 C 
BRANCH  35  37
ATOM     36  C   UNL     1      -3.295  11.407  17.420  0.00  0.00    +0.000 C 
ATOM     37  C   UNL     1      -2.053  11.879  17.565  0.00  0.00    +0.000 C 
ENDBRANCH  35  37
ENDBRANCH   1  35
TORSDOF 9
ENDMDL
MODEL 4
REMARK VINA RESULT:      -6.0      1.914      3.116
REMARK  Name = 
REMARK  10 active torsions:
REMARK  status: ('A' for Active; 'I' for Inactive)
REMARK    1  A    between atoms: C_2  and  C_3
REMARK    2  A    between atoms: C_3  and  N_4
REMARK    3  A    between atoms: N_4  and  N_5
REMARK    4  A    between atoms: C_6  and  C_8
REMARK    5  A    between atoms: C_8  and  C_9
REMARK    6  A    between atoms: C_8  and  N_10
REMARK    7  A    between atoms: C_17  and  C_18
REMARK    8  A    between atoms: N_20  and  C_21
REMARK    9  A    between atoms: C_21  and  C_22
REMARK   10  A    between atoms: C_21  and  C_28
REMARK                            x       y       z     vdW  Elec       q    Type
REMARK                         _______ _______ _______ _____ _____    ______ ____
ROOT
ATOM      1  N   UNL     1      -0.304  11.040  18.757  0.00  0.00    +0.000 N 
ATOM      2  C   UNL     1      -0.340  12.429  18.553  0.00  0.00    +0.000 C 
ATOM      3  O   UNL     1      -0.867  12.895  17.536  0.00  0.00    +0.000 OA
ATOM      4  N   UNL     1       0.169  13.310  19.483  0.00  0.00    +0.000 N 
ATOM      5  C   UNL     1       0.132  14.751  19.217  0.00  0.00    +0.000 C 
ATOM      6  C   UNL     1       1.429  15.262  19.813  0.00  0.00    +0.000 C 
ATOM      7  C   UNL     1       1.636  14.379  21.039  0.00  0.00    +0.000 C 
ATOM      8  C   UNL     1       0.829  13.099  20.766  0.00  0.00    +0.000 C 
ENDROOT
BRANCH   1   9
ATOM      9  N   UNL     1       0.129  10.415  19.988  0.00  0.00    +0.000 N 
ATOM     10  C   UNL     1       0.988   9.316  20.088  0.00  0.00    +0.000 C 
ATOM     11  O   UNL     1       1.761   8.925  19.215  0.00  0.00    +0.000 OA
ATOM     12  H   UNL     1       0.087  11.019  20.799  0.00  0.00    +0.000 HD
BRANCH  10  13
ATOM     13  C   UNL     1       0.874   8.558  21.435  0.00  0.00    +0.000 C 
ATOM     14  C   UNL     1      -0.580   8.456  21.850  0.00  0.00    +0.000 C 
BRANCH  13  15
ATOM     15  N   UNL     1       1.656   9.240  22.491  0.00  0.00    +0.000 NA
ATOM     16  H   UNL     1       1.310  10.201  22.568  0.00  0.00    +0.000 HD
ATOM     17  H   UNL     1       2.617   9.361  22.165  0.00  0.00    +0.000 HD
ENDBRANCH  13  15
ENDBRANCH  10  13
ENDBRANCH   1   9
BRANCH   8  18
ATOM     18  C   UNL     1      -0.177  12.835  21.925  0.00  0.00    +0.000 C 
ATOM     19  O   UNL     1      -0.071  11.850  22.648  0.00  0.00    +0.000 OA
ATOM     20  N   UNL     1      -1.229  13.719  22.009  0.00  0.00    +0.000 N 
ATOM     21  H   UNL     1      -1.153  14.587  21.495  0.00  0.00    +0.000 HD
BRANCH  20  22
ATOM     22  C   UNL     1      -2.359  13.573  22.928  0.00  0.00    +0.000 C 
BRANCH  22  23
ATOM     23  C   UNL     1      -2.539  14.858  23.728  0.00  0.00    +0.000 A 
ATOM     24  C   UNL     1      -2.078  14.938  25.045  0.00  0.00    +0.000 A 
ATOM     25  C   UNL     1      -2.098  16.157  25.725  0.00  0.00    +0.000 A 
ATOM     26  C   UNL     1      -2.599  17.291  25.091  0.00  0.00    +0.000 A 
ATOM     27  C   UNL     1      -3.102  17.210  23.793  0.00  0.00    +0.000 A 
ATOM     28  C   UNL     1      -3.082  15.996  23.111  0.00  0.00    +0.000 A 
ENDBRANCH  22  23
BRANCH  22  29
ATOM     29  C   UNL     1      -3.653  13.158  22.198  0.00  0.00    +0.000 A 
ATOM     30  C   UNL     1      -4.858  13.038  22.896  0.00  0.00    +0.000 A 
ATOM     31  C   UNL     1      -6.070  12.734  22.285  0.00  0.00    +0.000 A 
ATOM     32  C   UNL     1      -6.099  12.467  20.930  0.00  0.00    +0.000 A 
ATOM     33  C   UNL     1      -4.913  12.551  20.197  0.00  0.00    +0.000 A 
ATOM     34  C   UNL     1      -3.715  12.927  20.819  0.00  0.00    +0.000 A 
ENDBRANCH  22  29
ENDBRANCH  20  22
ENDBRANCH   8  18
BRANCH   1  35
ATOM     35  C   UNL     1      -1.062  10.203  17.811  0.00  0.00    +0.000 C 
BRANCH  35  37
ATOM     36  C   UNL     1      -3.580  10.300  17.362  0.00  0.00    +0.000 C 
ATOM     37  C   UNL     1      -2.515  10.016  18.117  0.00  0.00    +0.000 C 
ENDBRANCH  35  37
ENDBRANCH   1  35
TORSDOF 9
ENDMDL
MODEL 5
REMARK VINA RESULT:      -5.9      4.220      9.224
REMARK  Name = 
REMARK  10 active torsions:
REMARK  status: ('A' for Active; 'I' for Inactive)
REMARK    1  A    between atoms: C_2  and  C_3
REMARK    2  A    between atoms: C_3  and  N_4
REMARK    3  A    between atoms: N_4  and  N_5
REMARK    4  A    between atoms: C_6  and  C_8
REMARK    5  A    between atoms: C_8  and  C_9
REMARK    6  A    between atoms: C_8  and  N_10
REMARK    7  A    between atoms: C_17  and  C_18
REMARK    8  A    between atoms: N_20  and  C_21
REMARK    9  A    between atoms: C_21  and  C_22
REMARK   10  A    between atoms: C_21  and  C_28
REMARK                            x       y       z     vdW  Elec       q    Type
REMARK                         _______ _______ _______ _____ _____    ______ ____
ROOT
ATOM      1  N   UNL     1      -0.329  12.152  19.870  0.00  0.00    +0.000 N 
ATOM      2  C   UNL     1      -0.838  11.246  20.815  0.00  0.00    +0.000 C 
ATOM      3  O   UNL     1      -2.001  11.354  21.219  0.00  0.00    +0.000 OA
ATOM      4  N   UNL     1      -0.081  10.196  21.290  0.00  0.00    +0.000 N 
ATOM      5  C   UNL     1      -0.644   9.288  22.294  0.00  0.00    +0.000 C 
ATOM      6  C   UNL     1       0.537   8.957  23.184  0.00  0.00    +0.000 C 
ATOM      7  C   UNL     1       1.720   8.928  22.222  0.00  0.00    +0.000 C 
ATOM      8  C   UNL     1       1.291   9.781  21.016  0.00  0.00    +0.000 C 
ENDROOT
BRANCH   1   9
ATOM      9  N   UNL     1       0.951  12.002  19.213  0.00  0.00    +0.000 N 
ATOM     10  C   UNL     1       2.090  12.776  19.455  0.00  0.00    +0.000 C 
ATOM     11  O   UNL     1       2.298  13.455  20.459  0.00  0.00    +0.000 OA
ATOM     12  H   UNL     1       1.116  11.080  18.829  0.00  0.00    +0.000 HD
BRANCH  10  13
ATOM     13  C   UNL     1       3.118  12.750  18.296  0.00  0.00    +0.000 C 
ATOM     14  C   UNL     1       3.286  14.141  17.721  0.00  0.00    +0.000 C 
BRANCH  13  15
ATOM     15  N   UNL     1       2.690  11.810  17.235  0.00  0.00    +0.000 NA
ATOM     16  H   UNL     1       2.413  12.362  16.419  0.00  0.00    +0.000 HD
ATOM     17  H   UNL     1       1.818  11.360  17.523  0.00  0.00    +0.000 HD
ENDBRANCH  13  15
ENDBRANCH  10  13
ENDBRANCH   1   9
BRANCH   8  18
ATOM     18  C   UNL     1       1.420   8.961  19.699  0.00  0.00    +0.000 C 
ATOM     19  O   UNL     1       0.857   9.319  18.669  0.00  0.00    +0.000 OA
ATOM     20  N   UNL     1       2.116   7.779  19.803  0.00  0.00    +0.000 N 
ATOM     21  H   UNL     1       2.686   7.641  20.628  0.00  0.00    +0.000 HD
BRANCH  20  22
ATOM     22  C   UNL     1       2.234   6.792  18.729  0.00  0.00    +0.000 C 
BRANCH  22  23
ATOM     23  C   UNL     1       3.671   6.754  18.221  0.00  0.00    +0.000 A 
ATOM     24  C   UNL     1       4.661   6.099  18.957  0.00  0.00    +0.000 A 
ATOM     25  C   UNL     1       5.939   5.926  18.421  0.00  0.00    +0.000 A 
ATOM     26  C   UNL     1       6.227   6.428  17.154  0.00  0.00    +0.000 A 
ATOM     27  C   UNL     1       5.257   7.121  16.432  0.00  0.00    +0.000 A 
ATOM     28  C   UNL     1       3.982   7.294  16.964  0.00  0.00    +0.000 A 
ENDBRANCH  22  23
BRANCH  22  29
ATOM     29  C   UNL     1       1.736   5.398  19.161  0.00  0.00    +0.000 A 
ATOM     30  C   UNL     1       1.515   4.394  18.214  0.00  0.00    +0.000 A 
ATOM     31  C   UNL     1       1.132   3.098  18.547  0.00  0.00    +0.000 A 
ATOM     32  C   UNL     1       0.886   2.780  19.868  0.00  0.00    +0.000 A 
ATOM     33  C   UNL     1       1.069   3.760  20.846  0.00  0.00    +0.000 A 
ATOM     34  C   UNL     1       1.523   5.040  20.498  0.00  0.00    +0.000 A 
ENDBRANCH  22  29
ENDBRANCH  20  22
ENDBRANCH   8  18
BRANCH   1  35
ATOM     35  C   UNL     1      -1.283  13.101  19.271  0.00  0.00    +0.000 C 
BRANCH  35  37
ATOM     36  C   UNL     1      -0.528  15.546  19.344  0.00  0.00    +0.000 C 
ATOM     37  C   UNL     1      -1.232  14.503  19.793  0.00  0.00    +0.000 C 
ENDBRANCH  35  37
ENDBRANCH   1  35
TORSDOF 9
ENDMDL
MODEL 6
REMARK VINA RESULT:      -5.9      3.705      5.797
REMARK  Name = 
REMARK  10 active torsions:
REMARK  status: ('A' for Active; 'I' for Inactive)
REMARK    1  A    between atoms: C_2  and  C_3
REMARK    2  A    between atoms: C_3  and  N_4
REMARK    3  A    between atoms: N_4  and  N_5
REMARK    4  A    between atoms: C_6  and  C_8
REMARK    5  A    between atoms: C_8  and  C_9
REMARK    6  A    between atoms: C_8  and  N_10
REMARK    7  A    between atoms: C_17  and  C_18
REMARK    8  A    between atoms: N_20  and  C_21
REMARK    9  A    between atoms: C_21  and  C_22
REMARK   10  A    between atoms: C_21  and  C_28
REMARK                            x       y       z     vdW  Elec       q    Type
REMARK                         _______ _______ _______ _____ _____    ______ ____
ROOT
ATOM      1  N   UNL     1       3.211  16.594  18.989  0.00  0.00    +0.000 N 
ATOM      2  C   UNL     1       2.101  17.024  18.244  0.00  0.00    +0.000 C 
ATOM      3  O   UNL     1       2.260  17.705  17.224  0.00  0.00    +0.000 OA
ATOM      4  N   UNL     1       0.814  16.676  18.596  0.00  0.00    +0.000 N 
ATOM      5  C   UNL     1      -0.317  17.168  17.804  0.00  0.00    +0.000 C 
ATOM      6  C   UNL     1      -1.397  17.425  18.836  0.00  0.00    +0.000 C 
ATOM      7  C   UNL     1      -1.180  16.324  19.869  0.00  0.00    +0.000 C 
ATOM      8  C   UNL     1       0.287  15.890  19.706  0.00  0.00    +0.000 C 
ENDROOT
BRANCH   1   9
ATOM      9  N   UNL     1       3.132  15.654  20.087  0.00  0.00    +0.000 N 
ATOM     10  C   UNL     1       3.533  15.902  21.404  0.00  0.00    +0.000 C 
ATOM     11  O   UNL     1       3.689  17.011  21.912  0.00  0.00    +0.000 OA
ATOM     12  H   UNL     1       2.439  14.928  19.964  0.00  0.00    +0.000 HD
BRANCH  10  13
ATOM     13  C   UNL     1       3.816  14.615  22.219  0.00  0.00    +0.000 C 
ATOM     14  C   UNL     1       5.310  14.423  22.382  0.00  0.00    +0.000 C 
BRANCH  13  15
ATOM     15  N   UNL     1       3.221  13.431  21.558  0.00  0.00    +0.000 NA
ATOM     16  H   UNL     1       2.262  13.669  21.291  0.00  0.00    +0.000 HD
ATOM     17  H   UNL     1       3.096  12.692  22.253  0.00  0.00    +0.000 HD
ENDBRANCH  13  15
ENDBRANCH  10  13
ENDBRANCH   1   9
BRANCH   8  18
ATOM     18  C   UNL     1       0.373  14.357  19.453  0.00  0.00    +0.000 C 
ATOM     19  O   UNL     1       1.386  13.845  18.988  0.00  0.00    +0.000 OA
ATOM     20  N   UNL     1      -0.784  13.651  19.690  0.00  0.00    +0.000 N 
ATOM     21  H   UNL     1      -1.511  14.108  20.226  0.00  0.00    +0.000 HD
BRANCH  20  22
ATOM     22  C   UNL     1      -0.965  12.232  19.382  0.00  0.00    +0.000 C 
BRANCH  22  23
ATOM     23  C   UNL     1      -0.720  11.398  20.634  0.00  0.00    +0.000 A 
ATOM     24  C   UNL     1      -1.069  11.898  21.892  0.00  0.00    +0.000 A 
ATOM     25  C   UNL     1      -0.994  11.080  23.020  0.00  0.00    +0.000 A 
ATOM     26  C   UNL     1      -0.551   9.766  22.890  0.00  0.00    +0.000 A 
ATOM     27  C   UNL     1      -0.159   9.274  21.646  0.00  0.00    +0.000 A 
ATOM     28  C   UNL     1      -0.234  10.087  20.518  0.00  0.00    +0.000 A 
ENDBRANCH  22  23
BRANCH  22  29
ATOM     29  C   UNL     1      -2.343  11.942  18.753  0.00  0.00    +0.000 A 
ATOM     30  C   UNL     1      -3.520  12.245  19.444  0.00  0.00    +0.000 A 
ATOM     31  C   UNL     1      -4.791  12.071  18.905  0.00  0.00    +0.000 A 
ATOM     32  C   UNL     1      -4.926  11.512  17.650  0.00  0.00    +0.000 A 
ATOM     33  C   UNL     1      -3.776  11.170  16.933  0.00  0.00    +0.000 A 
ATOM     34  C   UNL     1      -2.504  11.417  17.465  0.00  0.00    +0.000 A 
ENDBRANCH  22  29
ENDBRANCH  20  22
ENDBRANCH   8  18
BRANCH   1  35
ATOM     35  C   UNL     1       4.542  16.838  18.409  0.00  0.00    +0.000 C 
BRANCH  35  37
ATOM     36  C   UNL     1       6.007  14.813  17.856  0.00  0.00    +0.000 C 
ATOM     37  C   UNL     1       5.574  15.784  18.664  0.00  0.00    +0.000 C 
ENDBRANCH  35  37
ENDBRANCH   1  35
TORSDOF 9
ENDMDL
MODEL 7
REMARK VINA RESULT:      -5.9      8.434     12.745
REMARK  Name = 
REMARK  10 active torsions:
REMARK  status: ('A' for Active; 'I' for Inactive)
REMARK    1  A    between atoms: C_2  and  C_3
REMARK    2  A    between atoms: C_3  and  N_4
REMARK    3  A    between atoms: N_4  and  N_5
REMARK    4  A    between atoms: C_6  and  C_8
REMARK    5  A    between atoms: C_8  and  C_9
REMARK    6  A    between atoms: C_8  and  N_10
REMARK    7  A    between atoms: C_17  and  C_18
REMARK    8  A    between atoms: N_20  and  C_21
REMARK    9  A    between atoms: C_21  and  C_22
REMARK   10  A    between atoms: C_21  and  C_28
REMARK                            x       y       z     vdW  Elec       q    Type
REMARK                         _______ _______ _______ _____ _____    ______ ____
ROOT
ATOM      1  N   UNL     1       5.353  17.200  21.104  0.00  0.00    +0.000 N 
ATOM      2  C   UNL     1       6.689  17.599  21.273  0.00  0.00    +0.000 C 
ATOM      3  O   UNL     1       7.042  18.168  22.311  0.00  0.00    +0.000 OA
ATOM      4  N   UNL     1       7.648  17.338  20.317  0.00  0.00    +0.000 N 
ATOM      5  C   UNL     1       9.025  17.794  20.524  0.00  0.00    +0.000 C 
ATOM      6  C   UNL     1       9.487  18.193  19.137  0.00  0.00    +0.000 C 
ATOM      7  C   UNL     1       8.790  17.192  18.222  0.00  0.00    +0.000 C 
ATOM      8  C   UNL     1       7.573  16.686  19.014  0.00  0.00    +0.000 C 
ENDROOT
BRANCH   1   9
ATOM      9  N   UNL     1       4.887  16.377  20.008  0.00  0.00    +0.000 N 
ATOM     10  C   UNL     1       3.731  16.601  19.254  0.00  0.00    +0.000 C 
ATOM     11  O   UNL     1       3.126  17.667  19.163  0.00  0.00    +0.000 OA
ATOM     12  H   UNL     1       5.613  15.835  19.558  0.00  0.00    +0.000 HD
BRANCH  10  13
ATOM     13  C   UNL     1       3.212  15.336  18.523  0.00  0.00    +0.000 C 
ATOM     14  C   UNL     1       3.168  14.165  19.483  0.00  0.00    +0.000 C 
BRANCH  13  15
ATOM     15  N   UNL     1       4.072  15.009  17.363  0.00  0.00    +0.000 NA
ATOM     16  H   UNL     1       3.625  15.386  16.523  0.00  0.00    +0.000 HD
ATOM     17  H   UNL     1       4.051  13.998  17.209  0.00  0.00    +0.000 HD
ENDBRANCH  13  15
ENDBRANCH  10  13
ENDBRANCH   1   9
BRANCH   8  18
ATOM     18  C   UNL     1       7.599  15.133  19.115  0.00  0.00    +0.000 C 
ATOM     19  O   UNL     1       6.900  14.436  18.386  0.00  0.00    +0.000 OA
ATOM     20  N   UNL     1       8.373  14.618  20.129  0.00  0.00    +0.000 N 
ATOM     21  H   UNL     1       9.042  15.237  20.569  0.00  0.00    +0.000 HD
BRANCH  20  22
ATOM     22  C   UNL     1       8.427  13.201  20.491  0.00  0.00    +0.000 C 
BRANCH  22  23
ATOM     23  C   UNL     1       9.645  12.551  19.845  0.00  0.00    +0.000 A 
ATOM     24  C   UNL     1       9.565  12.043  18.545  0.00  0.00    +0.000 A 
ATOM     25  C   UNL     1      10.715  11.592  17.895  0.00  0.00    +0.000 A 
ATOM     26  C   UNL     1      11.941  11.633  18.555  0.00  0.00    +0.000 A 
ATOM     27  C   UNL     1      12.020  12.097  19.867  0.00  0.00    +0.000 A 
ATOM     28  C   UNL     1      10.876  12.548  20.519  0.00  0.00    +0.000 A 
ENDBRANCH  22  23
BRANCH  22  29
ATOM     29  C   UNL     1       8.397  12.988  22.018  0.00  0.00    +0.000 A 
ATOM     30  C   UNL     1       8.600  14.059  22.892  0.00  0.00    +0.000 A 
ATOM     31  C   UNL     1       8.517  13.945  24.277  0.00  0.00    +0.000 A 
ATOM     32  C   UNL     1       8.290  12.706  24.843  0.00  0.00    +0.000 A 
ATOM     33  C   UNL     1       8.107  11.602  24.008  0.00  0.00    +0.000 A 
ATOM     34  C   UNL     1       8.124  11.751  22.614  0.00  0.00    +0.000 A 
ENDBRANCH  22  29
ENDBRANCH  20  22
ENDBRANCH   8  18
BRANCH   1  35
ATOM     35  C   UNL     1       4.461  17.333  22.268  0.00  0.00    +0.000 C 
BRANCH  35  37
ATOM     36  C   UNL     1       4.953  14.948  23.055  0.00  0.00    +0.000 C 
ATOM     37  C   UNL     1       4.415  16.162  23.199  0.00  0.00    +0.000 C 
ENDBRANCH  35  37
ENDBRANCH   1  35
TORSDOF 9
ENDMDL
MODEL 8
REMARK VINA RESULT:      -5.9      2.389      6.176
REMARK  Name = 
REMARK  10 active torsions:
REMARK  status: ('A' for Active; 'I' for Inactive)
REMARK    1  A    between atoms: C_2  and  C_3
REMARK    2  A    between atoms: C_3  and  N_4
REMARK    3  A    between atoms: N_4  and  N_5
REMARK    4  A    between atoms: C_6  and  C_8
REMARK    5  A    between atoms: C_8  and  C_9
REMARK    6  A    between atoms: C_8  and  N_10
REMARK    7  A    between atoms: C_17  and  C_18
REMARK    8  A    between atoms: N_20  and  C_21
REMARK    9  A    between atoms: C_21  and  C_22
REMARK   10  A    between atoms: C_21  and  C_28
REMARK                            x       y       z     vdW  Elec       q    Type
REMARK                         _______ _______ _______ _____ _____    ______ ____
ROOT
ATOM      1  N   UNL     1      -1.974  15.814  21.013  0.00  0.00    +0.000 N 
ATOM      2  C   UNL     1      -3.158  15.084  21.213  0.00  0.00    +0.000 C 
ATOM      3  O   UNL     1      -4.216  15.461  20.699  0.00  0.00    +0.000 OA
ATOM      4  N   UNL     1      -3.173  13.918  21.948  0.00  0.00    +0.000 N 
ATOM      5  C   UNL     1      -4.435  13.202  22.153  0.00  0.00    +0.000 C 
ATOM      6  C   UNL     1      -4.321  12.663  23.565  0.00  0.00    +0.000 C 
ATOM      7  C   UNL     1      -2.839  12.333  23.708  0.00  0.00    +0.000 C 
ATOM      8  C   UNL     1      -2.120  13.202  22.661  0.00  0.00    +0.000 C 
ENDROOT
BRANCH   1   9
ATOM      9  N   UNL     1      -0.664  15.358  21.424  0.00  0.00    +0.000 N 
ATOM     10  C   UNL     1       0.165  15.990  22.357  0.00  0.00    +0.000 C 
ATOM     11  O   UNL     1      -0.195  16.806  23.203  0.00  0.00    +0.000 OA
ATOM     12  H   UNL     1      -0.508  14.366  21.293  0.00  0.00    +0.000 HD
BRANCH  10  13
ATOM     13  C   UNL     1       1.659  15.597  22.227  0.00  0.00    +0.000 C 
ATOM     14  C   UNL     1       2.322  16.433  21.152  0.00  0.00    +0.000 C 
BRANCH  13  15
ATOM     15  N   UNL     1       1.799  14.158  21.909  0.00  0.00    +0.000 NA
ATOM     16  H   UNL     1       2.796  13.953  21.807  0.00  0.00    +0.000 HD
ATOM     17  H   UNL     1       1.426  13.987  20.972  0.00  0.00    +0.000 HD
ENDBRANCH  13  15
ENDBRANCH  10  13
ENDBRANCH   1   9
BRANCH   8  18
ATOM     18  C   UNL     1      -1.253  12.314  21.722  0.00  0.00    +0.000 C 
ATOM     19  O   UNL     1      -0.137  11.932  22.060  0.00  0.00    +0.000 OA
ATOM     20  N   UNL     1      -1.782  12.078  20.474  0.00  0.00    +0.000 N 
ATOM     21  H   UNL     1      -2.764  12.278  20.336  0.00  0.00    +0.000 HD
BRANCH  20  22
ATOM     22  C   UNL     1      -1.074  11.393  19.392  0.00  0.00    +0.000 C 
BRANCH  22  23
ATOM     23  C   UNL     1      -2.035  11.117  18.242  0.00  0.00    +0.000 A 
ATOM     24  C   UNL     1      -1.696  10.198  17.246  0.00  0.00    +0.000 A 
ATOM     25  C   UNL     1      -2.634   9.826  16.282  0.00  0.00    +0.000 A 
ATOM     26  C   UNL     1      -3.908  10.390  16.307  0.00  0.00    +0.000 A 
ATOM     27  C   UNL     1      -4.239  11.340  17.271  0.00  0.00    +0.000 A 
ATOM     28  C   UNL     1      -3.306  11.713  18.234  0.00  0.00    +0.000 A 
ENDBRANCH  22  23
BRANCH  22  29
ATOM     29  C   UNL     1       0.176  12.170  18.929  0.00  0.00    +0.000 A 
ATOM     30  C   UNL     1       0.111  13.544  18.683  0.00  0.00    +0.000 A 
ATOM     31  C   UNL     1       1.216  14.312  18.330  0.00  0.00    +0.000 A 
ATOM     32  C   UNL     1       2.438  13.698  18.142  0.00  0.00    +0.000 A 
ATOM     33  C   UNL     1       2.544  12.321  18.353  0.00  0.00    +0.000 A 
ATOM     34  C   UNL     1       1.434  11.576  18.776  0.00  0.00    +0.000 A 
ENDBRANCH  22  29
ENDBRANCH  20  22
ENDBRANCH   8  18
BRANCH   1  35
ATOM     35  C   UNL     1      -2.024  16.919  20.041  0.00  0.00    +0.000 C 
BRANCH  35  37
ATOM     36  C   UNL     1      -0.744  17.478  17.896  0.00  0.00    +0.000 C 
ATOM     37  C   UNL     1      -0.818  17.086  19.171  0.00  0.00    +0.000 C 
ENDBRANCH  35  37
ENDBRANCH   1  35
TORSDOF 9
ENDMDL
MODEL 9
REMARK VINA RESULT:      -5.8      0.800      1.192
REMARK  Name = 
REMARK  10 active torsions:
REMARK  status: ('A' for Active; 'I' for Inactive)
REMARK    1  A    between atoms: C_2  and  C_3
REMARK    2  A    between atoms: C_3  and  N_4
REMARK    3  A    between atoms: N_4  and  N_5
REMARK    4  A    between atoms: C_6  and  C_8
REMARK    5  A    between atoms: C_8  and  C_9
REMARK    6  A    between atoms: C_8  and  N_10
REMARK    7  A    between atoms: C_17  and  C_18
REMARK    8  A    between atoms: N_20  and  C_21
REMARK    9  A    between atoms: C_21  and  C_22
REMARK   10  A    between atoms: C_21  and  C_28
REMARK                            x       y       z     vdW  Elec       q    Type
REMARK                         _______ _______ _______ _____ _____    ______ ____
ROOT
ATOM      1  N   UNL     1      -0.671  12.674  19.791  0.00  0.00    +0.000 N 
ATOM      2  C   UNL     1      -0.986  13.995  20.149  0.00  0.00    +0.000 C 
ATOM      3  O   UNL     1      -1.017  14.883  19.290  0.00  0.00    +0.000 OA
ATOM      4  N   UNL     1      -1.305  14.337  21.446  0.00  0.00    +0.000 N 
ATOM      5  C   UNL     1      -1.602  15.732  21.780  0.00  0.00    +0.000 C 
ATOM      6  C   UNL     1      -1.007  15.908  23.162  0.00  0.00    +0.000 C 
ATOM      7  C   UNL     1      -1.225  14.553  23.827  0.00  0.00    +0.000 C 
ATOM      8  C   UNL     1      -1.375  13.548  22.672  0.00  0.00    +0.000 C 
ENDROOT
BRANCH   1   9
ATOM      9  N   UNL     1      -0.782  11.545  20.689  0.00  0.00    +0.000 N 
ATOM     10  C   UNL     1       0.286  10.810  21.213  0.00  0.00    +0.000 C 
ATOM     11  O   UNL     1       1.455  11.187  21.279  0.00  0.00    +0.000 OA
ATOM     12  H   UNL     1      -1.641  11.522  21.224  0.00  0.00    +0.000 HD
BRANCH  10  13
ATOM     13  C   UNL     1      -0.114   9.396  21.703  0.00  0.00    +0.000 C 
ATOM     14  C   UNL     1      -0.221   9.383  23.214  0.00  0.00    +0.000 C 
BRANCH  13  15
ATOM     15  N   UNL     1       0.872   8.385  21.256  0.00  0.00    +0.000 NA
ATOM     16  H   UNL     1       0.829   7.595  21.905  0.00  0.00    +0.000 HD
ATOM     17  H   UNL     1       1.814   8.756  21.398  0.00  0.00    +0.000 HD
ENDBRANCH  13  15
ENDBRANCH  10  13
ENDBRANCH   1   9
BRANCH   8  18
ATOM     18  C   UNL     1      -2.713  12.764  22.807  0.00  0.00    +0.000 C 
ATOM     19  O   UNL     1      -2.771  11.707  23.428  0.00  0.00    +0.000 OA
ATOM     20  N   UNL     1      -3.778  13.284  22.108  0.00  0.00    +0.000 N 
ATOM     21  H   UNL     1      -3.697  14.233  21.767  0.00  0.00    +0.000 HD
BRANCH  20  22
ATOM     22  C   UNL     1      -5.082  12.631  21.981  0.00  0.00    +0.000 C 
BRANCH  22  23
ATOM     23  C   UNL     1      -6.153  13.489  22.644  0.00  0.00    +0.000 A 
ATOM     24  C   UNL     1      -7.024  12.928  23.582  0.00  0.00    +0.000 A 
ATOM     25  C   UNL     1      -7.899  13.741  24.305  0.00  0.00    +0.000 A 
ATOM     26  C   UNL     1      -7.913  15.114  24.073  0.00  0.00    +0.000 A 
ATOM     27  C   UNL     1      -7.079  15.675  23.107  0.00  0.00    +0.000 A 
ATOM     28  C   UNL     1      -6.204  14.867  22.385  0.00  0.00    +0.000 A 
ENDBRANCH  22  23
BRANCH  22  29
ATOM     29  C   UNL     1      -5.428  12.301  20.515  0.00  0.00    +0.000 A 
ATOM     30  C   UNL     1      -6.755  12.102  20.123  0.00  0.00    +0.000 A 
ATOM     31  C   UNL     1      -7.137  11.869  18.805  0.00  0.00    +0.000 A 
ATOM     32  C   UNL     1      -6.170  11.759  17.826  0.00  0.00    +0.000 A 
ATOM     33  C   UNL     1      -4.828  11.925  18.178  0.00  0.00    +0.000 A 
ATOM     34  C   UNL     1      -4.469  12.228  19.498  0.00  0.00    +0.000 A 
ENDBRANCH  22  29
ENDBRANCH  20  22
ENDBRANCH   8  18
BRANCH   1  35
ATOM     35  C   UNL     1      -0.559  12.378  18.352  0.00  0.00    +0.000 C 
BRANCH  35  37
ATOM     36  C   UNL     1      -1.222  10.026  17.591  0.00  0.00    +0.000 C 
ATOM     37  C   UNL     1      -1.474  11.317  17.825  0.00  0.00    +0.000 C 
ENDBRANCH  35  37
ENDBRANCH   1  35
TORSDOF 9
ENDMDL
