MODEL 1
REMARK VINA RESULT:      -7.9      0.000      0.000
REMARK  Name = 
REMARK  6 active torsions:
REMARK  status: ('A' for Active; 'I' for Inactive)
REMARK    1  A    between atoms: C_1  and  C_2
REMARK    2  A    between atoms: C_2  and  O_4
REMARK    3  A    between atoms: O_4  and  C_5
REMARK    4  A    between atoms: C_8  and  N_9
REMARK    5  A    between atoms: C_16  and  C_17
REMARK    6  A    between atoms: C_17  and  C_19
REMARK                            x       y       z     vdW  Elec       q    Type
REMARK                         _______ _______ _______ _____ _____    ______ ____
ROOT
ATOM      1  N   UNL     1       0.790  10.465  18.661  0.00  0.00    +0.000 N 
ATOM      2  C   UNL     1       1.461  11.658  18.719  0.00  0.00    +0.000 C 
ATOM      3  O   UNL     1       2.126  12.179  17.836  0.00  0.00    +0.000 OA
ATOM      4  C   UNL     1       1.213  12.260  20.070  0.00  0.00    +0.000 C 
ATOM      5  C   UNL     1       0.057  11.451  20.620  0.00  0.00    +0.000 C 
ATOM      6  C   UNL     1      -0.337  10.603  19.441  0.00  0.00    +0.000 C 
ATOM      7  O   UNL     1      -1.461  10.180  19.209  0.00  0.00    +0.000 OA
ATOM      8  C   UNL     1      -1.005  12.446  21.050  0.00  0.00    +0.000 C 
ATOM      9  N   UNL     1      -0.380  13.792  20.954  0.00  0.00    +0.000 NA
ATOM     10  C   UNL     1       0.107  14.494  22.145  0.00  0.00    +0.000 C 
ATOM     11  C   UNL     1       1.604  14.696  21.974  0.00  0.00    +0.000 C 
ATOM     12  C   UNL     1       1.800  14.669  20.473  0.00  0.00    +0.000 C 
ATOM     13  C   UNL     1       0.736  13.692  19.991  0.00  0.00    +0.000 C 
ENDROOT
BRANCH   1  17
ATOM     14  C   UNL     1       2.748   6.754  19.095  0.00  0.00    +0.000 A 
ATOM     15  C   UNL     1       2.016   7.258  20.166  0.00  0.00    +0.000 A 
ATOM     16  C   UNL     1       1.424   8.517  20.054  0.00  0.00    +0.000 A 
ATOM     17  C   UNL     1       1.532   9.258  18.860  0.00  0.00    +0.000 A 
ATOM     18  C   UNL     1       2.284   8.735  17.802  0.00  0.00    +0.000 A 
ATOM     19  C   UNL     1       2.904   7.495  17.925  0.00  0.00    +0.000 A 
BRANCH  14  20
ATOM     20  O   UNL     1       3.459   5.564  19.305  0.00  0.00    +0.000 OA
BRANCH  20  22
ATOM     21  C   UNL     1       1.996   4.062  18.262  0.00  0.00    +0.000 C 
ATOM     22  C   UNL     1       3.396   4.594  18.309  0.00  0.00    +0.000 C 
ATOM     23  O   UNL     1       4.319   4.195  17.613  0.00  0.00    +0.000 OA
ENDBRANCH  20  22
ENDBRANCH  14  20
ENDBRANCH   1  17
BRANCH   8  24
ATOM     24  C   UNL     1      -1.600  12.085  22.415  0.00  0.00    +0.000 C 
ATOM     25  O   UNL     1      -0.960  11.477  23.273  0.00  0.00    +0.000 OA
BRANCH  24  26
ATOM     26  C   UNL     1      -3.011  12.459  22.726  0.00  0.00    +0.000 A 
ATOM     27  C   UNL     1      -3.517  12.423  24.026  0.00  0.00    +0.000 A 
ATOM     28  C   UNL     1      -4.861  12.727  24.256  0.00  0.00    +0.000 A 
ATOM     29  C   UNL     1      -5.694  13.069  23.192  0.00  0.00    +0.000 A 
ATOM     30 CL   UNL     1      -7.351  13.421  23.489  0.00  0.00    +0.000 Cl
ATOM     31  C   UNL     1      -5.194  13.121  21.893  0.00  0.00    +0.000 A 
ATOM     32  C   UNL     1      -3.849  12.824  21.661  0.00  0.00    +0.000 A 
ENDBRANCH  24  26
ENDBRANCH   8  24
TORSDOF 5
ENDMDL
MODEL 2
REMARK VINA RESULT:      -7.9      3.445      8.481
REMARK  Name = 
REMARK  6 active torsions:
REMARK  status: ('A' for Active; 'I' for Inactive)
REMARK    1  A    between atoms: C_1  and  C_2
REMARK    2  A    between atoms: C_2  and  O_4
REMARK    3  A    between atoms: O_4  and  C_5
REMARK    4  A    between atoms: C_8  and  N_9
REMARK    5  A    between atoms: C_16  and  C_17
REMARK    6  A    between atoms: C_17  and  C_19
REMARK                            x       y       z     vdW  Elec       q    Type
REMARK                         _______ _______ _______ _____ _____    ______ ____
ROOT
ATOM      1  N   UNL     1      -1.042  12.982  23.150  0.00  0.00    +0.000 N 
ATOM      2  C   UNL     1      -0.334  14.010  22.585  0.00  0.00    +0.000 C 
ATOM      3  O   UNL     1       0.048  15.034  23.130  0.00  0.00    +0.000 OA
ATOM      4  C   UNL     1      -0.065  13.651  21.154  0.00  0.00    +0.000 C 
ATOM      5  C   UNL     1      -0.389  12.173  21.085  0.00  0.00    +0.000 C 
ATOM      6  C   UNL     1      -0.628  11.824  22.529  0.00  0.00    +0.000 C 
ATOM      7  O   UNL     1      -0.430  10.731  23.042  0.00  0.00    +0.000 OA
ATOM      8  C   UNL     1       0.822  11.490  20.475  0.00  0.00    +0.000 C 
ATOM      9  N   UNL     1       1.722  12.577  20.005  0.00  0.00    +0.000 NA
ATOM     10  C   UNL     1       1.793  12.950  18.589  0.00  0.00    +0.000 C 
ATOM     11  C   UNL     1       1.345  14.399  18.478  0.00  0.00    +0.000 C 
ATOM     12  C   UNL     1       1.631  14.969  19.851  0.00  0.00    +0.000 C 
ATOM     13  C   UNL     1       1.394  13.789  20.783  0.00  0.00    +0.000 C 
ENDROOT
BRANCH   1  17
ATOM     14  C   UNL     1      -5.160  13.645  23.783  0.00  0.00    +0.000 A 
ATOM     15  C   UNL     1      -4.544  12.576  24.427  0.00  0.00    +0.000 A 
ATOM     16  C   UNL     1      -3.199  12.308  24.168  0.00  0.00    +0.000 A 
ATOM     17  C   UNL     1      -2.458  13.130  23.294  0.00  0.00    +0.000 A 
ATOM     18  C   UNL     1      -3.104  14.190  22.648  0.00  0.00    +0.000 A 
ATOM     19  C   UNL     1      -4.454  14.437  22.880  0.00  0.00    +0.000 A 
BRANCH  14  20
ATOM     20  O   UNL     1      -6.546  13.781  23.945  0.00  0.00    +0.000 OA
BRANCH  20  22
ATOM     21  C   UNL     1      -7.908  13.343  22.092  0.00  0.00    +0.000 C 
ATOM     22  C   UNL     1      -7.359  12.805  23.378  0.00  0.00    +0.000 C 
ATOM     23  O   UNL     1      -7.630  11.710  23.850  0.00  0.00    +0.000 OA
ENDBRANCH  20  22
ENDBRANCH  14  20
ENDBRANCH   1  17
BRANCH   8  24
ATOM     24  C   UNL     1       0.418  10.457  19.419  0.00  0.00    +0.000 C 
ATOM     25  O   UNL     1      -0.622  10.552  18.768  0.00  0.00    +0.000 OA
BRANCH  24  26
ATOM     26  C   UNL     1       1.296   9.277  19.168  0.00  0.00    +0.000 A 
ATOM     27  C   UNL     1       1.939   9.079  17.945  0.00  0.00    +0.000 A 
ATOM     28  C   UNL     1       2.704   7.927  17.742  0.00  0.00    +0.000 A 
ATOM     29  C   UNL     1       2.828   6.980  18.758  0.00  0.00    +0.000 A 
ATOM     30 CL   UNL     1       3.757   5.559  18.486  0.00  0.00    +0.000 Cl
ATOM     31  C   UNL     1       2.202   7.178  19.986  0.00  0.00    +0.000 A 
ATOM     32  C   UNL     1       1.441   8.331  20.195  0.00  0.00    +0.000 A 
ENDBRANCH  24  26
ENDBRANCH   8  24
TORSDOF 5
ENDMDL
MODEL 3
REMARK VINA RESULT:      -7.8      0.543      1.118
REMARK  Name = 
REMARK  6 active torsions:
REMARK  status: ('A' for Active; 'I' for Inactive)
REMARK    1  A    between atoms: C_1  and  C_2
REMARK    2  A    between atoms: C_2  and  O_4
REMARK    3  A    between atoms: O_4  and  C_5
REMARK    4  A    between atoms: C_8  and  N_9
REMARK    5  A    between atoms: C_16  and  C_17
REMARK    6  A    between atoms: C_17  and  C_19
REMARK                            x       y       z     vdW  Elec       q    Type
REMARK                         _______ _______ _______ _____ _____    ______ ____
ROOT
ATOM      1  N   UNL     1       0.894  10.420  18.625  0.00  0.00    +0.000 N 
ATOM      2  C   UNL     1       1.595  11.596  18.656  0.00  0.00    +0.000 C 
ATOM      3  O   UNL     1       2.268  12.082  17.759  0.00  0.00    +0.000 OA
ATOM      4  C   UNL     1       1.370  12.231  19.996  0.00  0.00    +0.000 C 
ATOM      5  C   UNL     1       0.197  11.462  20.567  0.00  0.00    +0.000 C 
ATOM      6  C   UNL     1      -0.225  10.602  19.408  0.00  0.00    +0.000 C 
ATOM      7  O   UNL     1      -1.361  10.203  19.190  0.00  0.00    +0.000 OA
ATOM      8  C   UNL     1      -0.837  12.493  20.983  0.00  0.00    +0.000 C 
ATOM      9  N   UNL     1      -0.178  13.820  20.856  0.00  0.00    +0.000 NA
ATOM     10  C   UNL     1       0.333  14.533  22.031  0.00  0.00    +0.000 C 
ATOM     11  C   UNL     1       1.834  14.693  21.848  0.00  0.00    +0.000 C 
ATOM     12  C   UNL     1       2.020  14.632  20.346  0.00  0.00    +0.000 C 
ATOM     13  C   UNL     1       0.930  13.673  19.890  0.00  0.00    +0.000 C 
ENDROOT
BRANCH   1  17
ATOM     14  C   UNL     1       2.760   6.669  19.124  0.00  0.00    +0.000 A 
ATOM     15  C   UNL     1       2.045   7.211  20.187  0.00  0.00    +0.000 A 
ATOM     16  C   UNL     1       1.484   8.483  20.053  0.00  0.00    +0.000 A 
ATOM     17  C   UNL     1       1.606   9.198  18.845  0.00  0.00    +0.000 A 
ATOM     18  C   UNL     1       2.341   8.637  17.794  0.00  0.00    +0.000 A 
ATOM     19  C   UNL     1       2.930   7.383  17.939  0.00  0.00    +0.000 A 
BRANCH  14  20
ATOM     20  O   UNL     1       3.441   5.465  19.354  0.00  0.00    +0.000 OA
BRANCH  20  22
ATOM     21  C   UNL     1       1.898   3.937  18.479  0.00  0.00    +0.000 C 
ATOM     22  C   UNL     1       2.679   4.350  19.688  0.00  0.00    +0.000 C 
ATOM     23  O   UNL     1       2.607   3.812  20.784  0.00  0.00    +0.000 OA
ENDBRANCH  20  22
ENDBRANCH  14  20
ENDBRANCH   1  17
BRANCH   8  24
ATOM     24  C   UNL     1      -1.434  12.175  22.357  0.00  0.00    +0.000 C 
ATOM     25  O   UNL     1      -0.770  11.671  23.263  0.00  0.00    +0.000 OA
BRANCH  24  26
ATOM     26  C   UNL     1      -2.874  12.463  22.620  0.00  0.00    +0.000 A 
ATOM     27  C   UNL     1      -3.750  12.849  21.604  0.00  0.00    +0.000 A 
ATOM     28  C   UNL     1      -5.075  13.163  21.913  0.00  0.00    +0.000 A 
ATOM     29  C   UNL     1      -5.524  13.088  23.231  0.00  0.00    +0.000 A 
ATOM     30 CL   UNL     1      -7.154  13.497  23.598  0.00  0.00    +0.000 Cl
ATOM     31  C   UNL     1      -4.661  12.689  24.249  0.00  0.00    +0.000 A 
ATOM     32  C   UNL     1      -3.336  12.369  23.942  0.00  0.00    +0.000 A 
ENDBRANCH  24  26
ENDBRANCH   8  24
TORSDOF 5
ENDMDL
MODEL 4
REMARK VINA RESULT:      -7.8      4.133      7.810
REMARK  Name = 
REMARK  6 active torsions:
REMARK  status: ('A' for Active; 'I' for Inactive)
REMARK    1  A    between atoms: C_1  and  C_2
REMARK    2  A    between atoms: C_2  and  O_4
REMARK    3  A    between atoms: O_4  and  C_5
REMARK    4  A    between atoms: C_8  and  N_9
REMARK    5  A    between atoms: C_16  and  C_17
REMARK    6  A    between atoms: C_17  and  C_19
REMARK                            x       y       z     vdW  Elec       q    Type
REMARK                         _______ _______ _______ _____ _____    ______ ____
ROOT
ATOM      1  N   UNL     1       5.688   4.625  18.035  0.00  0.00    +0.000 N 
ATOM      2  C   UNL     1       4.981   3.702  18.761  0.00  0.00    +0.000 C 
ATOM      3  O   UNL     1       5.403   2.669  19.257  0.00  0.00    +0.000 OA
ATOM      4  C   UNL     1       3.570   4.196  18.883  0.00  0.00    +0.000 C 
ATOM      5  C   UNL     1       3.656   5.646  18.454  0.00  0.00    +0.000 C 
ATOM      6  C   UNL     1       5.139   5.858  18.315  0.00  0.00    +0.000 C 
ATOM      7  O   UNL     1       5.728   6.916  18.481  0.00  0.00    +0.000 OA
ATOM      8  C   UNL     1       3.015   6.464  19.560  0.00  0.00    +0.000 C 
ATOM      9  N   UNL     1       2.382   5.490  20.488  0.00  0.00    +0.000 NA
ATOM     10  C   UNL     1       0.938   5.239  20.464  0.00  0.00    +0.000 C 
ATOM     11  C   UNL     1       0.736   3.775  20.108  0.00  0.00    +0.000 C 
ATOM     12  C   UNL     1       2.028   3.118  20.547  0.00  0.00    +0.000 C 
ATOM     13  C   UNL     1       3.075   4.197  20.311  0.00  0.00    +0.000 C 
ENDROOT
BRANCH   1  17
ATOM     14  C   UNL     1       6.308   4.138  13.890  0.00  0.00    +0.000 A 
ATOM     15  C   UNL     1       5.143   3.632  14.461  0.00  0.00    +0.000 A 
ATOM     16  C   UNL     1       4.964   3.728  15.842  0.00  0.00    +0.000 A 
ATOM     17  C   UNL     1       5.930   4.360  16.650  0.00  0.00    +0.000 A 
ATOM     18  C   UNL     1       7.098   4.849  16.055  0.00  0.00    +0.000 A 
ATOM     19  C   UNL     1       7.294   4.724  14.682  0.00  0.00    +0.000 A 
BRANCH  14  20
ATOM     20  O   UNL     1       6.523   3.880  12.530  0.00  0.00    +0.000 OA
BRANCH  20  22
ATOM     21  C   UNL     1       6.206   1.803  11.496  0.00  0.00    +0.000 C 
ATOM     22  C   UNL     1       5.573   3.110  11.864  0.00  0.00    +0.000 C 
ATOM     23  O   UNL     1       4.432   3.440  11.576  0.00  0.00    +0.000 OA
ENDBRANCH  20  22
ENDBRANCH  14  20
ENDBRANCH   1  17
BRANCH   8  24
ATOM     24  C   UNL     1       2.087   7.546  18.999  0.00  0.00    +0.000 C 
ATOM     25  O   UNL     1       1.849   7.652  17.796  0.00  0.00    +0.000 OA
BRANCH  24  26
ATOM     26  C   UNL     1       1.453   8.528  19.927  0.00  0.00    +0.000 A 
ATOM     27  C   UNL     1       1.532   8.394  21.314  0.00  0.00    +0.000 A 
ATOM     28  C   UNL     1       0.873   9.308  22.139  0.00  0.00    +0.000 A 
ATOM     29  C   UNL     1       0.140  10.355  21.579  0.00  0.00    +0.000 A 
ATOM     30 CL   UNL     1      -0.682  11.461  22.608  0.00  0.00    +0.000 Cl
ATOM     31  C   UNL     1       0.069  10.505  20.196  0.00  0.00    +0.000 A 
ATOM     32  C   UNL     1       0.732   9.595  19.369  0.00  0.00    +0.000 A 
ENDBRANCH  24  26
ENDBRANCH   8  24
TORSDOF 5
ENDMDL
MODEL 5
REMARK VINA RESULT:      -7.7      4.048      7.716
REMARK  Name = 
REMARK  6 active torsions:
REMARK  status: ('A' for Active; 'I' for Inactive)
REMARK    1  A    between atoms: C_1  and  C_2
REMARK    2  A    between atoms: C_2  and  O_4
REMARK    3  A    between atoms: O_4  and  C_5
REMARK    4  A    between atoms: C_8  and  N_9
REMARK    5  A    between atoms: C_16  and  C_17
REMARK    6  A    between atoms: C_17  and  C_19
REMARK                            x       y       z     vdW  Elec       q    Type
REMARK                         _______ _______ _______ _____ _____    ______ ____
ROOT
ATOM      1  N   UNL     1       5.665   4.977  17.721  0.00  0.00    +0.000 N 
ATOM      2  C   UNL     1       5.051   4.028  18.495  0.00  0.00    +0.000 C 
ATOM      3  O   UNL     1       5.553   3.019  18.968  0.00  0.00    +0.000 OA
ATOM      4  C   UNL     1       3.629   4.455  18.705  0.00  0.00    +0.000 C 
ATOM      5  C   UNL     1       3.618   5.904  18.265  0.00  0.00    +0.000 C 
ATOM      6  C   UNL     1       5.077   6.184  18.030  0.00  0.00    +0.000 C 
ATOM      7  O   UNL     1       5.625   7.271  18.152  0.00  0.00    +0.000 OA
ATOM      8  C   UNL     1       3.010   6.700  19.405  0.00  0.00    +0.000 C 
ATOM      9  N   UNL     1       2.485   5.704  20.377  0.00  0.00    +0.000 NA
ATOM     10  C   UNL     1       1.056   5.385  20.447  0.00  0.00    +0.000 C 
ATOM     11  C   UNL     1       0.902   3.910  20.112  0.00  0.00    +0.000 C 
ATOM     12  C   UNL     1       2.250   3.319  20.471  0.00  0.00    +0.000 C 
ATOM     13  C   UNL     1       3.227   4.445  20.162  0.00  0.00    +0.000 C 
ENDROOT
BRANCH   1  17
ATOM     14  C   UNL     1       6.298   3.933  13.682  0.00  0.00    +0.000 A 
ATOM     15  C   UNL     1       7.148   4.860  14.279  0.00  0.00    +0.000 A 
ATOM     16  C   UNL     1       6.902   5.263  15.593  0.00  0.00    +0.000 A 
ATOM     17  C   UNL     1       5.830   4.713  16.324  0.00  0.00    +0.000 A 
ATOM     18  C   UNL     1       4.981   3.793  15.698  0.00  0.00    +0.000 A 
ATOM     19  C   UNL     1       5.205   3.416  14.376  0.00  0.00    +0.000 A 
BRANCH  14  20
ATOM     20  O   UNL     1       6.482   3.678  12.316  0.00  0.00    +0.000 OA
BRANCH  20  22
ATOM     21  C   UNL     1       4.326   3.418  11.440  0.00  0.00    +0.000 C 
ATOM     22  C   UNL     1       5.637   2.748  11.717  0.00  0.00    +0.000 C 
ATOM     23  O   UNL     1       5.884   1.573  11.489  0.00  0.00    +0.000 OA
ENDBRANCH  20  22
ENDBRANCH  14  20
ENDBRANCH   1  17
BRANCH   8  24
ATOM     24  C   UNL     1       1.998   7.733  18.900  0.00  0.00    +0.000 C 
ATOM     25  O   UNL     1       1.683   7.821  17.713  0.00  0.00    +0.000 OA
BRANCH  24  26
ATOM     26  C   UNL     1       1.374   8.687  19.863  0.00  0.00    +0.000 A 
ATOM     27  C   UNL     1       1.494   8.528  21.245  0.00  0.00    +0.000 A 
ATOM     28  C   UNL     1       0.842   9.417  22.103  0.00  0.00    +0.000 A 
ATOM     29  C   UNL     1       0.077  10.460  21.584  0.00  0.00    +0.000 A 
ATOM     30 CL   UNL     1      -0.735  11.533  22.655  0.00  0.00    +0.000 Cl
ATOM     31  C   UNL     1      -0.035  10.634  20.206  0.00  0.00    +0.000 A 
ATOM     32  C   UNL     1       0.620   9.751  19.345  0.00  0.00    +0.000 A 
ENDBRANCH  24  26
ENDBRANCH   8  24
TORSDOF 5
ENDMDL
MODEL 6
REMARK VINA RESULT:      -7.7      4.252      7.832
REMARK  Name = 
REMARK  6 active torsions:
REMARK  status: ('A' for Active; 'I' for Inactive)
REMARK    1  A    between atoms: C_1  and  C_2
REMARK    2  A    between atoms: C_2  and  O_4
REMARK    3  A    between atoms: O_4  and  C_5
REMARK    4  A    between atoms: C_8  and  N_9
REMARK    5  A    between atoms: C_16  and  C_17
REMARK    6  A    between atoms: C_17  and  C_19
REMARK                            x       y       z     vdW  Elec       q    Type
REMARK                         _______ _______ _______ _____ _____    ______ ____
ROOT
ATOM      1  N   UNL     1       5.739   5.139  17.718  0.00  0.00    +0.000 N 
ATOM      2  C   UNL     1       5.169   4.273  18.613  0.00  0.00    +0.000 C 
ATOM      3  O   UNL     1       5.725   3.385  19.242  0.00  0.00    +0.000 OA
ATOM      4  C   UNL     1       3.715   4.620  18.728  0.00  0.00    +0.000 C 
ATOM      5  C   UNL     1       3.616   5.983  18.075  0.00  0.00    +0.000 C 
ATOM      6  C   UNL     1       5.059   6.333  17.830  0.00  0.00    +0.000 C 
ATOM      7  O   UNL     1       5.526   7.463  17.799  0.00  0.00    +0.000 OA
ATOM      8  C   UNL     1       2.920   6.892  19.071  0.00  0.00    +0.000 C 
ATOM      9  N   UNL     1       2.436   6.016  20.170  0.00  0.00    +0.000 NA
ATOM     10  C   UNL     1       1.031   5.607  20.259  0.00  0.00    +0.000 C 
ATOM     11  C   UNL     1       0.991   4.091  20.145  0.00  0.00    +0.000 C 
ATOM     12  C   UNL     1       2.364   3.660  20.616  0.00  0.00    +0.000 C 
ATOM     13  C   UNL     1       3.270   4.797  20.162  0.00  0.00    +0.000 C 
ENDROOT
BRANCH   1  17
ATOM     14  C   UNL     1       6.277   4.064  13.673  0.00  0.00    +0.000 A 
ATOM     15  C   UNL     1       5.199   3.531  14.374  0.00  0.00    +0.000 A 
ATOM     16  C   UNL     1       5.054   3.827  15.730  0.00  0.00    +0.000 A 
ATOM     17  C   UNL     1       5.965   4.684  16.380  0.00  0.00    +0.000 A 
ATOM     18  C   UNL     1       7.049   5.197  15.658  0.00  0.00    +0.000 A 
ATOM     19  C   UNL     1       7.213   4.875  14.313  0.00  0.00    +0.000 A 
BRANCH  14  20
ATOM     20  O   UNL     1       6.476   3.616  12.360  0.00  0.00    +0.000 OA
BRANCH  20  22
ATOM     21  C   UNL     1       5.912   1.553  11.409  0.00  0.00    +0.000 C 
ATOM     22  C   UNL     1       5.431   2.930  11.750  0.00  0.00    +0.000 C 
ATOM     23  O   UNL     1       4.321   3.368  11.485  0.00  0.00    +0.000 OA
ENDBRANCH  20  22
ENDBRANCH  14  20
ENDBRANCH   1  17
BRANCH   8  24
ATOM     24  C   UNL     1       1.854   7.762  18.396  0.00  0.00    +0.000 C 
ATOM     25  O   UNL     1       1.258   7.404  17.380  0.00  0.00    +0.000 OA
BRANCH  24  26
ATOM     26  C   UNL     1       1.526   9.102  18.965  0.00  0.00    +0.000 A 
ATOM     27  C   UNL     1       1.748  10.283  18.255  0.00  0.00    +0.000 A 
ATOM     28  C   UNL     1       1.478  11.514  18.855  0.00  0.00    +0.000 A 
ATOM     29  C   UNL     1       0.984  11.566  20.158  0.00  0.00    +0.000 A 
ATOM     30 CL   UNL     1       0.675  13.091  20.890  0.00  0.00    +0.000 Cl
ATOM     31  C   UNL     1       0.746  10.392  20.868  0.00  0.00    +0.000 A 
ATOM     32  C   UNL     1       1.010   9.158  20.269  0.00  0.00    +0.000 A 
ENDBRANCH  24  26
ENDBRANCH   8  24
TORSDOF 5
ENDMDL
MODEL 7
REMARK VINA RESULT:      -7.5      4.262      7.835
REMARK  Name = 
REMARK  6 active torsions:
REMARK  status: ('A' for Active; 'I' for Inactive)
REMARK    1  A    between atoms: C_1  and  C_2
REMARK    2  A    between atoms: C_2  and  O_4
REMARK    3  A    between atoms: O_4  and  C_5
REMARK    4  A    between atoms: C_8  and  N_9
REMARK    5  A    between atoms: C_16  and  C_17
REMARK    6  A    between atoms: C_17  and  C_19
REMARK                            x       y       z     vdW  Elec       q    Type
REMARK                         _______ _______ _______ _____ _____    ______ ____
ROOT
ATOM      1  N   UNL     1       5.812   5.093  17.662  0.00  0.00    +0.000 N 
ATOM      2  C   UNL     1       5.239   4.217  18.547  0.00  0.00    +0.000 C 
ATOM      3  O   UNL     1       5.792   3.320  19.164  0.00  0.00    +0.000 OA
ATOM      4  C   UNL     1       3.787   4.569  18.668  0.00  0.00    +0.000 C 
ATOM      5  C   UNL     1       3.693   5.941  18.033  0.00  0.00    +0.000 C 
ATOM      6  C   UNL     1       5.136   6.288  17.791  0.00  0.00    +0.000 C 
ATOM      7  O   UNL     1       5.608   7.416  17.774  0.00  0.00    +0.000 OA
ATOM      8  C   UNL     1       3.001   6.840  19.041  0.00  0.00    +0.000 C 
ATOM      9  N   UNL     1       2.515   5.951  20.129  0.00  0.00    +0.000 NA
ATOM     10  C   UNL     1       1.108   5.547  20.214  0.00  0.00    +0.000 C 
ATOM     11  C   UNL     1       1.062   4.033  20.081  0.00  0.00    +0.000 C 
ATOM     12  C   UNL     1       2.434   3.590  20.544  0.00  0.00    +0.000 C 
ATOM     13  C   UNL     1       3.344   4.729  20.104  0.00  0.00    +0.000 C 
ENDROOT
BRANCH   1  17
ATOM     14  C   UNL     1       6.298   4.044  13.605  0.00  0.00    +0.000 A 
ATOM     15  C   UNL     1       5.346   3.371  14.364  0.00  0.00    +0.000 A 
ATOM     16  C   UNL     1       5.228   3.663  15.724  0.00  0.00    +0.000 A 
ATOM     17  C   UNL     1       6.035   4.654  16.318  0.00  0.00    +0.000 A 
ATOM     18  C   UNL     1       6.994   5.308  15.537  0.00  0.00    +0.000 A 
ATOM     19  C   UNL     1       7.136   4.993  14.188  0.00  0.00    +0.000 A 
BRANCH  14  20
ATOM     20  O   UNL     1       6.495   3.609  12.287  0.00  0.00    +0.000 OA
BRANCH  20  22
ATOM     21  C   UNL     1       4.291   3.474  11.509  0.00  0.00    +0.000 C 
ATOM     22  C   UNL     1       5.562   2.722  11.757  0.00  0.00    +0.000 C 
ATOM     23  O   UNL     1       5.716   1.525  11.563  0.00  0.00    +0.000 OA
ENDBRANCH  20  22
ENDBRANCH  14  20
ENDBRANCH   1  17
BRANCH   8  24
ATOM     24  C   UNL     1       1.938   7.722  18.378  0.00  0.00    +0.000 C 
ATOM     25  O   UNL     1       1.353   7.388  17.347  0.00  0.00    +0.000 OA
BRANCH  24  26
ATOM     26  C   UNL     1       1.598   9.046  18.979  0.00  0.00    +0.000 A 
ATOM     27  C   UNL     1       1.020   9.158  20.244  0.00  0.00    +0.000 A 
ATOM     28  C   UNL     1       0.668  10.417  20.737  0.00  0.00    +0.000 A 
ATOM     29  C   UNL     1       0.897  11.558  19.970  0.00  0.00    +0.000 A 
ATOM     30 CL   UNL     1       0.441  13.099  20.582  0.00  0.00    +0.000 Cl
ATOM     31  C   UNL     1       1.488  11.456  18.713  0.00  0.00    +0.000 A 
ATOM     32  C   UNL     1       1.846  10.199  18.219  0.00  0.00    +0.000 A 
ENDBRANCH  24  26
ENDBRANCH   8  24
TORSDOF 5
ENDMDL
MODEL 8
REMARK VINA RESULT:      -7.5      4.019      7.688
REMARK  Name = 
REMARK  6 active torsions:
REMARK  status: ('A' for Active; 'I' for Inactive)
REMARK    1  A    between atoms: C_1  and  C_2
REMARK    2  A    between atoms: C_2  and  O_4
REMARK    3  A    between atoms: O_4  and  C_5
REMARK    4  A    between atoms: C_8  and  N_9
REMARK    5  A    between atoms: C_16  and  C_17
REMARK    6  A    between atoms: C_17  and  C_19
REMARK                            x       y       z     vdW  Elec       q    Type
REMARK                         _______ _______ _______ _____ _____    ______ ____
ROOT
ATOM      1  N   UNL     1       5.657   5.122  17.709  0.00  0.00    +0.000 N 
ATOM      2  C   UNL     1       5.056   4.184  18.506  0.00  0.00    +0.000 C 
ATOM      3  O   UNL     1       5.572   3.194  19.003  0.00  0.00    +0.000 OA
ATOM      4  C   UNL     1       3.629   4.597  18.708  0.00  0.00    +0.000 C 
ATOM      5  C   UNL     1       3.598   6.035  18.233  0.00  0.00    +0.000 C 
ATOM      6  C   UNL     1       5.053   6.329  17.990  0.00  0.00    +0.000 C 
ATOM      7  O   UNL     1       5.586   7.425  18.085  0.00  0.00    +0.000 OA
ATOM      8  C   UNL     1       2.981   6.850  19.355  0.00  0.00    +0.000 C 
ATOM      9  N   UNL     1       2.471   5.871  20.352  0.00  0.00    +0.000 NA
ATOM     10  C   UNL     1       1.046   5.535  20.431  0.00  0.00    +0.000 C 
ATOM     11  C   UNL     1       0.911   4.050  20.131  0.00  0.00    +0.000 C 
ATOM     12  C   UNL     1       2.267   3.486  20.502  0.00  0.00    +0.000 C 
ATOM     13  C   UNL     1       3.229   4.616  20.166  0.00  0.00    +0.000 C 
ENDROOT
BRANCH   1  17
ATOM     14  C   UNL     1       6.255   3.970  13.695  0.00  0.00    +0.000 A 
ATOM     15  C   UNL     1       7.208   4.774  14.313  0.00  0.00    +0.000 A 
ATOM     16  C   UNL     1       6.982   5.217  15.617  0.00  0.00    +0.000 A 
ATOM     17  C   UNL     1       5.824   4.827  16.318  0.00  0.00    +0.000 A 
ATOM     18  C   UNL     1       4.874   4.029  15.671  0.00  0.00    +0.000 A 
ATOM     19  C   UNL     1       5.081   3.615  14.358  0.00  0.00    +0.000 A 
BRANCH  14  20
ATOM     20  O   UNL     1       6.441   3.681  12.336  0.00  0.00    +0.000 OA
BRANCH  20  22
ATOM     21  C   UNL     1       6.094   1.564  11.399  0.00  0.00    +0.000 C 
ATOM     22  C   UNL     1       5.480   2.894  11.709  0.00  0.00    +0.000 C 
ATOM     23  O   UNL     1       4.341   3.225  11.409  0.00  0.00    +0.000 OA
ENDBRANCH  20  22
ENDBRANCH  14  20
ENDBRANCH   1  17
BRANCH   8  24
ATOM     24  C   UNL     1       1.955   7.857  18.827  0.00  0.00    +0.000 C 
ATOM     25  O   UNL     1       1.714   7.984  17.626  0.00  0.00    +0.000 OA
BRANCH  24  26
ATOM     26  C   UNL     1       1.224   8.737  19.785  0.00  0.00    +0.000 A 
ATOM     27  C   UNL     1       0.326   9.715  19.355  0.00  0.00    +0.000 A 
ATOM     28  C   UNL     1      -0.288  10.552  20.290  0.00  0.00    +0.000 A 
ATOM     29  C   UNL     1      -0.010  10.409  21.648  0.00  0.00    +0.000 A 
ATOM     30 CL   UNL     1      -0.760  11.460  22.785  0.00  0.00    +0.000 Cl
ATOM     31  C   UNL     1       0.873   9.425  22.087  0.00  0.00    +0.000 A 
ATOM     32  C   UNL     1       1.485   8.583  21.155  0.00  0.00    +0.000 A 
ENDBRANCH  24  26
ENDBRANCH   8  24
TORSDOF 5
ENDMDL
MODEL 9
REMARK VINA RESULT:      -7.4      3.407      8.434
REMARK  Name = 
REMARK  6 active torsions:
REMARK  status: ('A' for Active; 'I' for Inactive)
REMARK    1  A    between atoms: C_1  and  C_2
REMARK    2  A    between atoms: C_2  and  O_4
REMARK    3  A    between atoms: O_4  and  C_5
REMARK    4  A    between atoms: C_8  and  N_9
REMARK    5  A    between atoms: C_16  and  C_17
REMARK    6  A    between atoms: C_17  and  C_19
REMARK                            x       y       z     vdW  Elec       q    Type
REMARK                         _______ _______ _______ _____ _____    ______ ____
ROOT
ATOM      1  N   UNL     1      -1.243  13.065  23.116  0.00  0.00    +0.000 N 
ATOM      2  C   UNL     1      -0.415  14.058  22.663  0.00  0.00    +0.000 C 
ATOM      3  O   UNL     1      -0.031  15.041  23.280  0.00  0.00    +0.000 OA
ATOM      4  C   UNL     1      -0.016  13.720  21.258  0.00  0.00    +0.000 C 
ATOM      5  C   UNL     1      -0.422  12.269  21.106  0.00  0.00    +0.000 C 
ATOM      6  C   UNL     1      -0.837  11.898  22.504  0.00  0.00    +0.000 C 
ATOM      7  O   UNL     1      -0.764  10.782  23.000  0.00  0.00    +0.000 OA
ATOM      8  C   UNL     1       0.803  11.525  20.607  0.00  0.00    +0.000 C 
ATOM      9  N   UNL     1       1.814  12.562  20.271  0.00  0.00    +0.000 NA
ATOM     10  C   UNL     1       2.061  12.966  18.884  0.00  0.00    +0.000 C 
ATOM     11  C   UNL     1       1.719  14.444  18.773  0.00  0.00    +0.000 C 
ATOM     12  C   UNL     1       1.890  14.957  20.187  0.00  0.00    +0.000 C 
ATOM     13  C   UNL     1       1.481  13.772  21.050  0.00  0.00    +0.000 C 
ENDROOT
BRANCH   1  17
ATOM     14  C   UNL     1      -5.438  13.489  22.958  0.00  0.00    +0.000 A 
ATOM     15  C   UNL     1      -4.656  14.177  22.034  0.00  0.00    +0.000 A 
ATOM     16  C   UNL     1      -3.266  14.097  22.124  0.00  0.00    +0.000 A 
ATOM     17  C   UNL     1      -2.655  13.301  23.113  0.00  0.00    +0.000 A 
ATOM     18  C   UNL     1      -3.461  12.630  24.039  0.00  0.00    +0.000 A 
ATOM     19  C   UNL     1      -4.848  12.736  23.972  0.00  0.00    +0.000 A 
BRANCH  14  20
ATOM     20  O   UNL     1      -6.819  13.724  22.933  0.00  0.00    +0.000 OA
BRANCH  20  22
ATOM     21  C   UNL     1      -7.629  11.893  21.719  0.00  0.00    +0.000 C 
ATOM     22  C   UNL     1      -7.508  13.385  21.772  0.00  0.00    +0.000 C 
ATOM     23  O   UNL     1      -7.911  14.151  20.908  0.00  0.00    +0.000 OA
ENDBRANCH  20  22
ENDBRANCH  14  20
ENDBRANCH   1  17
BRANCH   8  24
ATOM     24  C   UNL     1       0.453  10.548  19.480  0.00  0.00    +0.000 C 
ATOM     25  O   UNL     1      -0.503  10.728  18.725  0.00  0.00    +0.000 OA
BRANCH  24  26
ATOM     26  C   UNL     1       1.276   9.319  19.286  0.00  0.00    +0.000 A 
ATOM     27  C   UNL     1       1.959   9.065  18.095  0.00  0.00    +0.000 A 
ATOM     28  C   UNL     1       2.670   7.872  17.944  0.00  0.00    +0.000 A 
ATOM     29  C   UNL     1       2.700   6.938  18.979  0.00  0.00    +0.000 A 
ATOM     30 CL   UNL     1       3.562   5.465  18.770  0.00  0.00    +0.000 Cl
ATOM     31  C   UNL     1       2.033   7.190  20.176  0.00  0.00    +0.000 A 
ATOM     32  C   UNL     1       1.327   8.385  20.333  0.00  0.00    +0.000 A 
ENDBRANCH  24  26
ENDBRANCH   8  24
TORSDOF 5
ENDMDL
