MODEL 1
REMARK VINA RESULT:      -7.6      0.000      0.000
REMARK  Name = 
REMARK  6 active torsions:
REMARK  status: ('A' for Active; 'I' for Inactive)
REMARK    1  A    between atoms: C_1  and  C_2
REMARK    2  A    between atoms: C_2  and  N_3
REMARK    3  A    between atoms: C_4  and  S_5
REMARK    4  A    between atoms: C_8  and  C_9
REMARK    5  A    between atoms: C_9  and  N_10
REMARK    6  A    between atoms: C_13  and  C_14
REMARK                            x       y       z     vdW  Elec       q    Type
REMARK                         _______ _______ _______ _____ _____    ______ ____
ROOT
ATOM      1  N   UNL     1       6.489   5.077  18.128  0.00  0.00    +0.000 N 
ATOM      2  N   UNL     1       7.724   4.549  18.174  0.00  0.00    +0.000 NA
ATOM      3  N   UNL     1       8.052   4.338  16.904  0.00  0.00    +0.000 NA
ATOM      4  C   UNL     1       6.977   4.739  16.141  0.00  0.00    +0.000 A 
ATOM      5  N   UNL     1       5.987   5.251  16.889  0.00  0.00    +0.000 NA
ENDROOT
BRANCH   4   6
ATOM      6  C   UNL     1       6.893   4.580  14.694  0.00  0.00    +0.000 A 
ATOM      7  C   UNL     1       7.748   5.278  13.829  0.00  0.00    +0.000 A 
ATOM      8  C   UNL     1       7.675   5.067  12.448  0.00  0.00    +0.000 A 
ATOM      9  C   UNL     1       6.755   4.162  11.919  0.00  0.00    +0.000 A 
ATOM     10  C   UNL     1       5.899   3.467  12.767  0.00  0.00    +0.000 A 
ATOM     11  C   UNL     1       5.968   3.678  14.145  0.00  0.00    +0.000 A 
ENDBRANCH   4   6
BRANCH   1  12
ATOM     12  C   UNL     1       5.624   5.158  19.285  0.00  0.00    +0.000 C 
BRANCH  12  17
ATOM     13  N   UNL     1       3.176   4.293  19.038  0.00  0.00    +0.000 N 
ATOM     14  C   UNL     1       2.650   3.029  19.159  0.00  0.00    +0.000 A 
ATOM     15  N   UNL     1       3.589   2.186  19.506  0.00  0.00    +0.000 NA
ATOM     16  N   UNL     1       4.753   2.889  19.635  0.00  0.00    +0.000 NA
ATOM     17  C   UNL     1       4.518   4.160  19.355  0.00  0.00    +0.000 A 
BRANCH  13  19
ATOM     18  C   UNL     1       2.277   6.499  19.703  0.00  0.00    +0.000 C 
ATOM     19  C   UNL     1       2.471   5.477  18.593  0.00  0.00    +0.000 C 
ENDBRANCH  13  19
BRANCH  14  20
ATOM     20  S   UNL     1       1.006   2.572  18.875  0.00  0.00    +0.000 S 
ATOM     21  H   UNL     1       0.906   2.827  17.566  0.00  0.00    +0.000 HD
ENDBRANCH  14  20
ENDBRANCH  12  17
ENDBRANCH   1  12
TORSDOF 5
ENDMDL
MODEL 2
REMARK VINA RESULT:      -7.4      0.867      1.468
REMARK  Name = 
REMARK  6 active torsions:
REMARK  status: ('A' for Active; 'I' for Inactive)
REMARK    1  A    between atoms: C_1  and  C_2
REMARK    2  A    between atoms: C_2  and  N_3
REMARK    3  A    between atoms: C_4  and  S_5
REMARK    4  A    between atoms: C_8  and  C_9
REMARK    5  A    between atoms: C_9  and  N_10
REMARK    6  A    between atoms: C_13  and  C_14
REMARK                            x       y       z     vdW  Elec       q    Type
REMARK                         _______ _______ _______ _____ _____    ______ ____
ROOT
ATOM      1  N   UNL     1       6.370   5.625  17.917  0.00  0.00    +0.000 N 
ATOM      2  N   UNL     1       7.219   6.617  17.597  0.00  0.00    +0.000 NA
ATOM      3  N   UNL     1       7.426   6.480  16.293  0.00  0.00    +0.000 NA
ATOM      4  C   UNL     1       6.696   5.385  15.883  0.00  0.00    +0.000 A 
ATOM      5  N   UNL     1       5.983   4.848  16.886  0.00  0.00    +0.000 NA
ENDROOT
BRANCH   4   6
ATOM      6  C   UNL     1       6.729   4.834  14.534  0.00  0.00    +0.000 A 
ATOM      7  C   UNL     1       5.815   3.853  14.121  0.00  0.00    +0.000 A 
ATOM      8  C   UNL     1       5.841   3.379  12.805  0.00  0.00    +0.000 A 
ATOM      9  C   UNL     1       6.770   3.877  11.892  0.00  0.00    +0.000 A 
ATOM     10  C   UNL     1       7.683   4.848  12.292  0.00  0.00    +0.000 A 
ATOM     11  C   UNL     1       7.662   5.320  13.605  0.00  0.00    +0.000 A 
ENDBRANCH   4   6
BRANCH   1  12
ATOM     12  C   UNL     1       6.132   5.201  19.281  0.00  0.00    +0.000 C 
BRANCH  12  17
ATOM     13  N   UNL     1       3.576   4.775  19.578  0.00  0.00    +0.000 N 
ATOM     14  C   UNL     1       2.863   3.604  19.677  0.00  0.00    +0.000 A 
ATOM     15  N   UNL     1       3.679   2.581  19.660  0.00  0.00    +0.000 NA
ATOM     16  N   UNL     1       4.952   3.065  19.565  0.00  0.00    +0.000 NA
ATOM     17  C   UNL     1       4.905   4.387  19.515  0.00  0.00    +0.000 A 
BRANCH  13  19
ATOM     18  C   UNL     1       2.801   6.553  18.045  0.00  0.00    +0.000 C 
ATOM     19  C   UNL     1       3.025   6.110  19.482  0.00  0.00    +0.000 C 
ENDBRANCH  13  19
BRANCH  14  20
ATOM     20  S   UNL     1       1.143   3.458  19.779  0.00  0.00    +0.000 S 
ATOM     21  H   UNL     1       0.845   4.570  20.462  0.00  0.00    +0.000 HD
ENDBRANCH  14  20
ENDBRANCH  12  17
ENDBRANCH   1  12
TORSDOF 5
ENDMDL
MODEL 3
REMARK VINA RESULT:      -7.2      1.182      2.259
REMARK  Name = 
REMARK  6 active torsions:
REMARK  status: ('A' for Active; 'I' for Inactive)
REMARK    1  A    between atoms: C_1  and  C_2
REMARK    2  A    between atoms: C_2  and  N_3
REMARK    3  A    between atoms: C_4  and  S_5
REMARK    4  A    between atoms: C_8  and  C_9
REMARK    5  A    between atoms: C_9  and  N_10
REMARK    6  A    between atoms: C_13  and  C_14
REMARK                            x       y       z     vdW  Elec       q    Type
REMARK                         _______ _______ _______ _____ _____    ______ ____
ROOT
ATOM      1  N   UNL     1       6.183   5.601  17.873  0.00  0.00    +0.000 N 
ATOM      2  N   UNL     1       7.215   6.435  17.659  0.00  0.00    +0.000 NA
ATOM      3  N   UNL     1       7.512   6.285  16.373  0.00  0.00    +0.000 NA
ATOM      4  C   UNL     1       6.645   5.341  15.868  0.00  0.00    +0.000 A 
ATOM      5  N   UNL     1       5.763   4.920  16.788  0.00  0.00    +0.000 NA
ENDROOT
BRANCH   4   6
ATOM      6  C   UNL     1       6.704   4.815  14.510  0.00  0.00    +0.000 A 
ATOM      7  C   UNL     1       5.788   3.854  14.056  0.00  0.00    +0.000 A 
ATOM      8  C   UNL     1       5.841   3.404  12.733  0.00  0.00    +0.000 A 
ATOM      9  C   UNL     1       6.799   3.906  11.852  0.00  0.00    +0.000 A 
ATOM     10  C   UNL     1       7.715   4.857  12.292  0.00  0.00    +0.000 A 
ATOM     11  C   UNL     1       7.667   5.305  13.613  0.00  0.00    +0.000 A 
ENDBRANCH   4   6
BRANCH   1  12
ATOM     12  C   UNL     1       5.753   5.203  19.197  0.00  0.00    +0.000 C 
BRANCH  12  17
ATOM     13  N   UNL     1       3.553   3.839  19.513  0.00  0.00    +0.000 N 
ATOM     14  C   UNL     1       2.271   4.247  19.797  0.00  0.00    +0.000 A 
ATOM     15  N   UNL     1       2.222   5.554  19.854  0.00  0.00    +0.000 NA
ATOM     16  N   UNL     1       3.474   6.031  19.591  0.00  0.00    +0.000 NA
ATOM     17  C   UNL     1       4.287   5.008  19.384  0.00  0.00    +0.000 A 
BRANCH  13  19
ATOM     18  C   UNL     1       3.664   1.786  18.139  0.00  0.00    +0.000 C 
ATOM     19  C   UNL     1       4.024   2.471  19.448  0.00  0.00    +0.000 C 
ENDBRANCH  13  19
BRANCH  14  20
ATOM     20  S   UNL     1       0.907   3.221  20.075  0.00  0.00    +0.000 S 
ATOM     21  H   UNL     1       0.062   4.089  20.642  0.00  0.00    +0.000 HD
ENDBRANCH  14  20
ENDBRANCH  12  17
ENDBRANCH   1  12
TORSDOF 5
ENDMDL
MODEL 4
REMARK VINA RESULT:      -7.1      0.922      1.887
REMARK  Name = 
REMARK  6 active torsions:
REMARK  status: ('A' for Active; 'I' for Inactive)
REMARK    1  A    between atoms: C_1  and  C_2
REMARK    2  A    between atoms: C_2  and  N_3
REMARK    3  A    between atoms: C_4  and  S_5
REMARK    4  A    between atoms: C_8  and  C_9
REMARK    5  A    between atoms: C_9  and  N_10
REMARK    6  A    between atoms: C_13  and  C_14
REMARK                            x       y       z     vdW  Elec       q    Type
REMARK                         _______ _______ _______ _____ _____    ______ ____
ROOT
ATOM      1  N   UNL     1       6.355   5.015  18.162  0.00  0.00    +0.000 N 
ATOM      2  N   UNL     1       7.630   4.594  18.224  0.00  0.00    +0.000 NA
ATOM      3  N   UNL     1       7.992   4.417  16.958  0.00  0.00    +0.000 NA
ATOM      4  C   UNL     1       6.898   4.727  16.181  0.00  0.00    +0.000 A 
ATOM      5  N   UNL     1       5.858   5.150  16.916  0.00  0.00    +0.000 NA
ENDROOT
BRANCH   4   6
ATOM      6  C   UNL     1       6.847   4.567  14.733  0.00  0.00    +0.000 A 
ATOM      7  C   UNL     1       7.713   5.274  13.886  0.00  0.00    +0.000 A 
ATOM      8  C   UNL     1       7.673   5.063  12.504  0.00  0.00    +0.000 A 
ATOM      9  C   UNL     1       6.776   4.147  11.955  0.00  0.00    +0.000 A 
ATOM     10  C   UNL     1       5.909   3.442  12.785  0.00  0.00    +0.000 A 
ATOM     11  C   UNL     1       5.945   3.654  14.164  0.00  0.00    +0.000 A 
ENDBRANCH   4   6
BRANCH   1  12
ATOM     12  C   UNL     1       5.470   5.019  19.307  0.00  0.00    +0.000 C 
BRANCH  12  17
ATOM     13  N   UNL     1       3.331   3.535  19.148  0.00  0.00    +0.000 N 
ATOM     14  C   UNL     1       2.020   3.866  18.901  0.00  0.00    +0.000 A 
ATOM     15  N   UNL     1       1.921   5.150  18.669  0.00  0.00    +0.000 NA
ATOM     16  N   UNL     1       3.174   5.686  18.744  0.00  0.00    +0.000 NA
ATOM     17  C   UNL     1       4.034   4.723  19.033  0.00  0.00    +0.000 A 
BRANCH  13  19
ATOM     18  C   UNL     1       3.864   1.252  18.360  0.00  0.00    +0.000 C 
ATOM     19  C   UNL     1       3.830   2.229  19.526  0.00  0.00    +0.000 C 
ENDBRANCH  13  19
BRANCH  14  20
ATOM     20  S   UNL     1       0.671   2.785  18.916  0.00  0.00    +0.000 S 
ATOM     21  H   UNL     1       0.977   2.000  17.876  0.00  0.00    +0.000 HD
ENDBRANCH  14  20
ENDBRANCH  12  17
ENDBRANCH   1  12
TORSDOF 5
ENDMDL
MODEL 5
REMARK VINA RESULT:      -7.0      1.583      2.641
REMARK  Name = 
REMARK  6 active torsions:
REMARK  status: ('A' for Active; 'I' for Inactive)
REMARK    1  A    between atoms: C_1  and  C_2
REMARK    2  A    between atoms: C_2  and  N_3
REMARK    3  A    between atoms: C_4  and  S_5
REMARK    4  A    between atoms: C_8  and  C_9
REMARK    5  A    between atoms: C_9  and  N_10
REMARK    6  A    between atoms: C_13  and  C_14
REMARK                            x       y       z     vdW  Elec       q    Type
REMARK                         _______ _______ _______ _____ _____    ______ ____
ROOT
ATOM      1  N   UNL     1       5.055   5.630  17.420  0.00  0.00    +0.000 N 
ATOM      2  N   UNL     1       4.913   6.841  16.854  0.00  0.00    +0.000 NA
ATOM      3  N   UNL     1       5.211   6.654  15.573  0.00  0.00    +0.000 NA
ATOM      4  C   UNL     1       5.540   5.324  15.427  0.00  0.00    +0.000 A 
ATOM      5  N   UNL     1       5.409   4.641  16.575  0.00  0.00    +0.000 NA
ENDROOT
BRANCH   4   6
ATOM      6  C   UNL     1       6.027   4.729  14.188  0.00  0.00    +0.000 A 
ATOM      7  C   UNL     1       5.273   3.775  13.488  0.00  0.00    +0.000 A 
ATOM      8  C   UNL     1       5.745   3.259  12.277  0.00  0.00    +0.000 A 
ATOM      9  C   UNL     1       6.965   3.688  11.753  0.00  0.00    +0.000 A 
ATOM     10  C   UNL     1       7.722   4.630  12.440  0.00  0.00    +0.000 A 
ATOM     11  C   UNL     1       7.255   5.145  13.651  0.00  0.00    +0.000 A 
ENDBRANCH   4   6
BRANCH   1  12
ATOM     12  C   UNL     1       5.145   5.436  18.852  0.00  0.00    +0.000 C 
BRANCH  12  17
ATOM     13  N   UNL     1       3.487   3.745  19.943  0.00  0.00    +0.000 N 
ATOM     14  C   UNL     1       2.322   3.949  20.645  0.00  0.00    +0.000 A 
ATOM     15  N   UNL     1       2.043   5.227  20.683  0.00  0.00    +0.000 NA
ATOM     16  N   UNL     1       3.016   5.888  19.991  0.00  0.00    +0.000 NA
ATOM     17  C   UNL     1       3.894   5.007  19.540  0.00  0.00    +0.000 A 
BRANCH  13  19
ATOM     18  C   UNL     1       3.610   1.687  18.578  0.00  0.00    +0.000 C 
ATOM     19  C   UNL     1       4.163   2.479  19.752  0.00  0.00    +0.000 C 
ENDBRANCH  13  19
BRANCH  14  20
ATOM     20  S   UNL     1       1.356   2.731  21.402  0.00  0.00    +0.000 S 
ATOM     21  H   UNL     1       2.250   1.740  21.502  0.00  0.00    +0.000 HD
ENDBRANCH  14  20
ENDBRANCH  12  17
ENDBRANCH   1  12
TORSDOF 5
ENDMDL
MODEL 6
REMARK VINA RESULT:      -7.0      1.184      1.989
REMARK  Name = 
REMARK  6 active torsions:
REMARK  status: ('A' for Active; 'I' for Inactive)
REMARK    1  A    between atoms: C_1  and  C_2
REMARK    2  A    between atoms: C_2  and  N_3
REMARK    3  A    between atoms: C_4  and  S_5
REMARK    4  A    between atoms: C_8  and  C_9
REMARK    5  A    between atoms: C_9  and  N_10
REMARK    6  A    between atoms: C_13  and  C_14
REMARK                            x       y       z     vdW  Elec       q    Type
REMARK                         _______ _______ _______ _____ _____    ______ ____
ROOT
ATOM      1  N   UNL     1       6.167   5.568  17.818  0.00  0.00    +0.000 N 
ATOM      2  N   UNL     1       7.183   6.424  17.612  0.00  0.00    +0.000 NA
ATOM      3  N   UNL     1       7.470   6.306  16.320  0.00  0.00    +0.000 NA
ATOM      4  C   UNL     1       6.613   5.359  15.804  0.00  0.00    +0.000 A 
ATOM      5  N   UNL     1       5.748   4.904  16.724  0.00  0.00    +0.000 NA
ENDROOT
BRANCH   4   6
ATOM      6  C   UNL     1       6.668   4.861  14.435  0.00  0.00    +0.000 A 
ATOM      7  C   UNL     1       7.634   5.319  13.527  0.00  0.00    +0.000 A 
ATOM      8  C   UNL     1       7.691   4.787  12.234  0.00  0.00    +0.000 A 
ATOM      9  C   UNL     1       6.792   3.797  11.837  0.00  0.00    +0.000 A 
ATOM     10  C   UNL     1       5.827   3.339  12.728  0.00  0.00    +0.000 A 
ATOM     11  C   UNL     1       5.766   3.870  14.017  0.00  0.00    +0.000 A 
ENDBRANCH   4   6
BRANCH   1  12
ATOM     12  C   UNL     1       5.758   5.136  19.138  0.00  0.00    +0.000 C 
BRANCH  12  17
ATOM     13  N   UNL     1       3.545   3.783  19.406  0.00  0.00    +0.000 N 
ATOM     14  C   UNL     1       2.276   4.187  19.751  0.00  0.00    +0.000 A 
ATOM     15  N   UNL     1       2.249   5.486  19.904  0.00  0.00    +0.000 NA
ATOM     16  N   UNL     1       3.501   5.964  19.647  0.00  0.00    +0.000 NA
ATOM     17  C   UNL     1       4.293   4.947  19.346  0.00  0.00    +0.000 A 
BRANCH  13  19
ATOM     18  C   UNL     1       4.615   1.834  20.489  0.00  0.00    +0.000 C 
ATOM     19  C   UNL     1       3.993   2.417  19.230  0.00  0.00    +0.000 C 
ENDBRANCH  13  19
BRANCH  14  20
ATOM     20  S   UNL     1       0.904   3.161  19.986  0.00  0.00    +0.000 S 
ATOM     21  H   UNL     1       1.150   2.704  21.219  0.00  0.00    +0.000 HD
ENDBRANCH  14  20
ENDBRANCH  12  17
ENDBRANCH   1  12
TORSDOF 5
ENDMDL
MODEL 7
REMARK VINA RESULT:      -7.0      1.150      1.441
REMARK  Name = 
REMARK  6 active torsions:
REMARK  status: ('A' for Active; 'I' for Inactive)
REMARK    1  A    between atoms: C_1  and  C_2
REMARK    2  A    between atoms: C_2  and  N_3
REMARK    3  A    between atoms: C_4  and  S_5
REMARK    4  A    between atoms: C_8  and  C_9
REMARK    5  A    between atoms: C_9  and  N_10
REMARK    6  A    between atoms: C_13  and  C_14
REMARK                            x       y       z     vdW  Elec       q    Type
REMARK                         _______ _______ _______ _____ _____    ______ ____
ROOT
ATOM      1  N   UNL     1       5.584   5.433  17.484  0.00  0.00    +0.000 N 
ATOM      2  N   UNL     1       5.454   6.687  17.017  0.00  0.00    +0.000 NA
ATOM      3  N   UNL     1       5.626   6.581  15.705  0.00  0.00    +0.000 NA
ATOM      4  C   UNL     1       5.872   5.252  15.438  0.00  0.00    +0.000 A 
ATOM      5  N   UNL     1       5.810   4.494  16.544  0.00  0.00    +0.000 NA
ENDROOT
BRANCH   4   6
ATOM      6  C   UNL     1       6.214   4.728  14.121  0.00  0.00    +0.000 A 
ATOM      7  C   UNL     1       7.382   5.127  13.455  0.00  0.00    +0.000 A 
ATOM      8  C   UNL     1       7.708   4.570  12.214  0.00  0.00    +0.000 A 
ATOM      9  C   UNL     1       6.879   3.613  11.629  0.00  0.00    +0.000 A 
ATOM     10  C   UNL     1       5.716   3.212  12.279  0.00  0.00    +0.000 A 
ATOM     11  C   UNL     1       5.387   3.770  13.516  0.00  0.00    +0.000 A 
ENDBRANCH   4   6
BRANCH   1  12
ATOM     12  C   UNL     1       5.792   5.131  18.884  0.00  0.00    +0.000 C 
BRANCH  12  17
ATOM     13  N   UNL     1       3.458   4.511  19.867  0.00  0.00    +0.000 N 
ATOM     14  C   UNL     1       2.953   3.309  20.303  0.00  0.00    +0.000 A 
ATOM     15  N   UNL     1       3.876   2.384  20.226  0.00  0.00    +0.000 NA
ATOM     16  N   UNL     1       5.014   2.968  19.750  0.00  0.00    +0.000 NA
ATOM     17  C   UNL     1       4.776   4.251  19.528  0.00  0.00    +0.000 A 
BRANCH  13  19
ATOM     18  C   UNL     1       2.160   5.945  18.326  0.00  0.00    +0.000 C 
ATOM     19  C   UNL     1       2.722   5.750  19.726  0.00  0.00    +0.000 C 
ENDBRANCH  13  19
BRANCH  14  20
ATOM     20  S   UNL     1       1.340   3.014  20.851  0.00  0.00    +0.000 S 
ATOM     21  H   UNL     1       1.055   4.194  21.413  0.00  0.00    +0.000 HD
ENDBRANCH  14  20
ENDBRANCH  12  17
ENDBRANCH   1  12
TORSDOF 5
ENDMDL
MODEL 8
REMARK VINA RESULT:      -6.9      1.373      2.039
REMARK  Name = 
REMARK  6 active torsions:
REMARK  status: ('A' for Active; 'I' for Inactive)
REMARK    1  A    between atoms: C_1  and  C_2
REMARK    2  A    between atoms: C_2  and  N_3
REMARK    3  A    between atoms: C_4  and  S_5
REMARK    4  A    between atoms: C_8  and  C_9
REMARK    5  A    between atoms: C_9  and  N_10
REMARK    6  A    between atoms: C_13  and  C_14
REMARK                            x       y       z     vdW  Elec       q    Type
REMARK                         _______ _______ _______ _____ _____    ______ ____
ROOT
ATOM      1  N   UNL     1       6.172   6.038  16.328  0.00  0.00    +0.000 N 
ATOM      2  N   UNL     1       7.496   6.013  16.095  0.00  0.00    +0.000 NA
ATOM      3  N   UNL     1       7.630   5.326  14.967  0.00  0.00    +0.000 NA
ATOM      4  C   UNL     1       6.364   4.948  14.574  0.00  0.00    +0.000 A 
ATOM      5  N   UNL     1       5.416   5.422  15.398  0.00  0.00    +0.000 NA
ENDROOT
BRANCH   4   6
ATOM      6  C   UNL     1       6.081   4.089  13.431  0.00  0.00    +0.000 A 
ATOM      7  C   UNL     1       4.767   3.852  13.001  0.00  0.00    +0.000 A 
ATOM      8  C   UNL     1       4.530   3.061  11.871  0.00  0.00    +0.000 A 
ATOM      9  C   UNL     1       5.595   2.506  11.161  0.00  0.00    +0.000 A 
ATOM     10  C   UNL     1       6.902   2.732  11.580  0.00  0.00    +0.000 A 
ATOM     11  C   UNL     1       7.140   3.517  12.710  0.00  0.00    +0.000 A 
ENDBRANCH   4   6
BRANCH   1  12
ATOM     12  C   UNL     1       5.604   6.398  17.610  0.00  0.00    +0.000 C 
BRANCH  12  17
ATOM     13  N   UNL     1       3.830   4.954  18.862  0.00  0.00    +0.000 N 
ATOM     14  C   UNL     1       3.943   3.744  19.507  0.00  0.00    +0.000 A 
ATOM     15  N   UNL     1       5.189   3.344  19.487  0.00  0.00    +0.000 NA
ATOM     16  N   UNL     1       5.923   4.294  18.839  0.00  0.00    +0.000 NA
ATOM     17  C   UNL     1       5.116   5.271  18.456  0.00  0.00    +0.000 A 
BRANCH  13  19
ATOM     18  C   UNL     1       2.372   6.812  19.595  0.00  0.00    +0.000 C 
ATOM     19  C   UNL     1       2.603   5.679  18.607  0.00  0.00    +0.000 C 
ENDBRANCH  13  19
BRANCH  14  20
ATOM     20  S   UNL     1       2.654   2.842  20.224  0.00  0.00    +0.000 S 
ATOM     21  H   UNL     1       3.025   1.596  19.908  0.00  0.00    +0.000 HD
ENDBRANCH  14  20
ENDBRANCH  12  17
ENDBRANCH   1  12
TORSDOF 5
ENDMDL
MODEL 9
REMARK VINA RESULT:      -6.9      1.576      2.388
REMARK  Name = 
REMARK  6 active torsions:
REMARK  status: ('A' for Active; 'I' for Inactive)
REMARK    1  A    between atoms: C_1  and  C_2
REMARK    2  A    between atoms: C_2  and  N_3
REMARK    3  A    between atoms: C_4  and  S_5
REMARK    4  A    between atoms: C_8  and  C_9
REMARK    5  A    between atoms: C_9  and  N_10
REMARK    6  A    between atoms: C_13  and  C_14
REMARK                            x       y       z     vdW  Elec       q    Type
REMARK                         _______ _______ _______ _____ _____    ______ ____
ROOT
ATOM      1  N   UNL     1       5.174   5.488  17.420  0.00  0.00    +0.000 N 
ATOM      2  N   UNL     1       5.041   6.729  16.922  0.00  0.00    +0.000 NA
ATOM      3  N   UNL     1       5.313   6.606  15.627  0.00  0.00    +0.000 NA
ATOM      4  C   UNL     1       5.617   5.281  15.405  0.00  0.00    +0.000 A 
ATOM      5  N   UNL     1       5.496   4.540  16.517  0.00  0.00    +0.000 NA
ENDROOT
BRANCH   4   6
ATOM      6  C   UNL     1       6.071   4.746  14.127  0.00  0.00    +0.000 A 
ATOM      7  C   UNL     1       7.295   5.135  13.563  0.00  0.00    +0.000 A 
ATOM      8  C   UNL     1       7.725   4.567  12.359  0.00  0.00    +0.000 A 
ATOM      9  C   UNL     1       6.946   3.609  11.711  0.00  0.00    +0.000 A 
ATOM     10  C   UNL     1       5.729   3.219  12.259  0.00  0.00    +0.000 A 
ATOM     11  C   UNL     1       5.295   3.786  13.458  0.00  0.00    +0.000 A 
ENDBRANCH   4   6
BRANCH   1  12
ATOM     12  C   UNL     1       5.287   5.216  18.837  0.00  0.00    +0.000 C 
BRANCH  12  17
ATOM     13  N   UNL     1       3.567   3.603  19.952  0.00  0.00    +0.000 N 
ATOM     14  C   UNL     1       2.421   3.860  20.666  0.00  0.00    +0.000 A 
ATOM     15  N   UNL     1       2.200   5.150  20.706  0.00  0.00    +0.000 NA
ATOM     16  N   UNL     1       3.195   5.765  20.001  0.00  0.00    +0.000 NA
ATOM     17  C   UNL     1       4.026   4.844  19.541  0.00  0.00    +0.000 A 
BRANCH  13  19
ATOM     18  C   UNL     1       3.652   1.583  18.528  0.00  0.00    +0.000 C 
ATOM     19  C   UNL     1       4.183   2.308  19.755  0.00  0.00    +0.000 C 
ENDBRANCH  13  19
BRANCH  14  20
ATOM     20  S   UNL     1       1.410   2.688  21.438  0.00  0.00    +0.000 S 
ATOM     21  H   UNL     1       1.473   1.691  20.548  0.00  0.00    +0.000 HD
ENDBRANCH  14  20
ENDBRANCH  12  17
ENDBRANCH   1  12
TORSDOF 5
ENDMDL
