MODEL 1
REMARK VINA RESULT:      -7.4      0.000      0.000
REMARK  Name = 
REMARK  6 active torsions:
REMARK  status: ('A' for Active; 'I' for Inactive)
REMARK    1  A    between atoms: C_1  and  C_2
REMARK    2  A    between atoms: C_2  and  C_3
REMARK    3  A    between atoms: C_3  and  C_4
REMARK    4  A    between atoms: C_4  and  O_5
REMARK    5  A    between atoms: O_5  and  C_6
REMARK    6  A    between atoms: C_6  and  N_7
REMARK                            x       y       z     vdW  Elec       q    Type
REMARK                         _______ _______ _______ _____ _____    ______ ____
ROOT
ATOM      1  N   UNL     1       5.870   4.559  15.792  0.00  0.00    +0.000 N 
ATOM      2  C   UNL     1       7.111   5.163  15.919  0.00  0.00    +0.000 A 
ATOM      3  O   UNL     1       7.807   5.513  14.971  0.00  0.00    +0.000 OA
ATOM      4  N   UNL     1       7.556   5.385  17.190  0.00  0.00    +0.000 N 
ATOM      5  C   UNL     1       6.895   5.097  18.350  0.00  0.00    +0.000 A 
ATOM      6  O   UNL     1       7.370   5.361  19.451  0.00  0.00    +0.000 OA
ATOM      7  C   UNL     1       5.585   4.446  18.211  0.00  0.00    +0.000 A 
ATOM      8  C   UNL     1       4.875   4.072  19.359  0.00  0.00    +0.000 A 
ATOM      9  C   UNL     1       3.652   3.425  19.222  0.00  0.00    +0.000 A 
ATOM     10 BR   UNL     1       2.717   2.838  20.754  0.00  0.00    +0.000 Br
ATOM     11  C   UNL     1       3.122   3.188  17.957  0.00  0.00    +0.000 A 
ATOM     12  C   UNL     1       3.831   3.585  16.817  0.00  0.00    +0.000 A 
ATOM     13  C   UNL     1       5.089   4.196  16.928  0.00  0.00    +0.000 A 
ATOM     14  H   UNL     1       8.455   5.831  17.275  0.00  0.00    +0.000 HD
ENDROOT
BRANCH   1  15
ATOM     15  C   UNL     1       5.372   4.347  14.443  0.00  0.00    +0.000 C 
BRANCH  15  16
ATOM     16  O   UNL     1       6.065   3.271  13.811  0.00  0.00    +0.000 OA
BRANCH  16  17
ATOM     17  C   UNL     1       6.026   3.371  12.388  0.00  0.00    +0.000 C 
BRANCH  17  18
ATOM     18  C   UNL     1       4.672   3.924  11.978  0.00  0.00    +0.000 C 
BRANCH  18  20
ATOM     19  C   UNL     1       3.134   3.693  10.001  0.00  0.00    +0.000 C 
ATOM     20  C   UNL     1       3.968   2.957  11.033  0.00  0.00    +0.000 C 
ENDBRANCH  18  20
ENDBRANCH  17  18
ENDBRANCH  16  17
ENDBRANCH  15  16
ENDBRANCH   1  15
TORSDOF 5
ENDMDL
MODEL 2
REMARK VINA RESULT:      -7.0      1.087      1.366
REMARK  Name = 
REMARK  6 active torsions:
REMARK  status: ('A' for Active; 'I' for Inactive)
REMARK    1  A    between atoms: C_1  and  C_2
REMARK    2  A    between atoms: C_2  and  C_3
REMARK    3  A    between atoms: C_3  and  C_4
REMARK    4  A    between atoms: C_4  and  O_5
REMARK    5  A    between atoms: O_5  and  C_6
REMARK    6  A    between atoms: C_6  and  N_7
REMARK                            x       y       z     vdW  Elec       q    Type
REMARK                         _______ _______ _______ _____ _____    ______ ____
ROOT
ATOM      1  N   UNL     1       5.787   4.718  15.966  0.00  0.00    +0.000 N 
ATOM      2  C   UNL     1       7.016   5.328  16.168  0.00  0.00    +0.000 A 
ATOM      3  O   UNL     1       7.749   5.714  15.264  0.00  0.00    +0.000 OA
ATOM      4  N   UNL     1       7.401   5.511  17.464  0.00  0.00    +0.000 N 
ATOM      5  C   UNL     1       6.693   5.180  18.584  0.00  0.00    +0.000 A 
ATOM      6  O   UNL     1       7.116   5.412  19.713  0.00  0.00    +0.000 OA
ATOM      7  C   UNL     1       5.396   4.523  18.365  0.00  0.00    +0.000 A 
ATOM      8  C   UNL     1       4.639   4.106  19.468  0.00  0.00    +0.000 A 
ATOM      9  C   UNL     1       3.430   3.454  19.256  0.00  0.00    +0.000 A 
ATOM     10 BR   UNL     1       2.434   2.811  20.725  0.00  0.00    +0.000 Br
ATOM     11  C   UNL     1       2.959   3.255  17.961  0.00  0.00    +0.000 A 
ATOM     12  C   UNL     1       3.713   3.695  16.868  0.00  0.00    +0.000 A 
ATOM     13  C   UNL     1       4.959   4.312  17.054  0.00  0.00    +0.000 A 
ATOM     14  H   UNL     1       8.291   5.961  17.603  0.00  0.00    +0.000 HD
ENDROOT
BRANCH   1  15
ATOM     15  C   UNL     1       5.351   4.546  14.591  0.00  0.00    +0.000 C 
BRANCH  15  16
ATOM     16  O   UNL     1       6.109   3.525  13.943  0.00  0.00    +0.000 OA
BRANCH  16  17
ATOM     17  C   UNL     1       5.769   3.398  12.563  0.00  0.00    +0.000 C 
BRANCH  17  18
ATOM     18  C   UNL     1       7.048   3.429  11.743  0.00  0.00    +0.000 C 
BRANCH  18  20
ATOM     19  C   UNL     1       6.074   1.175  11.198  0.00  0.00    +0.000 C 
ATOM     20  C   UNL     1       7.292   2.073  11.090  0.00  0.00    +0.000 C 
ENDBRANCH  18  20
ENDBRANCH  17  18
ENDBRANCH  16  17
ENDBRANCH  15  16
ENDBRANCH   1  15
TORSDOF 5
ENDMDL
MODEL 3
REMARK VINA RESULT:      -6.9      3.616      5.417
REMARK  Name = 
REMARK  6 active torsions:
REMARK  status: ('A' for Active; 'I' for Inactive)
REMARK    1  A    between atoms: C_1  and  C_2
REMARK    2  A    between atoms: C_2  and  C_3
REMARK    3  A    between atoms: C_3  and  C_4
REMARK    4  A    between atoms: C_4  and  O_5
REMARK    5  A    between atoms: O_5  and  C_6
REMARK    6  A    between atoms: C_6  and  N_7
REMARK                            x       y       z     vdW  Elec       q    Type
REMARK                         _______ _______ _______ _____ _____    ______ ____
ROOT
ATOM      1  N   UNL     1       3.489   3.705  18.148  0.00  0.00    +0.000 N 
ATOM      2  C   UNL     1       3.224   2.401  18.538  0.00  0.00    +0.000 A 
ATOM      3  O   UNL     1       3.661   1.409  17.964  0.00  0.00    +0.000 OA
ATOM      4  N   UNL     1       2.436   2.241  19.639  0.00  0.00    +0.000 N 
ATOM      5  C   UNL     1       1.902   3.231  20.416  0.00  0.00    +0.000 A 
ATOM      6  O   UNL     1       1.224   2.983  21.409  0.00  0.00    +0.000 OA
ATOM      7  C   UNL     1       2.176   4.611  19.992  0.00  0.00    +0.000 A 
ATOM      8  C   UNL     1       1.615   5.677  20.709  0.00  0.00    +0.000 A 
ATOM      9  C   UNL     1       1.849   6.979  20.284  0.00  0.00    +0.000 A 
ATOM     10 BR   UNL     1       1.037   8.426  21.184  0.00  0.00    +0.000 Br
ATOM     11  C   UNL     1       2.665   7.222  19.182  0.00  0.00    +0.000 A 
ATOM     12  C   UNL     1       3.237   6.150  18.487  0.00  0.00    +0.000 A 
ATOM     13  C   UNL     1       2.977   4.825  18.867  0.00  0.00    +0.000 A 
ATOM     14  H   UNL     1       2.253   1.292  19.921  0.00  0.00    +0.000 HD
ENDROOT
BRANCH   1  15
ATOM     15  C   UNL     1       4.353   3.889  16.995  0.00  0.00    +0.000 C 
BRANCH  15  16
ATOM     16  O   UNL     1       5.713   4.050  17.401  0.00  0.00    +0.000 OA
BRANCH  16  17
ATOM     17  C   UNL     1       6.530   4.558  16.348  0.00  0.00    +0.000 C 
BRANCH  17  18
ATOM     18  C   UNL     1       6.578   6.073  16.459  0.00  0.00    +0.000 C 
BRANCH  18  20
ATOM     19  C   UNL     1       7.760   7.951  17.643  0.00  0.00    +0.000 C 
ATOM     20  C   UNL     1       7.355   6.490  17.702  0.00  0.00    +0.000 C 
ENDBRANCH  18  20
ENDBRANCH  17  18
ENDBRANCH  16  17
ENDBRANCH  15  16
ENDBRANCH   1  15
TORSDOF 5
ENDMDL
MODEL 4
REMARK VINA RESULT:      -6.9      2.160      2.592
REMARK  Name = 
REMARK  6 active torsions:
REMARK  status: ('A' for Active; 'I' for Inactive)
REMARK    1  A    between atoms: C_1  and  C_2
REMARK    2  A    between atoms: C_2  and  C_3
REMARK    3  A    between atoms: C_3  and  C_4
REMARK    4  A    between atoms: C_4  and  O_5
REMARK    5  A    between atoms: O_5  and  C_6
REMARK    6  A    between atoms: C_6  and  N_7
REMARK                            x       y       z     vdW  Elec       q    Type
REMARK                         _______ _______ _______ _____ _____    ______ ____
ROOT
ATOM      1  N   UNL     1       5.649   5.238  16.871  0.00  0.00    +0.000 N 
ATOM      2  C   UNL     1       5.766   6.620  16.917  0.00  0.00    +0.000 A 
ATOM      3  O   UNL     1       6.751   7.240  16.530  0.00  0.00    +0.000 OA
ATOM      4  N   UNL     1       4.698   7.307  17.414  0.00  0.00    +0.000 N 
ATOM      5  C   UNL     1       3.514   6.781  17.847  0.00  0.00    +0.000 A 
ATOM      6  O   UNL     1       2.598   7.489  18.255  0.00  0.00    +0.000 OA
ATOM      7  C   UNL     1       3.399   5.316  17.807  0.00  0.00    +0.000 A 
ATOM      8  C   UNL     1       2.234   4.702  18.288  0.00  0.00    +0.000 A 
ATOM      9  C   UNL     1       2.144   3.315  18.280  0.00  0.00    +0.000 A 
ATOM     10 BR   UNL     1       0.619   2.465  18.998  0.00  0.00    +0.000 Br
ATOM     11  C   UNL     1       3.184   2.547  17.764  0.00  0.00    +0.000 A 
ATOM     12  C   UNL     1       4.333   3.172  17.267  0.00  0.00    +0.000 A 
ATOM     13  C   UNL     1       4.469   4.568  17.308  0.00  0.00    +0.000 A 
ATOM     14  H   UNL     1       4.787   8.310  17.438  0.00  0.00    +0.000 HD
ENDROOT
BRANCH   1  15
ATOM     15  C   UNL     1       6.767   4.497  16.313  0.00  0.00    +0.000 C 
BRANCH  15  16
ATOM     16  O   UNL     1       6.882   4.732  14.910  0.00  0.00    +0.000 OA
BRANCH  16  17
ATOM     17  C   UNL     1       5.910   4.002  14.163  0.00  0.00    +0.000 C 
BRANCH  17  18
ATOM     18  C   UNL     1       6.468   3.733  12.775  0.00  0.00    +0.000 C 
BRANCH  18  20
ATOM     19  C   UNL     1       5.822   1.749  11.369  0.00  0.00    +0.000 C 
ATOM     20  C   UNL     1       5.397   3.112  11.884  0.00  0.00    +0.000 C 
ENDBRANCH  18  20
ENDBRANCH  17  18
ENDBRANCH  16  17
ENDBRANCH  15  16
ENDBRANCH   1  15
TORSDOF 5
ENDMDL
MODEL 5
REMARK VINA RESULT:      -6.9      3.496      4.493
REMARK  Name = 
REMARK  6 active torsions:
REMARK  status: ('A' for Active; 'I' for Inactive)
REMARK    1  A    between atoms: C_1  and  C_2
REMARK    2  A    between atoms: C_2  and  C_3
REMARK    3  A    between atoms: C_3  and  C_4
REMARK    4  A    between atoms: C_4  and  O_5
REMARK    5  A    between atoms: O_5  and  C_6
REMARK    6  A    between atoms: C_6  and  N_7
REMARK                            x       y       z     vdW  Elec       q    Type
REMARK                         _______ _______ _______ _____ _____    ______ ____
ROOT
ATOM      1  N   UNL     1       3.315   3.704  18.196  0.00  0.00    +0.000 N 
ATOM      2  C   UNL     1       3.305   2.454  18.795  0.00  0.00    +0.000 A 
ATOM      3  O   UNL     1       3.702   1.428  18.253  0.00  0.00    +0.000 OA
ATOM      4  N   UNL     1       2.832   2.392  20.073  0.00  0.00    +0.000 N 
ATOM      5  C   UNL     1       2.391   3.437  20.835  0.00  0.00    +0.000 A 
ATOM      6  O   UNL     1       2.007   3.283  21.991  0.00  0.00    +0.000 OA
ATOM      7  C   UNL     1       2.392   4.759  20.192  0.00  0.00    +0.000 A 
ATOM      8  C   UNL     1       1.902   5.868  20.894  0.00  0.00    +0.000 A 
ATOM      9  C   UNL     1       1.873   7.109  20.269  0.00  0.00    +0.000 A 
ATOM     10 BR   UNL     1       1.141   8.600  21.166  0.00  0.00    +0.000 Br
ATOM     11  C   UNL     1       2.363   7.255  18.975  0.00  0.00    +0.000 A 
ATOM     12  C   UNL     1       2.871   6.144  18.291  0.00  0.00    +0.000 A 
ATOM     13  C   UNL     1       2.866   4.871  18.881  0.00  0.00    +0.000 A 
ATOM     14  H   UNL     1       2.834   1.482  20.505  0.00  0.00    +0.000 HD
ENDROOT
BRANCH   1  15
ATOM     15  C   UNL     1       3.846   3.787  16.846  0.00  0.00    +0.000 C 
BRANCH  15  16
ATOM     16  O   UNL     1       5.242   4.085  16.869  0.00  0.00    +0.000 OA
BRANCH  16  17
ATOM     17  C   UNL     1       5.642   4.867  15.744  0.00  0.00    +0.000 C 
BRANCH  17  18
ATOM     18  C   UNL     1       6.339   3.958  14.746  0.00  0.00    +0.000 C 
BRANCH  18  20
ATOM     19  C   UNL     1       6.420   3.480  12.277  0.00  0.00    +0.000 C 
ATOM     20  C   UNL     1       5.543   3.887  13.447  0.00  0.00    +0.000 C 
ENDBRANCH  18  20
ENDBRANCH  17  18
ENDBRANCH  16  17
ENDBRANCH  15  16
ENDBRANCH   1  15
TORSDOF 5
ENDMDL
MODEL 6
REMARK VINA RESULT:      -6.9      2.764      4.362
REMARK  Name = 
REMARK  6 active torsions:
REMARK  status: ('A' for Active; 'I' for Inactive)
REMARK    1  A    between atoms: C_1  and  C_2
REMARK    2  A    between atoms: C_2  and  C_3
REMARK    3  A    between atoms: C_3  and  C_4
REMARK    4  A    between atoms: C_4  and  O_5
REMARK    5  A    between atoms: O_5  and  C_6
REMARK    6  A    between atoms: C_6  and  N_7
REMARK                            x       y       z     vdW  Elec       q    Type
REMARK                         _______ _______ _______ _____ _____    ______ ____
ROOT
ATOM      1  N   UNL     1       4.492   5.169  16.653  0.00  0.00    +0.000 N 
ATOM      2  C   UNL     1       4.504   6.543  16.464  0.00  0.00    +0.000 A 
ATOM      3  O   UNL     1       5.081   7.106  15.539  0.00  0.00    +0.000 OA
ATOM      4  N   UNL     1       3.810   7.290  17.370  0.00  0.00    +0.000 N 
ATOM      5  C   UNL     1       3.082   6.825  18.429  0.00  0.00    +0.000 A 
ATOM      6  O   UNL     1       2.467   7.581  19.177  0.00  0.00    +0.000 OA
ATOM      7  C   UNL     1       3.083   5.369  18.632  0.00  0.00    +0.000 A 
ATOM      8  C   UNL     1       2.403   4.826  19.731  0.00  0.00    +0.000 A 
ATOM      9  C   UNL     1       2.435   3.452  19.938  0.00  0.00    +0.000 A 
ATOM     10 BR   UNL     1       1.597   2.707  21.456  0.00  0.00    +0.000 Br
ATOM     11  C   UNL     1       3.102   2.623  19.040  0.00  0.00    +0.000 A 
ATOM     12  C   UNL     1       3.759   3.175  17.934  0.00  0.00    +0.000 A 
ATOM     13  C   UNL     1       3.782   4.562  17.730  0.00  0.00    +0.000 A 
ATOM     14  H   UNL     1       3.816   8.286  17.223  0.00  0.00    +0.000 HD
ENDROOT
BRANCH   1  15
ATOM     15  C   UNL     1       5.201   4.361  15.676  0.00  0.00    +0.000 C 
BRANCH  15  16
ATOM     16  O   UNL     1       6.366   3.771  16.255  0.00  0.00    +0.000 OA
BRANCH  16  17
ATOM     17  C   UNL     1       7.374   4.741  16.537  0.00  0.00    +0.000 C 
BRANCH  17  18
ATOM     18  C   UNL     1       7.749   4.637  18.006  0.00  0.00    +0.000 C 
BRANCH  18  20
ATOM     19  C   UNL     1       7.770   7.152  17.955  0.00  0.00    +0.000 C 
ATOM     20  C   UNL     1       7.370   5.917  18.742  0.00  0.00    +0.000 C 
ENDBRANCH  18  20
ENDBRANCH  17  18
ENDBRANCH  16  17
ENDBRANCH  15  16
ENDBRANCH   1  15
TORSDOF 5
ENDMDL
MODEL 7
REMARK VINA RESULT:      -6.8      2.158      2.540
REMARK  Name = 
REMARK  6 active torsions:
REMARK  status: ('A' for Active; 'I' for Inactive)
REMARK    1  A    between atoms: C_1  and  C_2
REMARK    2  A    between atoms: C_2  and  C_3
REMARK    3  A    between atoms: C_3  and  C_4
REMARK    4  A    between atoms: C_4  and  O_5
REMARK    5  A    between atoms: O_5  and  C_6
REMARK    6  A    between atoms: C_6  and  N_7
REMARK                            x       y       z     vdW  Elec       q    Type
REMARK                         _______ _______ _______ _____ _____    ______ ____
ROOT
ATOM      1  N   UNL     1       4.894   4.911  16.567  0.00  0.00    +0.000 N 
ATOM      2  C   UNL     1       4.941   6.273  16.309  0.00  0.00    +0.000 A 
ATOM      3  O   UNL     1       5.626   6.783  15.428  0.00  0.00    +0.000 OA
ATOM      4  N   UNL     1       4.157   7.070  17.089  0.00  0.00    +0.000 N 
ATOM      5  C   UNL     1       3.308   6.667  18.081  0.00  0.00    +0.000 A 
ATOM      6  O   UNL     1       2.620   7.464  18.713  0.00  0.00    +0.000 OA
ATOM      7  C   UNL     1       3.270   5.224  18.359  0.00  0.00    +0.000 A 
ATOM      8  C   UNL     1       2.464   4.743  19.400  0.00  0.00    +0.000 A 
ATOM      9  C   UNL     1       2.458   3.382  19.681  0.00  0.00    +0.000 A 
ATOM     10 BR   UNL     1       1.444   2.722  21.131  0.00  0.00    +0.000 Br
ATOM     11  C   UNL     1       3.214   2.503  18.911  0.00  0.00    +0.000 A 
ATOM     12  C   UNL     1       3.998   2.992  17.860  0.00  0.00    +0.000 A 
ATOM     13  C   UNL     1       4.060   4.367  17.587  0.00  0.00    +0.000 A 
ATOM     14  H   UNL     1       4.190   8.057  16.892  0.00  0.00    +0.000 HD
ENDROOT
BRANCH   1  15
ATOM     15  C   UNL     1       5.701   4.049  15.722  0.00  0.00    +0.000 C 
BRANCH  15  16
ATOM     16  O   UNL     1       5.213   4.053  14.380  0.00  0.00    +0.000 OA
BRANCH  16  17
ATOM     17  C   UNL     1       6.240   3.761  13.434  0.00  0.00    +0.000 C 
BRANCH  17  18
ATOM     18  C   UNL     1       5.595   3.497  12.084  0.00  0.00    +0.000 C 
BRANCH  18  20
ATOM     19  C   UNL     1       7.080   1.735  11.075  0.00  0.00    +0.000 C 
ATOM     20  C   UNL     1       5.732   2.025  11.709  0.00  0.00    +0.000 C 
ENDBRANCH  18  20
ENDBRANCH  17  18
ENDBRANCH  16  17
ENDBRANCH  15  16
ENDBRANCH   1  15
TORSDOF 5
ENDMDL
MODEL 8
REMARK VINA RESULT:      -6.8      3.255      5.704
REMARK  Name = 
REMARK  6 active torsions:
REMARK  status: ('A' for Active; 'I' for Inactive)
REMARK    1  A    between atoms: C_1  and  C_2
REMARK    2  A    between atoms: C_2  and  C_3
REMARK    3  A    between atoms: C_3  and  C_4
REMARK    4  A    between atoms: C_4  and  O_5
REMARK    5  A    between atoms: O_5  and  C_6
REMARK    6  A    between atoms: C_6  and  N_7
REMARK                            x       y       z     vdW  Elec       q    Type
REMARK                         _______ _______ _______ _____ _____    ______ ____
ROOT
ATOM      1  N   UNL     1       4.587   3.554  17.682  0.00  0.00    +0.000 N 
ATOM      2  C   UNL     1       4.932   3.883  18.984  0.00  0.00    +0.000 A 
ATOM      3  O   UNL     1       4.285   3.550  19.972  0.00  0.00    +0.000 OA
ATOM      4  N   UNL     1       6.074   4.609  19.149  0.00  0.00    +0.000 N 
ATOM      5  C   UNL     1       6.929   5.026  18.168  0.00  0.00    +0.000 A 
ATOM      6  O   UNL     1       7.952   5.656  18.421  0.00  0.00    +0.000 OA
ATOM      7  C   UNL     1       6.553   4.685  16.788  0.00  0.00    +0.000 A 
ATOM      8  C   UNL     1       7.354   5.127  15.726  0.00  0.00    +0.000 A 
ATOM      9  C   UNL     1       6.975   4.832  14.422  0.00  0.00    +0.000 A 
ATOM     10 BR   UNL     1       7.993   5.487  12.973  0.00  0.00    +0.000 Br
ATOM     11  C   UNL     1       5.835   4.073  14.176  0.00  0.00    +0.000 A 
ATOM     12  C   UNL     1       5.055   3.618  15.246  0.00  0.00    +0.000 A 
ATOM     13  C   UNL     1       5.388   3.943  16.569  0.00  0.00    +0.000 A 
ATOM     14  H   UNL     1       6.323   4.838  20.097  0.00  0.00    +0.000 HD
ENDROOT
BRANCH   1  15
ATOM     15  C   UNL     1       3.389   2.753  17.497  0.00  0.00    +0.000 C 
BRANCH  15  16
ATOM     16  O   UNL     1       2.322   3.549  16.981  0.00  0.00    +0.000 OA
BRANCH  16  17
ATOM     17  C   UNL     1       1.395   3.927  17.998  0.00  0.00    +0.000 C 
BRANCH  17  18
ATOM     18  C   UNL     1       1.032   2.693  18.806  0.00  0.00    +0.000 C 
BRANCH  18  20
ATOM     19  C   UNL     1       1.149   4.523  20.528  0.00  0.00    +0.000 C 
ATOM     20  C   UNL     1       0.897   3.046  20.283  0.00  0.00    +0.000 C 
ENDBRANCH  18  20
ENDBRANCH  17  18
ENDBRANCH  16  17
ENDBRANCH  15  16
ENDBRANCH   1  15
TORSDOF 5
ENDMDL
MODEL 9
REMARK VINA RESULT:      -6.7      2.244      2.846
REMARK  Name = 
REMARK  6 active torsions:
REMARK  status: ('A' for Active; 'I' for Inactive)
REMARK    1  A    between atoms: C_1  and  C_2
REMARK    2  A    between atoms: C_2  and  C_3
REMARK    3  A    between atoms: C_3  and  C_4
REMARK    4  A    between atoms: C_4  and  O_5
REMARK    5  A    between atoms: O_5  and  C_6
REMARK    6  A    between atoms: C_6  and  N_7
REMARK                            x       y       z     vdW  Elec       q    Type
REMARK                         _______ _______ _______ _____ _____    ______ ____
ROOT
ATOM      1  N   UNL     1       5.439   5.290  17.435  0.00  0.00    +0.000 N 
ATOM      2  C   UNL     1       5.224   6.576  16.963  0.00  0.00    +0.000 A 
ATOM      3  O   UNL     1       5.955   7.144  16.157  0.00  0.00    +0.000 OA
ATOM      4  N   UNL     1       4.117   7.222  17.429  0.00  0.00    +0.000 N 
ATOM      5  C   UNL     1       3.182   6.726  18.292  0.00  0.00    +0.000 A 
ATOM      6  O   UNL     1       2.200   7.379  18.633  0.00  0.00    +0.000 OA
ATOM      7  C   UNL     1       3.419   5.367  18.799  0.00  0.00    +0.000 A 
ATOM      8  C   UNL     1       2.530   4.813  19.731  0.00  0.00    +0.000 A 
ATOM      9  C   UNL     1       2.778   3.542  20.234  0.00  0.00    +0.000 A 
ATOM     10 BR   UNL     1       1.640   2.810  21.551  0.00  0.00    +0.000 Br
ATOM     11  C   UNL     1       3.875   2.811  19.786  0.00  0.00    +0.000 A 
ATOM     12  C   UNL     1       4.743   3.365  18.839  0.00  0.00    +0.000 A 
ATOM     13  C   UNL     1       4.543   4.666  18.352  0.00  0.00    +0.000 A 
ATOM     14  H   UNL     1       3.964   8.152  17.076  0.00  0.00    +0.000 HD
ENDROOT
BRANCH   1  15
ATOM     15  C   UNL     1       6.597   4.580  16.922  0.00  0.00    +0.000 C 
BRANCH  15  16
ATOM     16  O   UNL     1       6.220   3.680  15.880  0.00  0.00    +0.000 OA
BRANCH  16  17
ATOM     17  C   UNL     1       6.556   4.182  14.588  0.00  0.00    +0.000 C 
BRANCH  17  18
ATOM     18  C   UNL     1       5.358   4.001  13.671  0.00  0.00    +0.000 C 
BRANCH  18  20
ATOM     19  C   UNL     1       7.114   3.876  11.874  0.00  0.00    +0.000 C 
ATOM     20  C   UNL     1       5.785   3.335  12.367  0.00  0.00    +0.000 C 
ENDBRANCH  18  20
ENDBRANCH  17  18
ENDBRANCH  16  17
ENDBRANCH  15  16
ENDBRANCH   1  15
TORSDOF 5
ENDMDL
