MODEL 1
REMARK VINA RESULT:      -9.1      0.000      0.000
REMARK  Name = 
REMARK  3 active torsions:
REMARK  status: ('A' for Active; 'I' for Inactive)
REMARK    1  A    between atoms: C_1  and  C_2
REMARK    2  A    between atoms: C_7  and  C_8
REMARK    3  A    between atoms: C_10  and  C_11
REMARK                            x       y       z     vdW  Elec       q    Type
REMARK                         _______ _______ _______ _____ _____    ______ ____
ROOT
ATOM      1  C   UNL     1       4.663   4.744  18.820  0.00  0.00    +0.000 C 
ATOM      2  C   UNL     1       4.066   6.175  18.876  0.00  0.00    +0.000 C 
ATOM      3  C   UNL     1       2.712   6.192  19.595  0.00  0.00    +0.000 C 
ATOM      4  N   UNL     1       1.858   5.257  18.846  0.00  0.00    +0.000 N 
ATOM      5  C   UNL     1       2.265   3.978  19.027  0.00  0.00    +0.000 A 
ATOM      6  N   UNL     1       1.585   3.115  19.738  0.00  0.00    +0.000 NA
ATOM      7  C   UNL     1       2.496   2.742  20.668  0.00  0.00    +0.000 A 
ATOM      8  N   UNL     1       1.974   2.456  21.874  0.00  0.00    +0.000 N 
ATOM      9  N   UNL     1       3.764   3.059  20.387  0.00  0.00    +0.000 NA
ATOM     10  N   UNL     1       3.635   3.733  19.203  0.00  0.00    +0.000 N 
ATOM     11  H   UNL     1       1.686   5.554  17.890  0.00  0.00    +0.000 HD
ATOM     12  H   UNL     1       1.095   1.958  21.773  0.00  0.00    +0.000 HD
ATOM     13  H   UNL     1       1.680   3.321  22.333  0.00  0.00    +0.000 HD
ENDROOT
BRANCH   1  20
ATOM     14  C   UNL     1       7.680   5.314  18.462  0.00  0.00    +0.000 C 
ATOM     15  C   UNL     1       6.796   4.839  17.328  0.00  0.00    +0.000 A 
ATOM     16  C   UNL     1       7.428   4.726  16.075  0.00  0.00    +0.000 A 
ATOM     17  C   UNL     1       6.727   4.317  14.953  0.00  0.00    +0.000 A 
ATOM     18  C   UNL     1       5.377   4.017  15.074  0.00  0.00    +0.000 A 
ATOM     19  C   UNL     1       4.722   4.131  16.311  0.00  0.00    +0.000 A 
ATOM     20  C   UNL     1       5.416   4.534  17.469  0.00  0.00    +0.000 A 
ENDBRANCH   1  20
BRANCH   3  21
ATOM     21  C   UNL     1       2.021   7.527  19.755  0.00  0.00    +0.000 A 
ATOM     22  C   UNL     1       1.923   8.398  18.650  0.00  0.00    +0.000 A 
ATOM     23  C   UNL     1       1.263   9.620  18.759  0.00  0.00    +0.000 A 
ATOM     24  C   UNL     1       0.670   9.965  19.965  0.00  0.00    +0.000 A 
ATOM     25  F   UNL     1       0.046  11.144  20.081  0.00  0.00    +0.000 F 
ATOM     26  C   UNL     1       0.701   9.100  21.051  0.00  0.00    +0.000 A 
ATOM     27  C   UNL     1       1.363   7.878  20.943  0.00  0.00    +0.000 A 
ENDBRANCH   3  21
TORSDOF 2
ENDMDL
MODEL 2
REMARK VINA RESULT:      -8.6      3.473      5.101
REMARK  Name = 
REMARK  3 active torsions:
REMARK  status: ('A' for Active; 'I' for Inactive)
REMARK    1  A    between atoms: C_1  and  C_2
REMARK    2  A    between atoms: C_7  and  C_8
REMARK    3  A    between atoms: C_10  and  C_11
REMARK                            x       y       z     vdW  Elec       q    Type
REMARK                         _______ _______ _______ _____ _____    ______ ____
ROOT
ATOM      1  C   UNL     1       5.924   5.319  15.312  0.00  0.00    +0.000 C 
ATOM      2  C   UNL     1       4.580   4.879  15.950  0.00  0.00    +0.000 C 
ATOM      3  C   UNL     1       4.664   4.858  17.481  0.00  0.00    +0.000 C 
ATOM      4  N   UNL     1       5.765   3.935  17.800  0.00  0.00    +0.000 N 
ATOM      5  C   UNL     1       6.960   4.469  17.453  0.00  0.00    +0.000 A 
ATOM      6  N   UNL     1       7.829   4.888  18.337  0.00  0.00    +0.000 NA
ATOM      7  C   UNL     1       7.996   6.181  17.973  0.00  0.00    +0.000 A 
ATOM      8  N   UNL     1       8.229   7.021  18.997  0.00  0.00    +0.000 N 
ATOM      9  N   UNL     1       7.552   6.494  16.753  0.00  0.00    +0.000 NA
ATOM     10  N   UNL     1       7.015   5.309  16.331  0.00  0.00    +0.000 N 
ATOM     11  H   UNL     1       5.584   2.981  17.502  0.00  0.00    +0.000 HD
ATOM     12  H   UNL     1       8.840   6.586  19.683  0.00  0.00    +0.000 HD
ATOM     13  H   UNL     1       7.368   7.155  19.532  0.00  0.00    +0.000 HD
ENDROOT
BRANCH   1  20
ATOM     14  C   UNL     1       8.342   5.843  13.458  0.00  0.00    +0.000 C 
ATOM     15  C   UNL     1       7.269   4.824  13.136  0.00  0.00    +0.000 A 
ATOM     16  C   UNL     1       7.412   4.163  11.901  0.00  0.00    +0.000 A 
ATOM     17  C   UNL     1       6.489   3.220  11.482  0.00  0.00    +0.000 A 
ATOM     18  C   UNL     1       5.405   2.928  12.299  0.00  0.00    +0.000 A 
ATOM     19  C   UNL     1       5.235   3.580  13.531  0.00  0.00    +0.000 A 
ATOM     20  C   UNL     1       6.166   4.534  13.985  0.00  0.00    +0.000 A 
ENDBRANCH   1  20
BRANCH   3  21
ATOM     21  C   UNL     1       3.416   4.477  18.245  0.00  0.00    +0.000 A 
ATOM     22  C   UNL     1       2.504   3.562  17.678  0.00  0.00    +0.000 A 
ATOM     23  C   UNL     1       1.363   3.167  18.373  0.00  0.00    +0.000 A 
ATOM     24  C   UNL     1       1.142   3.660  19.651  0.00  0.00    +0.000 A 
ATOM     25  F   UNL     1       0.041   3.296  20.319  0.00  0.00    +0.000 F 
ATOM     26  C   UNL     1       2.054   4.516  20.254  0.00  0.00    +0.000 A 
ATOM     27  C   UNL     1       3.195   4.913  19.559  0.00  0.00    +0.000 A 
ENDBRANCH   3  21
TORSDOF 2
ENDMDL
MODEL 3
REMARK VINA RESULT:      -8.1      4.461      7.101
REMARK  Name = 
REMARK  3 active torsions:
REMARK  status: ('A' for Active; 'I' for Inactive)
REMARK    1  A    between atoms: C_1  and  C_2
REMARK    2  A    between atoms: C_7  and  C_8
REMARK    3  A    between atoms: C_10  and  C_11
REMARK                            x       y       z     vdW  Elec       q    Type
REMARK                         _______ _______ _______ _____ _____    ______ ____
ROOT
ATOM      1  C   UNL     1       4.860   3.686  18.158  0.00  0.00    +0.000 C 
ATOM      2  C   UNL     1       5.048   3.542  16.624  0.00  0.00    +0.000 C 
ATOM      3  C   UNL     1       6.101   4.521  16.092  0.00  0.00    +0.000 C 
ATOM      4  N   UNL     1       5.622   5.858  16.475  0.00  0.00    +0.000 N 
ATOM      5  C   UNL     1       5.710   6.039  17.814  0.00  0.00    +0.000 A 
ATOM      6  N   UNL     1       6.591   6.837  18.361  0.00  0.00    +0.000 NA
ATOM      7  C   UNL     1       7.252   5.995  19.190  0.00  0.00    +0.000 A 
ATOM      8  N   UNL     1       8.558   6.276  19.344  0.00  0.00    +0.000 N 
ATOM      9  N   UNL     1       6.639   4.833  19.433  0.00  0.00    +0.000 NA
ATOM     10  N   UNL     1       5.520   4.930  18.651  0.00  0.00    +0.000 N 
ATOM     11  H   UNL     1       4.741   6.106  16.034  0.00  0.00    +0.000 HD
ATOM     12  H   UNL     1       8.703   7.281  19.393  0.00  0.00    +0.000 HD
ATOM     13  H   UNL     1       9.064   6.028  18.490  0.00  0.00    +0.000 HD
ENDROOT
BRANCH   1  20
ATOM     14  C   UNL     1       3.963   2.204  20.718  0.00  0.00    +0.000 C 
ATOM     15  C   UNL     1       2.982   2.748  19.700  0.00  0.00    +0.000 A 
ATOM     16  C   UNL     1       1.624   2.485  19.967  0.00  0.00    +0.000 A 
ATOM     17  C   UNL     1       0.629   2.915  19.105  0.00  0.00    +0.000 A 
ATOM     18  C   UNL     1       0.984   3.614  17.960  0.00  0.00    +0.000 A 
ATOM     19  C   UNL     1       2.331   3.881  17.667  0.00  0.00    +0.000 A 
ATOM     20  C   UNL     1       3.362   3.465  18.533  0.00  0.00    +0.000 A 
ENDBRANCH   1  20
BRANCH   3  21
ATOM     21  C   UNL     1       6.416   4.474  14.614  0.00  0.00    +0.000 A 
ATOM     22  C   UNL     1       7.482   5.244  14.104  0.00  0.00    +0.000 A 
ATOM     23  C   UNL     1       7.816   5.196  12.752  0.00  0.00    +0.000 A 
ATOM     24  C   UNL     1       7.107   4.353  11.908  0.00  0.00    +0.000 A 
ATOM     25  F   UNL     1       7.414   4.311  10.606  0.00  0.00    +0.000 F 
ATOM     26  C   UNL     1       6.092   3.541  12.396  0.00  0.00    +0.000 A 
ATOM     27  C   UNL     1       5.755   3.591  13.748  0.00  0.00    +0.000 A 
ENDBRANCH   3  21
TORSDOF 2
ENDMDL
MODEL 4
REMARK VINA RESULT:      -7.8      3.084      6.621
REMARK  Name = 
REMARK  3 active torsions:
REMARK  status: ('A' for Active; 'I' for Inactive)
REMARK    1  A    between atoms: C_1  and  C_2
REMARK    2  A    between atoms: C_7  and  C_8
REMARK    3  A    between atoms: C_10  and  C_11
REMARK                            x       y       z     vdW  Elec       q    Type
REMARK                         _______ _______ _______ _____ _____    ______ ____
ROOT
ATOM      1  C   UNL     1       3.080   5.457  18.081  0.00  0.00    +0.000 C 
ATOM      2  C   UNL     1       3.763   5.514  16.689  0.00  0.00    +0.000 C 
ATOM      3  C   UNL     1       4.946   4.543  16.602  0.00  0.00    +0.000 C 
ATOM      4  N   UNL     1       5.856   4.936  17.689  0.00  0.00    +0.000 N 
ATOM      5  C   UNL     1       5.324   4.636  18.898  0.00  0.00    +0.000 A 
ATOM      6  N   UNL     1       5.783   3.667  19.650  0.00  0.00    +0.000 NA
ATOM      7  C   UNL     1       4.682   2.898  19.814  0.00  0.00    +0.000 A 
ATOM      8  N   UNL     1       4.933   1.579  19.905  0.00  0.00    +0.000 N 
ATOM      9  N   UNL     1       3.522   3.482  19.500  0.00  0.00    +0.000 NA
ATOM     10  N   UNL     1       3.932   4.708  19.051  0.00  0.00    +0.000 N 
ATOM     11  H   UNL     1       6.234   5.872  17.573  0.00  0.00    +0.000 HD
ATOM     12  H   UNL     1       5.775   1.414  20.449  0.00  0.00    +0.000 HD
ATOM     13  H   UNL     1       5.197   1.218  18.985  0.00  0.00    +0.000 HD
ENDROOT
BRANCH   1  20
ATOM     14  C   UNL     1       1.691   6.048  20.779  0.00  0.00    +0.000 C 
ATOM     15  C   UNL     1       1.926   7.113  19.728  0.00  0.00    +0.000 A 
ATOM     16  C   UNL     1       1.417   8.389  20.035  0.00  0.00    +0.000 A 
ATOM     17  C   UNL     1       1.552   9.446  19.150  0.00  0.00    +0.000 A 
ATOM     18  C   UNL     1       2.199   9.234  17.941  0.00  0.00    +0.000 A 
ATOM     19  C   UNL     1       2.707   7.968  17.607  0.00  0.00    +0.000 A 
ATOM     20  C   UNL     1       2.593   6.880  18.495  0.00  0.00    +0.000 A 
ENDBRANCH   1  20
BRANCH   3  21
ATOM     21  C   UNL     1       5.692   4.466  15.289  0.00  0.00    +0.000 A 
ATOM     22  C   UNL     1       5.128   3.758  14.208  0.00  0.00    +0.000 A 
ATOM     23  C   UNL     1       5.777   3.697  12.977  0.00  0.00    +0.000 A 
ATOM     24  C   UNL     1       6.979   4.370  12.810  0.00  0.00    +0.000 A 
ATOM     25  F   UNL     1       7.615   4.306  11.634  0.00  0.00    +0.000 F 
ATOM     26  C   UNL     1       7.526   5.123  13.841  0.00  0.00    +0.000 A 
ATOM     27  C   UNL     1       6.878   5.182  15.074  0.00  0.00    +0.000 A 
ENDBRANCH   3  21
TORSDOF 2
ENDMDL
MODEL 5
REMARK VINA RESULT:      -7.7      3.743      7.254
REMARK  Name = 
REMARK  3 active torsions:
REMARK  status: ('A' for Active; 'I' for Inactive)
REMARK    1  A    between atoms: C_1  and  C_2
REMARK    2  A    between atoms: C_7  and  C_8
REMARK    3  A    between atoms: C_10  and  C_11
REMARK                            x       y       z     vdW  Elec       q    Type
REMARK                         _______ _______ _______ _____ _____    ______ ____
ROOT
ATOM      1  C   UNL     1       4.672   5.841  18.228  0.00  0.00    +0.000 C 
ATOM      2  C   UNL     1       4.802   5.443  16.734  0.00  0.00    +0.000 C 
ATOM      3  C   UNL     1       6.268   5.246  16.331  0.00  0.00    +0.000 C 
ATOM      4  N   UNL     1       6.931   6.525  16.630  0.00  0.00    +0.000 N 
ATOM      5  C   UNL     1       7.024   6.721  17.967  0.00  0.00    +0.000 A 
ATOM      6  N   UNL     1       8.160   6.648  18.614  0.00  0.00    +0.000 NA
ATOM      7  C   UNL     1       7.895   5.689  19.532  0.00  0.00    +0.000 A 
ATOM      8  N   UNL     1       8.950   4.918  19.851  0.00  0.00    +0.000 N 
ATOM      9  N   UNL     1       6.601   5.406  19.709  0.00  0.00    +0.000 NA
ATOM     10  N   UNL     1       6.002   6.220  18.787  0.00  0.00    +0.000 N 
ATOM     11  H   UNL     1       6.575   7.298  16.076  0.00  0.00    +0.000 HD
ATOM     12  H   UNL     1       9.797   5.477  19.905  0.00  0.00    +0.000 HD
ATOM     13  H   UNL     1       9.159   4.287  19.073  0.00  0.00    +0.000 HD
ENDROOT
BRANCH   1  20
ATOM     14  C   UNL     1       2.513   5.544  20.421  0.00  0.00    +0.000 C 
ATOM     15  C   UNL     1       2.499   6.667  19.405  0.00  0.00    +0.000 A 
ATOM     16  C   UNL     1       1.401   7.544  19.487  0.00  0.00    +0.000 A 
ATOM     17  C   UNL     1       1.262   8.603  18.605  0.00  0.00    +0.000 A 
ATOM     18  C   UNL     1       2.227   8.795  17.625  0.00  0.00    +0.000 A 
ATOM     19  C   UNL     1       3.327   7.928  17.517  0.00  0.00    +0.000 A 
ATOM     20  C   UNL     1       3.496   6.851  18.409  0.00  0.00    +0.000 A 
ENDBRANCH   1  20
BRANCH   3  21
ATOM     21  C   UNL     1       6.551   4.824  14.906  0.00  0.00    +0.000 A 
ATOM     22  C   UNL     1       5.696   3.901  14.271  0.00  0.00    +0.000 A 
ATOM     23  C   UNL     1       5.912   3.519  12.948  0.00  0.00    +0.000 A 
ATOM     24  C   UNL     1       6.967   4.082  12.244  0.00  0.00    +0.000 A 
ATOM     25  F   UNL     1       7.190   3.710  10.978  0.00  0.00    +0.000 F 
ATOM     26  C   UNL     1       7.789   5.037  12.829  0.00  0.00    +0.000 A 
ATOM     27  C   UNL     1       7.574   5.417  14.152  0.00  0.00    +0.000 A 
ENDBRANCH   3  21
TORSDOF 2
ENDMDL
MODEL 6
REMARK VINA RESULT:      -7.6      3.921      7.061
REMARK  Name = 
REMARK  3 active torsions:
REMARK  status: ('A' for Active; 'I' for Inactive)
REMARK    1  A    between atoms: C_1  and  C_2
REMARK    2  A    between atoms: C_7  and  C_8
REMARK    3  A    between atoms: C_10  and  C_11
REMARK                            x       y       z     vdW  Elec       q    Type
REMARK                         _______ _______ _______ _____ _____    ______ ____
ROOT
ATOM      1  C   UNL     1       4.688   3.630  18.170  0.00  0.00    +0.000 C 
ATOM      2  C   UNL     1       4.892   3.496  16.637  0.00  0.00    +0.000 C 
ATOM      3  C   UNL     1       5.980   4.450  16.130  0.00  0.00    +0.000 C 
ATOM      4  N   UNL     1       5.535   5.796  16.521  0.00  0.00    +0.000 N 
ATOM      5  C   UNL     1       5.610   5.961  17.863  0.00  0.00    +0.000 A 
ATOM      6  N   UNL     1       6.507   6.727  18.431  0.00  0.00    +0.000 NA
ATOM      7  C   UNL     1       7.131   5.857  19.259  0.00  0.00    +0.000 A 
ATOM      8  N   UNL     1       8.443   6.100  19.433  0.00  0.00    +0.000 N 
ATOM      9  N   UNL     1       6.482   4.711  19.481  0.00  0.00    +0.000 NA
ATOM     10  N   UNL     1       5.377   4.849  18.685  0.00  0.00    +0.000 N 
ATOM     11  H   UNL     1       4.667   6.074  16.072  0.00  0.00    +0.000 HD
ATOM     12  H   UNL     1       8.616   7.099  19.495  0.00  0.00    +0.000 HD
ATOM     13  H   UNL     1       8.952   5.845  18.583  0.00  0.00    +0.000 HD
ENDROOT
BRANCH   1  20
ATOM     14  C   UNL     1       3.108   5.640  19.907  0.00  0.00    +0.000 C 
ATOM     15  C   UNL     1       2.490   4.372  19.355  0.00  0.00    +0.000 A 
ATOM     16  C   UNL     1       1.154   4.136  19.731  0.00  0.00    +0.000 A 
ATOM     17  C   UNL     1       0.480   3.004  19.306  0.00  0.00    +0.000 A 
ATOM     18  C   UNL     1       1.140   2.090  18.495  0.00  0.00    +0.000 A 
ATOM     19  C   UNL     1       2.475   2.299  18.113  0.00  0.00    +0.000 A 
ATOM     20  C   UNL     1       3.179   3.448  18.523  0.00  0.00    +0.000 A 
ENDBRANCH   1  20
BRANCH   3  21
ATOM     21  C   UNL     1       6.314   4.410  14.655  0.00  0.00    +0.000 A 
ATOM     22  C   UNL     1       7.394   5.172  14.165  0.00  0.00    +0.000 A 
ATOM     23  C   UNL     1       7.745   5.129  12.817  0.00  0.00    +0.000 A 
ATOM     24  C   UNL     1       7.038   4.299  11.958  0.00  0.00    +0.000 A 
ATOM     25  F   UNL     1       7.361   4.262  10.660  0.00  0.00    +0.000 F 
ATOM     26  C   UNL     1       6.008   3.495  12.428  0.00  0.00    +0.000 A 
ATOM     27  C   UNL     1       5.655   3.539  13.776  0.00  0.00    +0.000 A 
ENDBRANCH   3  21
TORSDOF 2
ENDMDL
MODEL 7
REMARK VINA RESULT:      -7.5      2.395      3.847
REMARK  Name = 
REMARK  3 active torsions:
REMARK  status: ('A' for Active; 'I' for Inactive)
REMARK    1  A    between atoms: C_1  and  C_2
REMARK    2  A    between atoms: C_7  and  C_8
REMARK    3  A    between atoms: C_10  and  C_11
REMARK                            x       y       z     vdW  Elec       q    Type
REMARK                         _______ _______ _______ _____ _____    ______ ____
ROOT
ATOM      1  C   UNL     1       6.338   5.667  15.722  0.00  0.00    +0.000 C 
ATOM      2  C   UNL     1       5.032   6.456  16.007  0.00  0.00    +0.000 C 
ATOM      3  C   UNL     1       4.754   6.559  17.511  0.00  0.00    +0.000 C 
ATOM      4  N   UNL     1       4.686   5.170  17.992  0.00  0.00    +0.000 N 
ATOM      5  C   UNL     1       5.908   4.588  17.965  0.00  0.00    +0.000 A 
ATOM      6  N   UNL     1       6.586   4.317  19.051  0.00  0.00    +0.000 NA
ATOM      7  C   UNL     1       7.736   4.998  18.839  0.00  0.00    +0.000 A 
ATOM      8  N   UNL     1       8.303   5.494  19.954  0.00  0.00    +0.000 N 
ATOM      9  N   UNL     1       7.945   5.391  17.579  0.00  0.00    +0.000 NA
ATOM     10  N   UNL     1       6.804   4.966  16.954  0.00  0.00    +0.000 N 
ATOM     11  H   UNL     1       3.917   4.645  17.586  0.00  0.00    +0.000 HD
ATOM     12  H   UNL     1       8.218   4.833  20.721  0.00  0.00    +0.000 HD
ATOM     13  H   UNL     1       7.753   6.287  20.292  0.00  0.00    +0.000 HD
ENDROOT
BRANCH   1  20
ATOM     14  C   UNL     1       8.413   5.668  13.431  0.00  0.00    +0.000 C 
ATOM     15  C   UNL     1       7.129   4.867  13.373  0.00  0.00    +0.000 A 
ATOM     16  C   UNL     1       6.911   4.160  12.175  0.00  0.00    +0.000 A 
ATOM     17  C   UNL     1       5.767   3.402  11.990  0.00  0.00    +0.000 A 
ATOM     18  C   UNL     1       4.823   3.345  13.006  0.00  0.00    +0.000 A 
ATOM     19  C   UNL     1       5.014   4.049  14.206  0.00  0.00    +0.000 A 
ATOM     20  C   UNL     1       6.174   4.817  14.424  0.00  0.00    +0.000 A 
ENDBRANCH   1  20
BRANCH   3  21
ATOM     21  C   UNL     1       3.527   7.330  17.944  0.00  0.00    +0.000 A 
ATOM     22  C   UNL     1       2.866   6.973  19.137  0.00  0.00    +0.000 A 
ATOM     23  C   UNL     1       1.753   7.686  19.579  0.00  0.00    +0.000 A 
ATOM     24  C   UNL     1       1.314   8.780  18.846  0.00  0.00    +0.000 A 
ATOM     25  F   UNL     1       0.238   9.462  19.256  0.00  0.00    +0.000 F 
ATOM     26  C   UNL     1       1.983   9.187  17.699  0.00  0.00    +0.000 A 
ATOM     27  C   UNL     1       3.095   8.472  17.256  0.00  0.00    +0.000 A 
ENDBRANCH   3  21
TORSDOF 2
ENDMDL
MODEL 8
REMARK VINA RESULT:      -7.4      4.630      8.680
REMARK  Name = 
REMARK  3 active torsions:
REMARK  status: ('A' for Active; 'I' for Inactive)
REMARK    1  A    between atoms: C_1  and  C_2
REMARK    2  A    between atoms: C_7  and  C_8
REMARK    3  A    between atoms: C_10  and  C_11
REMARK                            x       y       z     vdW  Elec       q    Type
REMARK                         _______ _______ _______ _____ _____    ______ ____
ROOT
ATOM      1  C   UNL     1      -0.796  10.774  18.956  0.00  0.00    +0.000 C 
ATOM      2  C   UNL     1      -0.103   9.396  18.784  0.00  0.00    +0.000 C 
ATOM      3  C   UNL     1       1.418   9.508  18.946  0.00  0.00    +0.000 C 
ATOM      4  N   UNL     1       1.849  10.483  17.932  0.00  0.00    +0.000 N 
ATOM      5  C   UNL     1       1.433  11.731  18.253  0.00  0.00    +0.000 A 
ATOM      6  N   UNL     1       2.253  12.666  18.659  0.00  0.00    +0.000 NA
ATOM      7  C   UNL     1       1.726  12.995  19.862  0.00  0.00    +0.000 A 
ATOM      8  N   UNL     1       2.633  13.359  20.786  0.00  0.00    +0.000 N 
ATOM      9  N   UNL     1       0.476  12.572  20.074  0.00  0.00    +0.000 NA
ATOM     10  N   UNL     1       0.211  11.874  18.928  0.00  0.00    +0.000 N 
ATOM     11  H   UNL     1       1.677  10.171  16.981  0.00  0.00    +0.000 HD
ATOM     12  H   UNL     1       3.366  13.921  20.364  0.00  0.00    +0.000 HD
ATOM     13  H   UNL     1       3.149  12.534  21.101  0.00  0.00    +0.000 HD
ENDROOT
BRANCH   1  20
ATOM     14  C   UNL     1      -3.363  12.358  19.634  0.00  0.00    +0.000 C 
ATOM     15  C   UNL     1      -3.193  11.589  18.340  0.00  0.00    +0.000 A 
ATOM     16  C   UNL     1      -4.309  11.594  17.481  0.00  0.00    +0.000 A 
ATOM     17  C   UNL     1      -4.287  10.915  16.275  0.00  0.00    +0.000 A 
ATOM     18  C   UNL     1      -3.142  10.218  15.914  0.00  0.00    +0.000 A 
ATOM     19  C   UNL     1      -2.020  10.190  16.757  0.00  0.00    +0.000 A 
ATOM     20  C   UNL     1      -2.012  10.882  17.984  0.00  0.00    +0.000 A 
ENDBRANCH   1  20
BRANCH   3  21
ATOM     21  C   UNL     1       2.228   8.236  18.836  0.00  0.00    +0.000 A 
ATOM     22  C   UNL     1       2.108   7.245  19.832  0.00  0.00    +0.000 A 
ATOM     23  C   UNL     1       2.817   6.049  19.739  0.00  0.00    +0.000 A 
ATOM     24  C   UNL     1       3.627   5.824  18.635  0.00  0.00    +0.000 A 
ATOM     25  F   UNL     1       4.321   4.684  18.546  0.00  0.00    +0.000 F 
ATOM     26  C   UNL     1       3.717   6.759  17.612  0.00  0.00    +0.000 A 
ATOM     27  C   UNL     1       3.009   7.957  17.705  0.00  0.00    +0.000 A 
ENDBRANCH   3  21
TORSDOF 2
ENDMDL
MODEL 9
REMARK VINA RESULT:      -7.4      0.578      1.498
REMARK  Name = 
REMARK  3 active torsions:
REMARK  status: ('A' for Active; 'I' for Inactive)
REMARK    1  A    between atoms: C_1  and  C_2
REMARK    2  A    between atoms: C_7  and  C_8
REMARK    3  A    between atoms: C_10  and  C_11
REMARK                            x       y       z     vdW  Elec       q    Type
REMARK                         _______ _______ _______ _____ _____    ______ ____
ROOT
ATOM      1  C   UNL     1       4.472   4.761  19.292  0.00  0.00    +0.000 C 
ATOM      2  C   UNL     1       3.891   6.199  19.332  0.00  0.00    +0.000 C 
ATOM      3  C   UNL     1       2.487   6.221  19.947  0.00  0.00    +0.000 C 
ATOM      4  N   UNL     1       1.681   5.314  19.115  0.00  0.00    +0.000 N 
ATOM      5  C   UNL     1       2.056   4.026  19.300  0.00  0.00    +0.000 A 
ATOM      6  N   UNL     1       1.312   3.159  19.940  0.00  0.00    +0.000 NA
ATOM      7  C   UNL     1       2.144   2.755  20.928  0.00  0.00    +0.000 A 
ATOM      8  N   UNL     1       1.528   2.453  22.085  0.00  0.00    +0.000 N 
ATOM      9  N   UNL     1       3.434   3.058  20.751  0.00  0.00    +0.000 NA
ATOM     10  N   UNL     1       3.405   3.757  19.576  0.00  0.00    +0.000 N 
ATOM     11  H   UNL     1       1.587   5.632  18.155  0.00  0.00    +0.000 HD
ATOM     12  H   UNL     1       0.652   1.970  21.906  0.00  0.00    +0.000 HD
ATOM     13  H   UNL     1       1.210   3.313  22.537  0.00  0.00    +0.000 HD
ENDROOT
BRANCH   1  20
ATOM     14  C   UNL     1       3.310   3.627  16.662  0.00  0.00    +0.000 C 
ATOM     15  C   UNL     1       4.768   4.009  16.816  0.00  0.00    +0.000 A 
ATOM     16  C   UNL     1       5.580   3.761  15.693  0.00  0.00    +0.000 A 
ATOM     17  C   UNL     1       6.934   4.050  15.711  0.00  0.00    +0.000 A 
ATOM     18  C   UNL     1       7.493   4.593  16.861  0.00  0.00    +0.000 A 
ATOM     19  C   UNL     1       6.705   4.841  17.996  0.00  0.00    +0.000 A 
ATOM     20  C   UNL     1       5.323   4.566  17.999  0.00  0.00    +0.000 A 
ENDBRANCH   1  20
BRANCH   3  21
ATOM     21  C   UNL     1       1.803   7.564  20.081  0.00  0.00    +0.000 A 
ATOM     22  C   UNL     1       1.773   8.443  18.980  0.00  0.00    +0.000 A 
ATOM     23  C   UNL     1       1.121   9.672  19.064  0.00  0.00    +0.000 A 
ATOM     24  C   UNL     1       0.470  10.015  20.240  0.00  0.00    +0.000 A 
ATOM     25  F   UNL     1      -0.147  11.199  20.333  0.00  0.00    +0.000 F 
ATOM     26  C   UNL     1       0.435   9.142  21.319  0.00  0.00    +0.000 A 
ATOM     27  C   UNL     1       1.089   7.913  21.236  0.00  0.00    +0.000 A 
ENDBRANCH   3  21
TORSDOF 2
ENDMDL
