MODEL 1
REMARK VINA RESULT:      -8.5      0.000      0.000
REMARK  Name = 
REMARK  3 active torsions:
REMARK  status: ('A' for Active; 'I' for Inactive)
REMARK    1  A    between atoms: C_1  and  C_2
REMARK    2  A    between atoms: C_2  and  C_3
REMARK    3  A    between atoms: C_3  and  O_4
REMARK                            x       y       z     vdW  Elec       q    Type
REMARK                         _______ _______ _______ _____ _____    ______ ____
ROOT
ATOM      1  C   UNL     1       3.375  15.042  18.353  0.00  0.00    +0.000 C 
ATOM      2  C   UNL     1       2.781  16.411  18.751  0.00  0.00    +0.000 C 
ATOM      3  O   UNL     1       2.848  17.379  17.995  0.00  0.00    +0.000 OA
ATOM      4  O   UNL     1       2.319  16.537  20.017  0.00  0.00    +0.000 OA
ATOM      5  C   UNL     1       1.620  15.456  20.671  0.00  0.00    +0.000 C 
ATOM      6  C   UNL     1       1.775  14.130  20.020  0.00  0.00    +0.000 A 
ATOM      7  C   UNL     1       2.537  13.930  18.925  0.00  0.00    +0.000 A 
ATOM      8  C   UNL     1       2.519  12.635  18.268  0.00  0.00    +0.000 A 
ATOM      9  C   UNL     1       1.844  11.643  18.842  0.00  0.00    +0.000 A 
ATOM     10  N   UNL     1       1.175  11.776  20.026  0.00  0.00    +0.000 N 
ATOM     11  C   UNL     1       1.031  12.989  20.662  0.00  0.00    +0.000 A 
ATOM     12  O   UNL     1       0.378  13.156  21.686  0.00  0.00    +0.000 OA
ATOM     13  C   UNL     1       0.607  10.500  20.469  0.00  0.00    +0.000 C 
ATOM     14  C   UNL     1       1.295   9.498  19.560  0.00  0.00    +0.000 C 
ATOM     15  C   UNL     1       1.665   8.233  19.794  0.00  0.00    +0.000 C 
ATOM     16  C   UNL     1       1.209   7.483  21.018  0.00  0.00    +0.000 C 
ATOM     17  O   UNL     1       0.487   7.892  21.905  0.00  0.00    +0.000 OA
ATOM     18  N   UNL     1       1.779   6.226  20.904  0.00  0.00    +0.000 N 
ATOM     19  C   UNL     1       2.558   6.122  19.755  0.00  0.00    +0.000 A 
ATOM     20  C   UNL     1       3.286   5.019  19.349  0.00  0.00    +0.000 A 
ATOM     21  C   UNL     1       4.043   5.137  18.180  0.00  0.00    +0.000 A 
ATOM     22  C   UNL     1       4.071   6.349  17.476  0.00  0.00    +0.000 A 
ATOM     23 BR   UNL     1       5.118   6.502  15.906  0.00  0.00    +0.000 Br
ATOM     24  C   UNL     1       3.340   7.454  17.914  0.00  0.00    +0.000 A 
ATOM     25  C   UNL     1       2.545   7.324  19.042  0.00  0.00    +0.000 A 
ATOM     26  C   UNL     1       1.724  10.268  18.366  0.00  0.00    +0.000 C 
ATOM     27  O   UNL     1       1.844   9.892  17.220  0.00  0.00    +0.000 OA
ATOM     28  H   UNL     1       1.647   5.500  21.593  0.00  0.00    +0.000 HD
ENDROOT
BRANCH   1  30
ATOM     29  C   UNL     1       5.886  14.654  17.789  0.00  0.00    +0.000 C 
ATOM     30  C   UNL     1       4.845  15.039  18.836  0.00  0.00    +0.000 C 
ENDBRANCH   1  30
BRANCH   1  31
ATOM     31  O   UNL     1       3.370  14.938  16.923  0.00  0.00    +0.000 OA
ATOM     32  H   UNL     1       4.066  15.546  16.602  0.00  0.00    +0.000 HD
ENDBRANCH   1  31
TORSDOF 2
ENDMDL
MODEL 2
REMARK VINA RESULT:      -7.7      5.823      8.964
REMARK  Name = 
REMARK  3 active torsions:
REMARK  status: ('A' for Active; 'I' for Inactive)
REMARK    1  A    between atoms: C_1  and  C_2
REMARK    2  A    between atoms: C_2  and  C_3
REMARK    3  A    between atoms: C_3  and  O_4
REMARK                            x       y       z     vdW  Elec       q    Type
REMARK                         _______ _______ _______ _____ _____    ______ ____
ROOT
ATOM      1  C   UNL     1       0.135  10.441  18.582  0.00  0.00    +0.000 C 
ATOM      2  C   UNL     1       1.434   9.621  18.740  0.00  0.00    +0.000 C 
ATOM      3  O   UNL     1       2.350   9.714  17.923  0.00  0.00    +0.000 OA
ATOM      4  O   UNL     1       1.461   8.692  19.724  0.00  0.00    +0.000 OA
ATOM      5  C   UNL     1       0.844   8.941  21.005  0.00  0.00    +0.000 C 
ATOM      6  C   UNL     1      -0.106  10.083  21.029  0.00  0.00    +0.000 A 
ATOM      7  C   UNL     1      -0.406  10.815  19.936  0.00  0.00    +0.000 A 
ATOM      8  C   UNL     1      -1.231  12.002  20.076  0.00  0.00    +0.000 A 
ATOM      9  C   UNL     1      -1.772  12.262  21.263  0.00  0.00    +0.000 A 
ATOM     10  N   UNL     1      -1.600  11.462  22.357  0.00  0.00    +0.000 N 
ATOM     11  C   UNL     1      -0.741  10.386  22.360  0.00  0.00    +0.000 A 
ATOM     12  O   UNL     1      -0.510   9.693  23.344  0.00  0.00    +0.000 OA
ATOM     13  C   UNL     1      -2.387  11.936  23.499  0.00  0.00    +0.000 C 
ATOM     14  C   UNL     1      -3.320  12.949  22.859  0.00  0.00    +0.000 C 
ATOM     15  C   UNL     1      -4.577  13.284  23.173  0.00  0.00    +0.000 C 
ATOM     16  C   UNL     1      -5.226  12.831  24.455  0.00  0.00    +0.000 C 
ATOM     17  O   UNL     1      -4.730  12.146  25.328  0.00  0.00    +0.000 OA
ATOM     18  N   UNL     1      -6.499  13.373  24.428  0.00  0.00    +0.000 N 
ATOM     19  C   UNL     1      -6.720  14.096  23.258  0.00  0.00    +0.000 A 
ATOM     20  C   UNL     1      -7.886  14.744  22.897  0.00  0.00    +0.000 A 
ATOM     21  C   UNL     1      -7.916  15.377  21.651  0.00  0.00    +0.000 A 
ATOM     22  C   UNL     1      -6.801  15.317  20.801  0.00  0.00    +0.000 A 
ATOM     23 BR   UNL     1      -6.864  16.159  19.107  0.00  0.00    +0.000 Br
ATOM     24  C   UNL     1      -5.641  14.643  21.181  0.00  0.00    +0.000 A 
ATOM     25  C   UNL     1      -5.587  14.062  22.439  0.00  0.00    +0.000 A 
ATOM     26  C   UNL     1      -2.648  13.377  21.606  0.00  0.00    +0.000 C 
ATOM     27  O   UNL     1      -2.708  14.446  21.038  0.00  0.00    +0.000 OA
ATOM     28  H   UNL     1      -7.171  13.233  25.168  0.00  0.00    +0.000 HD
ENDROOT
BRANCH   1  30
ATOM     29  C   UNL     1      -1.971  10.340  17.056  0.00  0.00    +0.000 C 
ATOM     30  C   UNL     1      -0.832   9.582  17.731  0.00  0.00    +0.000 C 
ENDBRANCH   1  30
BRANCH   1  31
ATOM     31  O   UNL     1       0.433  11.639  17.854  0.00  0.00    +0.000 OA
ATOM     32  H   UNL     1       0.113  11.492  16.941  0.00  0.00    +0.000 HD
ENDBRANCH   1  31
TORSDOF 2
ENDMDL
MODEL 3
REMARK VINA RESULT:      -6.9      1.214      1.540
REMARK  Name = 
REMARK  3 active torsions:
REMARK  status: ('A' for Active; 'I' for Inactive)
REMARK    1  A    between atoms: C_1  and  C_2
REMARK    2  A    between atoms: C_2  and  C_3
REMARK    3  A    between atoms: C_3  and  O_4
REMARK                            x       y       z     vdW  Elec       q    Type
REMARK                         _______ _______ _______ _____ _____    ______ ____
ROOT
ATOM      1  C   UNL     1       2.793  13.941  18.579  0.00  0.00    +0.000 C 
ATOM      2  C   UNL     1       1.969  15.135  19.106  0.00  0.00    +0.000 C 
ATOM      3  O   UNL     1       1.848  16.167  18.447  0.00  0.00    +0.000 OA
ATOM      4  O   UNL     1       1.512  15.056  20.377  0.00  0.00    +0.000 OA
ATOM      5  C   UNL     1       1.031  13.809  20.923  0.00  0.00    +0.000 C 
ATOM      6  C   UNL     1       1.412  12.600  20.148  0.00  0.00    +0.000 A 
ATOM      7  C   UNL     1       2.179  12.647  19.041  0.00  0.00    +0.000 A 
ATOM      8  C   UNL     1       2.385  11.438  18.262  0.00  0.00    +0.000 A 
ATOM      9  C   UNL     1       1.909  10.290  18.737  0.00  0.00    +0.000 A 
ATOM     10  N   UNL     1       1.247  10.187  19.928  0.00  0.00    +0.000 N 
ATOM     11  C   UNL     1       0.896  11.288  20.677  0.00  0.00    +0.000 A 
ATOM     12  O   UNL     1       0.241  11.236  21.711  0.00  0.00    +0.000 OA
ATOM     13  C   UNL     1       0.925   8.793  20.245  0.00  0.00    +0.000 C 
ATOM     14  C   UNL     1       1.768   8.023  19.245  0.00  0.00    +0.000 C 
ATOM     15  C   UNL     1       2.364   6.830  19.356  0.00  0.00    +0.000 C 
ATOM     16  C   UNL     1       2.071   5.897  20.502  0.00  0.00    +0.000 C 
ATOM     17  O   UNL     1       1.301   6.082  21.423  0.00  0.00    +0.000 OA
ATOM     18  N   UNL     1       2.857   4.781  20.269  0.00  0.00    +0.000 N 
ATOM     19  C   UNL     1       3.623   4.928  19.116  0.00  0.00    +0.000 A 
ATOM     20  C   UNL     1       4.531   4.019  18.606  0.00  0.00    +0.000 A 
ATOM     21  C   UNL     1       5.235   4.383  17.455  0.00  0.00    +0.000 A 
ATOM     22  C   UNL     1       5.032   5.641  16.871  0.00  0.00    +0.000 A 
ATOM     23 BR   UNL     1       6.009   6.129  15.325  0.00  0.00    +0.000 Br
ATOM     24  C   UNL     1       4.122   6.549  17.412  0.00  0.00    +0.000 A 
ATOM     25  C   UNL     1       3.381   6.170  18.522  0.00  0.00    +0.000 A 
ATOM     26  C   UNL     1       2.031   8.968  18.131  0.00  0.00    +0.000 C 
ATOM     27  O   UNL     1       2.199   8.730  16.954  0.00  0.00    +0.000 OA
ATOM     28  H   UNL     1       2.868   3.980  20.884  0.00  0.00    +0.000 HD
ENDROOT
BRANCH   1  30
ATOM     29  C   UNL     1       5.185  14.826  18.060  0.00  0.00    +0.000 C 
ATOM     30  C   UNL     1       4.248  14.158  19.062  0.00  0.00    +0.000 C 
ENDBRANCH   1  30
BRANCH   1  31
ATOM     31  O   UNL     1       2.785  13.974  17.146  0.00  0.00    +0.000 OA
ATOM     32  H   UNL     1       3.722  13.992  16.866  0.00  0.00    +0.000 HD
ENDBRANCH   1  31
TORSDOF 2
ENDMDL
MODEL 4
REMARK VINA RESULT:      -6.8      5.032      6.915
REMARK  Name = 
REMARK  3 active torsions:
REMARK  status: ('A' for Active; 'I' for Inactive)
REMARK    1  A    between atoms: C_1  and  C_2
REMARK    2  A    between atoms: C_2  and  C_3
REMARK    3  A    between atoms: C_3  and  O_4
REMARK                            x       y       z     vdW  Elec       q    Type
REMARK                         _______ _______ _______ _____ _____    ______ ____
ROOT
ATOM      1  C   UNL     1       1.073  17.464  19.743  0.00  0.00    +0.000 C 
ATOM      2  C   UNL     1       2.592  17.746  19.729  0.00  0.00    +0.000 C 
ATOM      3  O   UNL     1       3.085  18.616  20.446  0.00  0.00    +0.000 OA
ATOM      4  O   UNL     1       3.329  17.102  18.795  0.00  0.00    +0.000 OA
ATOM      5  C   UNL     1       3.050  15.732  18.435  0.00  0.00    +0.000 C 
ATOM      6  C   UNL     1       1.720  15.232  18.867  0.00  0.00    +0.000 A 
ATOM      7  C   UNL     1       0.819  15.998  19.513  0.00  0.00    +0.000 A 
ATOM      8  C   UNL     1      -0.397  15.393  20.027  0.00  0.00    +0.000 A 
ATOM      9  C   UNL     1      -0.643  14.119  19.734  0.00  0.00    +0.000 A 
ATOM     10  N   UNL     1       0.184  13.352  18.963  0.00  0.00    +0.000 N 
ATOM     11  C   UNL     1       1.415  13.795  18.532  0.00  0.00    +0.000 A 
ATOM     12  O   UNL     1       2.211  13.110  17.901  0.00  0.00    +0.000 OA
ATOM     13  C   UNL     1      -0.382  12.022  18.724  0.00  0.00    +0.000 C 
ATOM     14  C   UNL     1      -1.820  12.189  19.182  0.00  0.00    +0.000 C 
ATOM     15  C   UNL     1      -2.942  11.615  18.729  0.00  0.00    +0.000 C 
ATOM     16  C   UNL     1      -2.912  10.452  17.773  0.00  0.00    +0.000 C 
ATOM     17  O   UNL     1      -1.930   9.905  17.310  0.00  0.00    +0.000 OA
ATOM     18  N   UNL     1      -4.240  10.135  17.547  0.00  0.00    +0.000 N 
ATOM     19  C   UNL     1      -5.093  10.989  18.242  0.00  0.00    +0.000 A 
ATOM     20  C   UNL     1      -6.475  10.970  18.223  0.00  0.00    +0.000 A 
ATOM     21  C   UNL     1      -7.146  11.950  18.960  0.00  0.00    +0.000 A 
ATOM     22  C   UNL     1      -6.424  12.925  19.661  0.00  0.00    +0.000 A 
ATOM     23 BR   UNL     1      -7.346  14.259  20.637  0.00  0.00    +0.000 Br
ATOM     24  C   UNL     1      -5.029  12.934  19.653  0.00  0.00    +0.000 A 
ATOM     25  C   UNL     1      -4.359  11.930  18.970  0.00  0.00    +0.000 A 
ATOM     26  C   UNL     1      -1.811  13.335  20.125  0.00  0.00    +0.000 C 
ATOM     27  O   UNL     1      -2.527  13.540  21.081  0.00  0.00    +0.000 OA
ATOM     28  H   UNL     1      -4.529   9.385  16.936  0.00  0.00    +0.000 HD
ENDROOT
BRANCH   1  30
ATOM     29  C   UNL     1      -0.537  17.722  17.715  0.00  0.00    +0.000 C 
ATOM     30  C   UNL     1       0.440  18.390  18.677  0.00  0.00    +0.000 C 
ENDBRANCH   1  30
BRANCH   1  31
ATOM     31  O   UNL     1       0.550  17.831  21.026  0.00  0.00    +0.000 OA
ATOM     32  H   UNL     1       0.083  17.042  21.368  0.00  0.00    +0.000 HD
ENDBRANCH   1  31
TORSDOF 2
ENDMDL
MODEL 5
REMARK VINA RESULT:      -6.6      4.388      7.963
REMARK  Name = 
REMARK  3 active torsions:
REMARK  status: ('A' for Active; 'I' for Inactive)
REMARK    1  A    between atoms: C_1  and  C_2
REMARK    2  A    between atoms: C_2  and  C_3
REMARK    3  A    between atoms: C_3  and  O_4
REMARK                            x       y       z     vdW  Elec       q    Type
REMARK                         _______ _______ _______ _____ _____    ______ ____
ROOT
ATOM      1  C   UNL     1       1.437  13.811  20.285  0.00  0.00    +0.000 C 
ATOM      2  C   UNL     1       0.135  14.470  20.792  0.00  0.00    +0.000 C 
ATOM      3  O   UNL     1      -0.679  13.839  21.465  0.00  0.00    +0.000 OA
ATOM      4  O   UNL     1      -0.139  15.717  20.343  0.00  0.00    +0.000 OA
ATOM      5  C   UNL     1       0.906  16.696  20.167  0.00  0.00    +0.000 C 
ATOM      6  C   UNL     1       2.284  16.142  20.151  0.00  0.00    +0.000 A 
ATOM      7  C   UNL     1       2.549  14.824  20.254  0.00  0.00    +0.000 A 
ATOM      8  C   UNL     1       3.927  14.380  20.376  0.00  0.00    +0.000 A 
ATOM      9  C   UNL     1       4.897  15.282  20.255  0.00  0.00    +0.000 A 
ATOM     10  N   UNL     1       4.664  16.606  20.011  0.00  0.00    +0.000 N 
ATOM     11  C   UNL     1       3.397  17.145  20.001  0.00  0.00    +0.000 A 
ATOM     12  O   UNL     1       3.158  18.338  19.856  0.00  0.00    +0.000 OA
ATOM     13  C   UNL     1       5.915  17.347  19.828  0.00  0.00    +0.000 C 
ATOM     14  C   UNL     1       6.937  16.236  19.671  0.00  0.00    +0.000 C 
ATOM     15  C   UNL     1       8.061  16.194  18.945  0.00  0.00    +0.000 C 
ATOM     16  C   UNL     1       8.643  17.427  18.305  0.00  0.00    +0.000 C 
ATOM     17  O   UNL     1       8.205  18.559  18.358  0.00  0.00    +0.000 OA
ATOM     18  N   UNL     1       9.788  16.993  17.659  0.00  0.00    +0.000 N 
ATOM     19  C   UNL     1       9.969  15.621  17.809  0.00  0.00    +0.000 A 
ATOM     20  C   UNL     1      10.992  14.860  17.274  0.00  0.00    +0.000 A 
ATOM     21  C   UNL     1      10.963  13.482  17.506  0.00  0.00    +0.000 A 
ATOM     22  C   UNL     1       9.910  12.910  18.233  0.00  0.00    +0.000 A 
ATOM     23 BR   UNL     1       9.873  11.039  18.521  0.00  0.00    +0.000 Br
ATOM     24  C   UNL     1       8.880  13.696  18.750  0.00  0.00    +0.000 A 
ATOM     25  C   UNL     1       8.934  15.070  18.570  0.00  0.00    +0.000 A 
ATOM     26  C   UNL     1       6.335  15.042  20.316  0.00  0.00    +0.000 C 
ATOM     27  O   UNL     1       6.887  14.119  20.874  0.00  0.00    +0.000 OA
ATOM     28  H   UNL     1      10.391  17.612  17.136  0.00  0.00    +0.000 HD
ENDROOT
BRANCH   1  30
ATOM     29  C   UNL     1       1.834  11.886  18.580  0.00  0.00    +0.000 C 
ATOM     30  C   UNL     1       1.111  13.188  18.906  0.00  0.00    +0.000 C 
ENDBRANCH   1  30
BRANCH   1  31
ATOM     31  O   UNL     1       1.796  12.753  21.183  0.00  0.00    +0.000 OA
ATOM     32  H   UNL     1       1.428  12.997  22.056  0.00  0.00    +0.000 HD
ENDBRANCH   1  31
TORSDOF 2
ENDMDL
MODEL 6
REMARK VINA RESULT:      -6.5      5.138      7.335
REMARK  Name = 
REMARK  3 active torsions:
REMARK  status: ('A' for Active; 'I' for Inactive)
REMARK    1  A    between atoms: C_1  and  C_2
REMARK    2  A    between atoms: C_2  and  C_3
REMARK    3  A    between atoms: C_3  and  O_4
REMARK                            x       y       z     vdW  Elec       q    Type
REMARK                         _______ _______ _______ _____ _____    ______ ____
ROOT
ATOM      1  C   UNL     1       1.555  15.583  21.714  0.00  0.00    +0.000 C 
ATOM      2  C   UNL     1       3.094  15.510  21.813  0.00  0.00    +0.000 C 
ATOM      3  O   UNL     1       3.686  15.872  22.829  0.00  0.00    +0.000 OA
ATOM      4  O   UNL     1       3.768  15.173  20.688  0.00  0.00    +0.000 OA
ATOM      5  C   UNL     1       3.256  14.175  19.779  0.00  0.00    +0.000 C 
ATOM      6  C   UNL     1       1.821  13.840  19.965  0.00  0.00    +0.000 A 
ATOM      7  C   UNL     1       1.037  14.441  20.882  0.00  0.00    +0.000 A 
ATOM      8  C   UNL     1      -0.315  13.953  21.096  0.00  0.00    +0.000 A 
ATOM      9  C   UNL     1      -0.782  13.005  20.289  0.00  0.00    +0.000 A 
ATOM     10  N   UNL     1      -0.058  12.473  19.259  0.00  0.00    +0.000 N 
ATOM     11  C   UNL     1       1.268  12.779  19.051  0.00  0.00    +0.000 A 
ATOM     12  O   UNL     1       1.964  12.266  18.182  0.00  0.00    +0.000 OA
ATOM     13  C   UNL     1      -0.854  11.522  18.478  0.00  0.00    +0.000 C 
ATOM     14  C   UNL     1      -2.264  11.787  18.972  0.00  0.00    +0.000 C 
ATOM     15  C   UNL     1      -3.434  11.712  18.325  0.00  0.00    +0.000 C 
ATOM     16  C   UNL     1      -3.552  11.079  16.964  0.00  0.00    +0.000 C 
ATOM     17  O   UNL     1      -2.662  10.579  16.305  0.00  0.00    +0.000 OA
ATOM     18  N   UNL     1      -4.892  11.180  16.633  0.00  0.00    +0.000 N 
ATOM     19  C   UNL     1      -5.616  11.827  17.631  0.00  0.00    +0.000 A 
ATOM     20  C   UNL     1      -6.968  12.116  17.615  0.00  0.00    +0.000 A 
ATOM     21  C   UNL     1      -7.493  12.818  18.703  0.00  0.00    +0.000 A 
ATOM     22  C   UNL     1      -6.655  13.229  19.750  0.00  0.00    +0.000 A 
ATOM     23 BR   UNL     1      -7.377  14.197  21.207  0.00  0.00    +0.000 Br
ATOM     24  C   UNL     1      -5.291  12.939  19.737  0.00  0.00    +0.000 A 
ATOM     25  C   UNL     1      -4.776  12.195  18.686  0.00  0.00    +0.000 A 
ATOM     26  C   UNL     1      -2.111  12.402  20.315  0.00  0.00    +0.000 C 
ATOM     27  O   UNL     1      -2.852  12.338  21.271  0.00  0.00    +0.000 OA
ATOM     28  H   UNL     1      -5.270  10.837  15.762  0.00  0.00    +0.000 HD
ENDROOT
BRANCH   1  30
ATOM     29  C   UNL     1       0.001  17.669  21.772  0.00  0.00    +0.000 C 
ATOM     30  C   UNL     1       1.212  16.983  21.150  0.00  0.00    +0.000 C 
ENDBRANCH   1  30
BRANCH   1  31
ATOM     31  O   UNL     1       1.005  15.483  23.034  0.00  0.00    +0.000 OA
ATOM     32  H   UNL     1       1.763  15.344  23.637  0.00  0.00    +0.000 HD
ENDBRANCH   1  31
TORSDOF 2
ENDMDL
MODEL 7
REMARK VINA RESULT:      -6.5      5.195      8.088
REMARK  Name = 
REMARK  3 active torsions:
REMARK  status: ('A' for Active; 'I' for Inactive)
REMARK    1  A    between atoms: C_1  and  C_2
REMARK    2  A    between atoms: C_2  and  C_3
REMARK    3  A    between atoms: C_3  and  O_4
REMARK                            x       y       z     vdW  Elec       q    Type
REMARK                         _______ _______ _______ _____ _____    ______ ____
ROOT
ATOM      1  C   UNL     1       9.428  13.520  17.989  0.00  0.00    +0.000 C 
ATOM      2  C   UNL     1      10.712  14.109  17.366  0.00  0.00    +0.000 C 
ATOM      3  O   UNL     1      11.412  13.446  16.600  0.00  0.00    +0.000 OA
ATOM      4  O   UNL     1      11.112  15.323  17.810  0.00  0.00    +0.000 OA
ATOM      5  C   UNL     1      10.156  16.362  18.113  0.00  0.00    +0.000 C 
ATOM      6  C   UNL     1       8.753  15.895  18.257  0.00  0.00    +0.000 A 
ATOM      7  C   UNL     1       8.393  14.600  18.154  0.00  0.00    +0.000 A 
ATOM      8  C   UNL     1       6.984  14.247  18.164  0.00  0.00    +0.000 A 
ATOM      9  C   UNL     1       6.092  15.205  18.402  0.00  0.00    +0.000 A 
ATOM     10  N   UNL     1       6.434  16.504  18.649  0.00  0.00    +0.000 N 
ATOM     11  C   UNL     1       7.729  16.962  18.541  0.00  0.00    +0.000 A 
ATOM     12  O   UNL     1       8.059  18.133  18.685  0.00  0.00    +0.000 OA
ATOM     13  C   UNL     1       5.260  17.317  18.974  0.00  0.00    +0.000 C 
ATOM     14  C   UNL     1       4.188  16.269  19.211  0.00  0.00    +0.000 C 
ATOM     15  C   UNL     1       3.142  16.278  20.047  0.00  0.00    +0.000 C 
ATOM     16  C   UNL     1       2.709  17.527  20.768  0.00  0.00    +0.000 C 
ATOM     17  O   UNL     1       3.213  18.631  20.695  0.00  0.00    +0.000 OA
ATOM     18  N   UNL     1       1.609  17.149  21.518  0.00  0.00    +0.000 N 
ATOM     19  C   UNL     1       1.325  15.795  21.359  0.00  0.00    +0.000 A 
ATOM     20  C   UNL     1       0.313  15.086  21.979  0.00  0.00    +0.000 A 
ATOM     21  C   UNL     1       0.228  13.716  21.717  0.00  0.00    +0.000 A 
ATOM     22  C   UNL     1       1.163  13.099  20.874  0.00  0.00    +0.000 A 
ATOM     23 BR   UNL     1       1.049  11.238  20.546  0.00  0.00    +0.000 Br
ATOM     24  C   UNL     1       2.186  13.832  20.272  0.00  0.00    +0.000 A 
ATOM     25  C   UNL     1       2.240  15.201  20.486  0.00  0.00    +0.000 A 
ATOM     26  C   UNL     1       4.643  15.058  18.484  0.00  0.00    +0.000 C 
ATOM     27  O   UNL     1       3.978  14.187  17.965  0.00  0.00    +0.000 OA
ATOM     28  H   UNL     1       1.104  17.790  22.113  0.00  0.00    +0.000 HD
ENDROOT
BRANCH   1  30
ATOM     29  C   UNL     1      10.156  11.349  19.225  0.00  0.00    +0.000 C 
ATOM     30  C   UNL     1       9.850  12.840  19.314  0.00  0.00    +0.000 C 
ENDBRANCH   1  30
BRANCH   1  31
ATOM     31  O   UNL     1       8.912  12.512  17.110  0.00  0.00    +0.000 OA
ATOM     32  H   UNL     1       8.865  11.688  17.635  0.00  0.00    +0.000 HD
ENDBRANCH   1  31
TORSDOF 2
ENDMDL
MODEL 8
REMARK VINA RESULT:      -6.5      3.540      5.675
REMARK  Name = 
REMARK  3 active torsions:
REMARK  status: ('A' for Active; 'I' for Inactive)
REMARK    1  A    between atoms: C_1  and  C_2
REMARK    2  A    between atoms: C_2  and  C_3
REMARK    3  A    between atoms: C_3  and  O_4
REMARK                            x       y       z     vdW  Elec       q    Type
REMARK                         _______ _______ _______ _____ _____    ______ ____
ROOT
ATOM      1  C   UNL     1       7.951  15.439  18.418  0.00  0.00    +0.000 C 
ATOM      2  C   UNL     1       8.838  16.703  18.444  0.00  0.00    +0.000 C 
ATOM      3  O   UNL     1       9.654  16.928  17.551  0.00  0.00    +0.000 OA
ATOM      4  O   UNL     1       8.785  17.471  19.557  0.00  0.00    +0.000 OA
ATOM      5  C   UNL     1       7.540  17.693  20.255  0.00  0.00    +0.000 C 
ATOM      6  C   UNL     1       6.447  16.753  19.896  0.00  0.00    +0.000 A 
ATOM      7  C   UNL     1       6.604  15.743  19.017  0.00  0.00    +0.000 A 
ATOM      8  C   UNL     1       5.448  14.960  18.614  0.00  0.00    +0.000 A 
ATOM      9  C   UNL     1       4.287  15.186  19.223  0.00  0.00    +0.000 A 
ATOM     10  N   UNL     1       4.128  16.109  20.217  0.00  0.00    +0.000 N 
ATOM     11  C   UNL     1       5.128  16.981  20.584  0.00  0.00    +0.000 A 
ATOM     12  O   UNL     1       4.996  17.867  21.421  0.00  0.00    +0.000 OA
ATOM     13  C   UNL     1       2.771  16.074  20.770  0.00  0.00    +0.000 C 
ATOM     14  C   UNL     1       2.216  14.781  20.202  0.00  0.00    +0.000 C 
ATOM     15  C   UNL     1       1.340  13.914  20.726  0.00  0.00    +0.000 C 
ATOM     16  C   UNL     1       0.538  14.239  21.959  0.00  0.00    +0.000 C 
ATOM     17  O   UNL     1       0.569  15.266  22.608  0.00  0.00    +0.000 OA
ATOM     18  N   UNL     1      -0.247  13.122  22.184  0.00  0.00    +0.000 N 
ATOM     19  C   UNL     1      -0.005  12.129  21.238  0.00  0.00    +0.000 A 
ATOM     20  C   UNL     1      -0.595  10.881  21.182  0.00  0.00    +0.000 A 
ATOM     21  C   UNL     1      -0.175  10.010  20.172  0.00  0.00    +0.000 A 
ATOM     22  C   UNL     1       0.833  10.400  19.278  0.00  0.00    +0.000 A 
ATOM     23 BR   UNL     1       1.408   9.202  17.930  0.00  0.00    +0.000 Br
ATOM     24  C   UNL     1       1.426  11.659  19.364  0.00  0.00    +0.000 A 
ATOM     25  C   UNL     1       0.972  12.546  20.329  0.00  0.00    +0.000 A 
ATOM     26  C   UNL     1       3.022  14.496  18.989  0.00  0.00    +0.000 C 
ATOM     27  O   UNL     1       2.693  13.923  17.974  0.00  0.00    +0.000 OA
ATOM     28  H   UNL     1      -0.895  13.052  22.956  0.00  0.00    +0.000 HD
ENDROOT
BRANCH   1  30
ATOM     29  C   UNL     1       9.279  13.205  18.284  0.00  0.00    +0.000 C 
ATOM     30  C   UNL     1       8.737  14.331  19.160  0.00  0.00    +0.000 C 
ENDBRANCH   1  30
BRANCH   1  31
ATOM     31  O   UNL     1       7.773  15.031  17.056  0.00  0.00    +0.000 OA
ATOM     32  H   UNL     1       8.666  14.831  16.710  0.00  0.00    +0.000 HD
ENDBRANCH   1  31
TORSDOF 2
ENDMDL
MODEL 9
REMARK VINA RESULT:      -6.5      4.141      6.564
REMARK  Name = 
REMARK  3 active torsions:
REMARK  status: ('A' for Active; 'I' for Inactive)
REMARK    1  A    between atoms: C_1  and  C_2
REMARK    2  A    between atoms: C_2  and  C_3
REMARK    3  A    between atoms: C_3  and  O_4
REMARK                            x       y       z     vdW  Elec       q    Type
REMARK                         _______ _______ _______ _____ _____    ______ ____
ROOT
ATOM      1  C   UNL     1       8.373  14.506  18.245  0.00  0.00    +0.000 C 
ATOM      2  C   UNL     1       9.496  15.541  18.020  0.00  0.00    +0.000 C 
ATOM      3  O   UNL     1      10.434  15.309  17.259  0.00  0.00    +0.000 OA
ATOM      4  O   UNL     1       9.482  16.645  18.802  0.00  0.00    +0.000 OA
ATOM      5  C   UNL     1       8.242  17.291  19.164  0.00  0.00    +0.000 C 
ATOM      6  C   UNL     1       7.023  16.473  18.938  0.00  0.00    +0.000 A 
ATOM      7  C   UNL     1       7.061  15.209  18.470  0.00  0.00    +0.000 A 
ATOM      8  C   UNL     1       5.819  14.531  18.143  0.00  0.00    +0.000 A 
ATOM      9  C   UNL     1       4.670  15.136  18.435  0.00  0.00    +0.000 A 
ATOM     10  N   UNL     1       4.599  16.360  19.038  0.00  0.00    +0.000 N 
ATOM     11  C   UNL     1       5.713  17.133  19.277  0.00  0.00    +0.000 A 
ATOM     12  O   UNL     1       5.678  18.263  19.750  0.00  0.00    +0.000 OA
ATOM     13  C   UNL     1       3.213  16.736  19.328  0.00  0.00    +0.000 C 
ATOM     14  C   UNL     1       2.465  15.433  19.115  0.00  0.00    +0.000 C 
ATOM     15  C   UNL     1       1.375  14.953  19.727  0.00  0.00    +0.000 C 
ATOM     16  C   UNL     1       0.528  15.809  20.631  0.00  0.00    +0.000 C 
ATOM     17  O   UNL     1       0.701  16.978  20.912  0.00  0.00    +0.000 OA
ATOM     18  N   UNL     1      -0.494  14.980  21.060  0.00  0.00    +0.000 N 
ATOM     19  C   UNL     1      -0.362  13.696  20.538  0.00  0.00    +0.000 A 
ATOM     20  C   UNL     1      -1.191  12.617  20.781  0.00  0.00    +0.000 A 
ATOM     21  C   UNL     1      -0.853  11.395  20.192  0.00  0.00    +0.000 A 
ATOM     22  C   UNL     1       0.306  11.284  19.411  0.00  0.00    +0.000 A 
ATOM     23 BR   UNL     1       0.762   9.617  18.638  0.00  0.00    +0.000 Br
ATOM     24  C   UNL     1       1.136  12.383  19.193  0.00  0.00    +0.000 A 
ATOM     25  C   UNL     1       0.775  13.610  19.729  0.00  0.00    +0.000 A 
ATOM     26  C   UNL     1       3.323  14.620  18.217  0.00  0.00    +0.000 C 
ATOM     27  O   UNL     1       2.995  13.790  17.396  0.00  0.00    +0.000 OA
ATOM     28  H   UNL     1      -1.223  15.287  21.688  0.00  0.00    +0.000 HD
ENDROOT
BRANCH   1  30
ATOM     29  C   UNL     1       9.535  12.319  19.045  0.00  0.00    +0.000 C 
ATOM     30  C   UNL     1       8.822  13.612  19.427  0.00  0.00    +0.000 C 
ENDBRANCH   1  30
BRANCH   1  31
ATOM     31  O   UNL     1       8.265  13.684  17.075  0.00  0.00    +0.000 OA
ATOM     32  H   UNL     1       8.970  13.980  16.466  0.00  0.00    +0.000 HD
ENDBRANCH   1  31
TORSDOF 2
ENDMDL
