MODEL 1
REMARK VINA RESULT:      -8.0      0.000      0.000
REMARK  Name = 
REMARK  7 active torsions:
REMARK  status: ('A' for Active; 'I' for Inactive)
REMARK    1  A    between atoms: C_1  and  C_2
REMARK    2  A    between atoms: C_2  and  C_3
REMARK    3  A    between atoms: C_2  and  C_4
REMARK    4  A    between atoms: C_2  and  N_5
REMARK    5  A    between atoms: C_6  and  C_8
REMARK    6  A    between atoms: C_11  and  C_12
REMARK    7  A    between atoms: C_17  and  C_18
REMARK                            x       y       z     vdW  Elec       q    Type
REMARK                         _______ _______ _______ _____ _____    ______ ____
ROOT
ATOM      1  C   UNL     1       1.135   8.114  20.376  0.00  0.00    +0.000 A 
ATOM      2  N   UNL     1       1.333   6.861  20.836  0.00  0.00    +0.000 NA
ATOM      3  N   UNL     1       2.180   6.272  19.938  0.00  0.00    +0.000 N 
ATOM      4  C   UNL     1       2.661   4.966  19.904  0.00  0.00    +0.000 A 
ATOM      5  C   UNL     1       3.455   4.568  18.886  0.00  0.00    +0.000 A 
ATOM      6  C   UNL     1       3.808   5.599  17.858  0.00  0.00    +0.000 A 
ATOM      7  N   UNL     1       3.361   6.818  17.887  0.00  0.00    +0.000 NA
ATOM      8  C   UNL     1       2.539   7.165  18.923  0.00  0.00    +0.000 A 
ATOM      9  C   UNL     1       1.894   8.339  19.210  0.00  0.00    +0.000 A 
ATOM     10 BR   UNL     1       1.992   9.909  18.184  0.00  0.00    +0.000 Br
ENDROOT
BRANCH   6  11
ATOM     11  C   UNL     1       4.714   5.180  16.745  0.00  0.00    +0.000 A 
ATOM     12  C   UNL     1       5.004   3.817  16.588  0.00  0.00    +0.000 A 
ATOM     13  C   UNL     1       5.828   3.386  15.544  0.00  0.00    +0.000 A 
ATOM     14  C   UNL     1       6.358   4.310  14.647  0.00  0.00    +0.000 A 
ATOM     15  C   UNL     1       6.065   5.666  14.791  0.00  0.00    +0.000 A 
ATOM     16  C   UNL     1       5.242   6.101  15.832  0.00  0.00    +0.000 A 
ENDBRANCH   6  11
BRANCH   1  18
ATOM     17  N   UNL     1       0.406  10.398  20.730  0.00  0.00    +0.000 N 
ATOM     18  C   UNL     1       0.214   9.060  21.031  0.00  0.00    +0.000 C 
ATOM     19  O   UNL     1      -0.653   8.683  21.812  0.00  0.00    +0.000 OA
ATOM     20  H   UNL     1       1.169  10.602  20.092  0.00  0.00    +0.000 HD
BRANCH  17  22
ATOM     21  C   UNL     1      -0.708  11.136  22.819  0.00  0.00    +0.000 C 
ATOM     22  C   UNL     1      -0.363  11.486  21.358  0.00  0.00    +0.000 C 
ATOM     23  C   UNL     1      -1.652  11.777  20.570  0.00  0.00    +0.000 C 
ATOM     24  C   UNL     1       0.481  12.774  21.373  0.00  0.00    +0.000 C 
ENDBRANCH  17  22
ENDBRANCH   1  18
BRANCH   4  25
ATOM     25  C   UNL     1       2.286   4.014  20.977  0.00  0.00    +0.000 C 
ATOM     26  F   UNL     1       2.565   4.391  22.245  0.00  0.00    +0.000 F 
ATOM     27  F   UNL     1       0.953   3.746  20.937  0.00  0.00    +0.000 F 
ATOM     28  F   UNL     1       2.908   2.816  20.789  0.00  0.00    +0.000 F 
ENDBRANCH   4  25
TORSDOF 4
ENDMDL
MODEL 2
REMARK VINA RESULT:      -7.9      0.084      1.105
REMARK  Name = 
REMARK  7 active torsions:
REMARK  status: ('A' for Active; 'I' for Inactive)
REMARK    1  A    between atoms: C_1  and  C_2
REMARK    2  A    between atoms: C_2  and  C_3
REMARK    3  A    between atoms: C_2  and  C_4
REMARK    4  A    between atoms: C_2  and  N_5
REMARK    5  A    between atoms: C_6  and  C_8
REMARK    6  A    between atoms: C_11  and  C_12
REMARK    7  A    between atoms: C_17  and  C_18
REMARK                            x       y       z     vdW  Elec       q    Type
REMARK                         _______ _______ _______ _____ _____    ______ ____
ROOT
ATOM      1  C   UNL     1       1.141   8.178  20.321  0.00  0.00    +0.000 A 
ATOM      2  N   UNL     1       1.325   6.923  20.783  0.00  0.00    +0.000 NA
ATOM      3  N   UNL     1       2.171   6.325  19.891  0.00  0.00    +0.000 N 
ATOM      4  C   UNL     1       2.640   5.014  19.861  0.00  0.00    +0.000 A 
ATOM      5  C   UNL     1       3.435   4.608  18.847  0.00  0.00    +0.000 A 
ATOM      6  C   UNL     1       3.803   5.633  17.820  0.00  0.00    +0.000 A 
ATOM      7  N   UNL     1       3.367   6.857  17.845  0.00  0.00    +0.000 NA
ATOM      8  C   UNL     1       2.544   7.213  18.876  0.00  0.00    +0.000 A 
ATOM      9  C   UNL     1       1.909   8.393  19.159  0.00  0.00    +0.000 A 
ATOM     10 BR   UNL     1       2.028   9.962  18.132  0.00  0.00    +0.000 Br
ENDROOT
BRANCH   6  11
ATOM     11  C   UNL     1       4.710   5.205  16.712  0.00  0.00    +0.000 A 
ATOM     12  C   UNL     1       5.022   3.844  16.584  0.00  0.00    +0.000 A 
ATOM     13  C   UNL     1       5.848   3.403  15.546  0.00  0.00    +0.000 A 
ATOM     14  C   UNL     1       6.359   4.315  14.626  0.00  0.00    +0.000 A 
ATOM     15  C   UNL     1       6.045   5.669  14.741  0.00  0.00    +0.000 A 
ATOM     16  C   UNL     1       5.219   6.114  15.775  0.00  0.00    +0.000 A 
ENDBRANCH   6  11
BRANCH   1  18
ATOM     17  N   UNL     1       0.458  10.472  20.700  0.00  0.00    +0.000 N 
ATOM     18  C   UNL     1       0.227   9.133  20.970  0.00  0.00    +0.000 C 
ATOM     19  O   UNL     1      -0.670   8.762  21.721  0.00  0.00    +0.000 OA
ATOM     20  H   UNL     1       1.242  10.669  20.086  0.00  0.00    +0.000 HD
BRANCH  17  22
ATOM     21  C   UNL     1       0.515  12.873  21.316  0.00  0.00    +0.000 C 
ATOM     22  C   UNL     1      -0.301  11.566  21.330  0.00  0.00    +0.000 C 
ATOM     23  C   UNL     1      -0.690  11.207  22.775  0.00  0.00    +0.000 C 
ATOM     24  C   UNL     1      -1.599  11.816  20.541  0.00  0.00    +0.000 C 
ENDBRANCH  17  22
ENDBRANCH   1  18
BRANCH   4  25
ATOM     25  C   UNL     1       2.249   4.068  20.933  0.00  0.00    +0.000 C 
ATOM     26  F   UNL     1       0.934   3.775  21.031  0.00  0.00    +0.000 F 
ATOM     27  F   UNL     1       2.901   2.882  20.789  0.00  0.00    +0.000 F 
ATOM     28  F   UNL     1       2.627   4.549  22.152  0.00  0.00    +0.000 F 
ENDBRANCH   4  25
TORSDOF 4
ENDMDL
MODEL 3
REMARK VINA RESULT:      -7.8      0.091      1.444
REMARK  Name = 
REMARK  7 active torsions:
REMARK  status: ('A' for Active; 'I' for Inactive)
REMARK    1  A    between atoms: C_1  and  C_2
REMARK    2  A    between atoms: C_2  and  C_3
REMARK    3  A    between atoms: C_2  and  C_4
REMARK    4  A    between atoms: C_2  and  N_5
REMARK    5  A    between atoms: C_6  and  C_8
REMARK    6  A    between atoms: C_11  and  C_12
REMARK    7  A    between atoms: C_17  and  C_18
REMARK                            x       y       z     vdW  Elec       q    Type
REMARK                         _______ _______ _______ _____ _____    ______ ____
ROOT
ATOM      1  C   UNL     1       1.145   8.168  20.351  0.00  0.00    +0.000 A 
ATOM      2  N   UNL     1       1.318   6.909  20.803  0.00  0.00    +0.000 NA
ATOM      3  N   UNL     1       2.156   6.309  19.904  0.00  0.00    +0.000 N 
ATOM      4  C   UNL     1       2.613   4.995  19.863  0.00  0.00    +0.000 A 
ATOM      5  C   UNL     1       3.402   4.589  18.844  0.00  0.00    +0.000 A 
ATOM      6  C   UNL     1       3.778   5.619  17.824  0.00  0.00    +0.000 A 
ATOM      7  N   UNL     1       3.353   6.847  17.860  0.00  0.00    +0.000 NA
ATOM      8  C   UNL     1       2.535   7.202  18.896  0.00  0.00    +0.000 A 
ATOM      9  C   UNL     1       1.912   8.386  19.189  0.00  0.00    +0.000 A 
ATOM     10 BR   UNL     1       2.043   9.961  18.174  0.00  0.00    +0.000 Br
ENDROOT
BRANCH   6  11
ATOM     11  C   UNL     1       4.678   5.191  16.711  0.00  0.00    +0.000 A 
ATOM     12  C   UNL     1       5.231   6.172  15.875  0.00  0.00    +0.000 A 
ATOM     13  C   UNL     1       6.096   5.811  14.839  0.00  0.00    +0.000 A 
ATOM     14  C   UNL     1       6.421   4.471  14.635  0.00  0.00    +0.000 A 
ATOM     15  C   UNL     1       5.882   3.491  15.469  0.00  0.00    +0.000 A 
ATOM     16  C   UNL     1       5.019   3.848  16.507  0.00  0.00    +0.000 A 
ENDBRANCH   6  11
BRANCH   1  18
ATOM     17  N   UNL     1       0.418  10.458  20.672  0.00  0.00    +0.000 N 
ATOM     18  C   UNL     1       0.240   9.127  21.010  0.00  0.00    +0.000 C 
ATOM     19  O   UNL     1      -0.603   8.766  21.825  0.00  0.00    +0.000 OA
ATOM     20  H   UNL     1       1.162  10.649  20.007  0.00  0.00    +0.000 HD
BRANCH  17  22
ATOM     21  C   UNL     1      -1.656  11.811  20.543  0.00  0.00    +0.000 C 
ATOM     22  C   UNL     1      -0.336  11.558  21.296  0.00  0.00    +0.000 C 
ATOM     23  C   UNL     1       0.502  12.849  21.334  0.00  0.00    +0.000 C 
ATOM     24  C   UNL     1      -0.689  11.185  22.748  0.00  0.00    +0.000 C 
ENDBRANCH  17  22
ENDBRANCH   1  18
BRANCH   4  25
ATOM     25  C   UNL     1       2.216   4.044  20.929  0.00  0.00    +0.000 C 
ATOM     26  F   UNL     1       0.902   3.742  21.011  0.00  0.00    +0.000 F 
ATOM     27  F   UNL     1       2.877   2.862  20.789  0.00  0.00    +0.000 F 
ATOM     28  F   UNL     1       2.577   4.525  22.153  0.00  0.00    +0.000 F 
ENDBRANCH   4  25
TORSDOF 4
ENDMDL
MODEL 4
REMARK VINA RESULT:      -7.8      0.488      1.194
REMARK  Name = 
REMARK  7 active torsions:
REMARK  status: ('A' for Active; 'I' for Inactive)
REMARK    1  A    between atoms: C_1  and  C_2
REMARK    2  A    between atoms: C_2  and  C_3
REMARK    3  A    between atoms: C_2  and  C_4
REMARK    4  A    between atoms: C_2  and  N_5
REMARK    5  A    between atoms: C_6  and  C_8
REMARK    6  A    between atoms: C_11  and  C_12
REMARK    7  A    between atoms: C_17  and  C_18
REMARK                            x       y       z     vdW  Elec       q    Type
REMARK                         _______ _______ _______ _____ _____    ______ ____
ROOT
ATOM      1  C   UNL     1       1.171   8.116  20.321  0.00  0.00    +0.000 A 
ATOM      2  N   UNL     1       1.364   6.862  20.781  0.00  0.00    +0.000 NA
ATOM      3  N   UNL     1       2.261   6.290  19.922  0.00  0.00    +0.000 N 
ATOM      4  C   UNL     1       2.761   4.991  19.903  0.00  0.00    +0.000 A 
ATOM      5  C   UNL     1       3.608   4.612  18.922  0.00  0.00    +0.000 A 
ATOM      6  C   UNL     1       3.998   5.654  17.920  0.00  0.00    +0.000 A 
ATOM      7  N   UNL     1       3.533   6.867  17.935  0.00  0.00    +0.000 NA
ATOM      8  C   UNL     1       2.657   7.196  18.932  0.00  0.00    +0.000 A 
ATOM      9  C   UNL     1       1.984   8.359  19.195  0.00  0.00    +0.000 A 
ATOM     10 BR   UNL     1       2.111   9.938  18.186  0.00  0.00    +0.000 Br
ENDROOT
BRANCH   6  11
ATOM     11  C   UNL     1       4.962   5.256  16.849  0.00  0.00    +0.000 A 
ATOM     12  C   UNL     1       6.220   5.874  16.811  0.00  0.00    +0.000 A 
ATOM     13  C   UNL     1       7.156   5.509  15.838  0.00  0.00    +0.000 A 
ATOM     14  C   UNL     1       6.845   4.522  14.906  0.00  0.00    +0.000 A 
ATOM     15  C   UNL     1       5.599   3.896  14.945  0.00  0.00    +0.000 A 
ATOM     16  C   UNL     1       4.662   4.256  15.916  0.00  0.00    +0.000 A 
ENDBRANCH   6  11
BRANCH   1  18
ATOM     17  N   UNL     1       0.472  10.393  20.766  0.00  0.00    +0.000 N 
ATOM     18  C   UNL     1       0.207   9.044  20.937  0.00  0.00    +0.000 C 
ATOM     19  O   UNL     1      -0.758   8.644  21.580  0.00  0.00    +0.000 OA
ATOM     20  H   UNL     1       1.311  10.615  20.239  0.00  0.00    +0.000 HD
BRANCH  17  22
ATOM     21  C   UNL     1       0.451  12.785  21.419  0.00  0.00    +0.000 C 
ATOM     22  C   UNL     1      -0.334  11.460  21.384  0.00  0.00    +0.000 C 
ATOM     23  C   UNL     1      -0.766  11.069  22.809  0.00  0.00    +0.000 C 
ATOM     24  C   UNL     1      -1.609  11.692  20.554  0.00  0.00    +0.000 C 
ENDBRANCH  17  22
ENDBRANCH   1  18
BRANCH   4  25
ATOM     25  C   UNL     1       2.346   4.027  20.950  0.00  0.00    +0.000 C 
ATOM     26  F   UNL     1       2.561   4.396  22.232  0.00  0.00    +0.000 F 
ATOM     27  F   UNL     1       1.019   3.744  20.845  0.00  0.00    +0.000 F 
ATOM     28  F   UNL     1       2.990   2.837  20.781  0.00  0.00    +0.000 F 
ENDBRANCH   4  25
TORSDOF 4
ENDMDL
MODEL 5
REMARK VINA RESULT:      -7.6      1.999      2.998
REMARK  Name = 
REMARK  7 active torsions:
REMARK  status: ('A' for Active; 'I' for Inactive)
REMARK    1  A    between atoms: C_1  and  C_2
REMARK    2  A    between atoms: C_2  and  C_3
REMARK    3  A    between atoms: C_2  and  C_4
REMARK    4  A    between atoms: C_2  and  N_5
REMARK    5  A    between atoms: C_6  and  C_8
REMARK    6  A    between atoms: C_11  and  C_12
REMARK    7  A    between atoms: C_17  and  C_18
REMARK                            x       y       z     vdW  Elec       q    Type
REMARK                         _______ _______ _______ _____ _____    ______ ____
ROOT
ATOM      1  C   UNL     1       2.536   6.097  19.381  0.00  0.00    +0.000 A 
ATOM      2  N   UNL     1       2.787   4.774  19.468  0.00  0.00    +0.000 NA
ATOM      3  N   UNL     1       3.537   4.470  18.366  0.00  0.00    +0.000 N 
ATOM      4  C   UNL     1       4.018   3.236  17.938  0.00  0.00    +0.000 A 
ATOM      5  C   UNL     1       4.702   3.147  16.776  0.00  0.00    +0.000 A 
ATOM      6  C   UNL     1       4.941   4.423  16.030  0.00  0.00    +0.000 A 
ATOM      7  N   UNL     1       4.493   5.576  16.427  0.00  0.00    +0.000 NA
ATOM      8  C   UNL     1       3.784   5.611  17.594  0.00  0.00    +0.000 A 
ATOM      9  C   UNL     1       3.168   6.646  18.246  0.00  0.00    +0.000 A 
ATOM     10 BR   UNL     1       3.151   8.434  17.671  0.00  0.00    +0.000 Br
ENDROOT
BRANCH   6  11
ATOM     11  C   UNL     1       5.726   4.343  14.760  0.00  0.00    +0.000 A 
ATOM     12  C   UNL     1       5.208   3.595  13.693  0.00  0.00    +0.000 A 
ATOM     13  C   UNL     1       5.903   3.516  12.483  0.00  0.00    +0.000 A 
ATOM     14  C   UNL     1       7.113   4.190  12.328  0.00  0.00    +0.000 A 
ATOM     15  C   UNL     1       7.629   4.944  13.382  0.00  0.00    +0.000 A 
ATOM     16  C   UNL     1       6.937   5.026  14.593  0.00  0.00    +0.000 A 
ENDBRANCH   6  11
BRANCH   1  18
ATOM     17  N   UNL     1       1.611   8.181  20.203  0.00  0.00    +0.000 N 
ATOM     18  C   UNL     1       1.685   6.806  20.352  0.00  0.00    +0.000 C 
ATOM     19  O   UNL     1       1.097   6.214  21.252  0.00  0.00    +0.000 OA
ATOM     20  H   UNL     1       2.158   8.572  19.442  0.00  0.00    +0.000 HD
BRANCH  17  22
ATOM     21  C   UNL     1       0.692  10.461  20.527  0.00  0.00    +0.000 C 
ATOM     22  C   UNL     1       0.881   9.057  21.134  0.00  0.00    +0.000 C 
ATOM     23  C   UNL     1       1.615   9.164  22.483  0.00  0.00    +0.000 C 
ATOM     24  C   UNL     1      -0.518   8.473  21.405  0.00  0.00    +0.000 C 
ENDBRANCH  17  22
ENDBRANCH   1  18
BRANCH   4  25
ATOM     25  C   UNL     1       3.761   2.023  18.751  0.00  0.00    +0.000 C 
ATOM     26  F   UNL     1       2.494   1.843  19.185  0.00  0.00    +0.000 F 
ATOM     27  F   UNL     1       4.097   0.900  18.060  0.00  0.00    +0.000 F 
ATOM     28  F   UNL     1       4.550   2.021  19.863  0.00  0.00    +0.000 F 
ENDBRANCH   4  25
TORSDOF 4
ENDMDL
MODEL 6
REMARK VINA RESULT:      -7.6      1.993      2.898
REMARK  Name = 
REMARK  7 active torsions:
REMARK  status: ('A' for Active; 'I' for Inactive)
REMARK    1  A    between atoms: C_1  and  C_2
REMARK    2  A    between atoms: C_2  and  C_3
REMARK    3  A    between atoms: C_2  and  C_4
REMARK    4  A    between atoms: C_2  and  N_5
REMARK    5  A    between atoms: C_6  and  C_8
REMARK    6  A    between atoms: C_11  and  C_12
REMARK    7  A    between atoms: C_17  and  C_18
REMARK                            x       y       z     vdW  Elec       q    Type
REMARK                         _______ _______ _______ _____ _____    ______ ____
ROOT
ATOM      1  C   UNL     1       2.577   6.121  19.392  0.00  0.00    +0.000 A 
ATOM      2  N   UNL     1       2.833   4.799  19.484  0.00  0.00    +0.000 NA
ATOM      3  N   UNL     1       3.576   4.493  18.377  0.00  0.00    +0.000 N 
ATOM      4  C   UNL     1       4.057   3.258  17.951  0.00  0.00    +0.000 A 
ATOM      5  C   UNL     1       4.732   3.167  16.784  0.00  0.00    +0.000 A 
ATOM      6  C   UNL     1       4.961   4.440  16.030  0.00  0.00    +0.000 A 
ATOM      7  N   UNL     1       4.513   5.594  16.426  0.00  0.00    +0.000 NA
ATOM      8  C   UNL     1       3.813   5.631  17.598  0.00  0.00    +0.000 A 
ATOM      9  C   UNL     1       3.198   6.667  18.251  0.00  0.00    +0.000 A 
ATOM     10 BR   UNL     1       3.171   8.452  17.668  0.00  0.00    +0.000 Br
ENDROOT
BRANCH   6  11
ATOM     11  C   UNL     1       5.737   4.357  14.755  0.00  0.00    +0.000 A 
ATOM     12  C   UNL     1       5.213   3.602  13.695  0.00  0.00    +0.000 A 
ATOM     13  C   UNL     1       5.899   3.521  12.480  0.00  0.00    +0.000 A 
ATOM     14  C   UNL     1       7.105   4.198  12.313  0.00  0.00    +0.000 A 
ATOM     15  C   UNL     1       7.627   4.958  13.359  0.00  0.00    +0.000 A 
ATOM     16  C   UNL     1       6.944   5.043  14.575  0.00  0.00    +0.000 A 
ENDBRANCH   6  11
BRANCH   1  18
ATOM     17  N   UNL     1       1.610   8.199  20.182  0.00  0.00    +0.000 N 
ATOM     18  C   UNL     1       1.732   6.831  20.367  0.00  0.00    +0.000 C 
ATOM     19  O   UNL     1       1.188   6.248  21.300  0.00  0.00    +0.000 OA
ATOM     20  H   UNL     1       2.123   8.583  19.394  0.00  0.00    +0.000 HD
BRANCH  17  22
ATOM     21  C   UNL     1       1.640   9.222  22.440  0.00  0.00    +0.000 C 
ATOM     22  C   UNL     1       0.878   9.079  21.108  0.00  0.00    +0.000 C 
ATOM     23  C   UNL     1      -0.541   8.544  21.371  0.00  0.00    +0.000 C 
ATOM     24  C   UNL     1       0.745  10.483  20.491  0.00  0.00    +0.000 C 
ENDBRANCH  17  22
ENDBRANCH   1  18
BRANCH   4  25
ATOM     25  C   UNL     1       3.811   2.048  18.771  0.00  0.00    +0.000 C 
ATOM     26  F   UNL     1       4.125   0.861  18.208  0.00  0.00    +0.000 F 
ATOM     27  F   UNL     1       4.497   2.114  19.944  0.00  0.00    +0.000 F 
ATOM     28  F   UNL     1       2.494   1.971  19.119  0.00  0.00    +0.000 F 
ENDBRANCH   4  25
TORSDOF 4
ENDMDL
MODEL 7
REMARK VINA RESULT:      -7.6      1.994      2.874
REMARK  Name = 
REMARK  7 active torsions:
REMARK  status: ('A' for Active; 'I' for Inactive)
REMARK    1  A    between atoms: C_1  and  C_2
REMARK    2  A    between atoms: C_2  and  C_3
REMARK    3  A    between atoms: C_2  and  C_4
REMARK    4  A    between atoms: C_2  and  N_5
REMARK    5  A    between atoms: C_6  and  C_8
REMARK    6  A    between atoms: C_11  and  C_12
REMARK    7  A    between atoms: C_17  and  C_18
REMARK                            x       y       z     vdW  Elec       q    Type
REMARK                         _______ _______ _______ _____ _____    ______ ____
ROOT
ATOM      1  C   UNL     1       2.538   6.106  19.407  0.00  0.00    +0.000 A 
ATOM      2  N   UNL     1       2.809   4.787  19.497  0.00  0.00    +0.000 NA
ATOM      3  N   UNL     1       3.544   4.488  18.383  0.00  0.00    +0.000 N 
ATOM      4  C   UNL     1       4.034   3.258  17.953  0.00  0.00    +0.000 A 
ATOM      5  C   UNL     1       4.698   3.172  16.780  0.00  0.00    +0.000 A 
ATOM      6  C   UNL     1       4.907   4.447  16.023  0.00  0.00    +0.000 A 
ATOM      7  N   UNL     1       4.450   5.596  16.421  0.00  0.00    +0.000 NA
ATOM      8  C   UNL     1       3.761   5.627  17.601  0.00  0.00    +0.000 A 
ATOM      9  C   UNL     1       3.142   6.657  18.258  0.00  0.00    +0.000 A 
ATOM     10 BR   UNL     1       3.091   8.442  17.674  0.00  0.00    +0.000 Br
ENDROOT
BRANCH   6  11
ATOM     11  C   UNL     1       5.670   4.370  14.740  0.00  0.00    +0.000 A 
ATOM     12  C   UNL     1       6.889   5.055  14.639  0.00  0.00    +0.000 A 
ATOM     13  C   UNL     1       7.643   4.987  13.464  0.00  0.00    +0.000 A 
ATOM     14  C   UNL     1       7.188   4.229  12.387  0.00  0.00    +0.000 A 
ATOM     15  C   UNL     1       5.981   3.536  12.484  0.00  0.00    +0.000 A 
ATOM     16  C   UNL     1       5.226   3.600  13.657  0.00  0.00    +0.000 A 
ENDBRANCH   6  11
BRANCH   1  18
ATOM     17  N   UNL     1       1.623   8.185  20.252  0.00  0.00    +0.000 N 
ATOM     18  C   UNL     1       1.695   6.809  20.389  0.00  0.00    +0.000 C 
ATOM     19  O   UNL     1       1.112   6.210  21.288  0.00  0.00    +0.000 OA
ATOM     20  H   UNL     1       2.165   8.581  19.490  0.00  0.00    +0.000 HD
BRANCH  17  22
ATOM     21  C   UNL     1       1.683   9.200  22.513  0.00  0.00    +0.000 C 
ATOM     22  C   UNL     1       0.899   9.055  21.194  0.00  0.00    +0.000 C 
ATOM     23  C   UNL     1      -0.511   8.508  21.479  0.00  0.00    +0.000 C 
ATOM     24  C   UNL     1       0.744  10.461  20.586  0.00  0.00    +0.000 C 
ENDBRANCH  17  22
ENDBRANCH   1  18
BRANCH   4  25
ATOM     25  C   UNL     1       3.808   2.046  18.777  0.00  0.00    +0.000 C 
ATOM     26  F   UNL     1       4.492   1.969  19.940  0.00  0.00    +0.000 F 
ATOM     27  F   UNL     1       2.491   1.918  19.094  0.00  0.00    +0.000 F 
ATOM     28  F   UNL     1       4.127   0.925  18.070  0.00  0.00    +0.000 F 
ENDBRANCH   4  25
TORSDOF 4
ENDMDL
MODEL 8
REMARK VINA RESULT:      -7.5      3.551      7.614
REMARK  Name = 
REMARK  7 active torsions:
REMARK  status: ('A' for Active; 'I' for Inactive)
REMARK    1  A    between atoms: C_1  and  C_2
REMARK    2  A    between atoms: C_2  and  C_3
REMARK    3  A    between atoms: C_2  and  C_4
REMARK    4  A    between atoms: C_2  and  N_5
REMARK    5  A    between atoms: C_6  and  C_8
REMARK    6  A    between atoms: C_11  and  C_12
REMARK    7  A    between atoms: C_17  and  C_18
REMARK                            x       y       z     vdW  Elec       q    Type
REMARK                         _______ _______ _______ _____ _____    ______ ____
ROOT
ATOM      1  C   UNL     1       1.843   7.188  20.106  0.00  0.00    +0.000 A 
ATOM      2  N   UNL     1       1.122   7.652  21.148  0.00  0.00    +0.000 NA
ATOM      3  N   UNL     1       0.938   8.984  20.901  0.00  0.00    +0.000 N 
ATOM      4  C   UNL     1       0.312   9.950  21.685  0.00  0.00    +0.000 A 
ATOM      5  C   UNL     1       0.288  11.237  21.274  0.00  0.00    +0.000 A 
ATOM      6  C   UNL     1       0.914  11.538  19.948  0.00  0.00    +0.000 A 
ATOM      7  N   UNL     1       1.499  10.640  19.214  0.00  0.00    +0.000 NA
ATOM      8  C   UNL     1       1.521   9.357  19.685  0.00  0.00    +0.000 A 
ATOM      9  C   UNL     1       2.077   8.216  19.170  0.00  0.00    +0.000 A 
ATOM     10 BR   UNL     1       3.011   8.102  17.544  0.00  0.00    +0.000 Br
ENDROOT
BRANCH   6  11
ATOM     11  C   UNL     1       0.862  12.953  19.467  0.00  0.00    +0.000 A 
ATOM     12  C   UNL     1       2.062  13.590  19.118  0.00  0.00    +0.000 A 
ATOM     13  C   UNL     1       2.050  14.904  18.642  0.00  0.00    +0.000 A 
ATOM     14  C   UNL     1       0.843  15.586  18.503  0.00  0.00    +0.000 A 
ATOM     15  C   UNL     1      -0.354  14.954  18.839  0.00  0.00    +0.000 A 
ATOM     16  C   UNL     1      -0.348  13.641  19.313  0.00  0.00    +0.000 A 
ENDBRANCH   6  11
BRANCH   1  18
ATOM     17  N   UNL     1       1.331   4.821  20.005  0.00  0.00    +0.000 N 
ATOM     18  C   UNL     1       2.315   5.795  20.030  0.00  0.00    +0.000 C 
ATOM     19  O   UNL     1       3.510   5.516  20.014  0.00  0.00    +0.000 OA
ATOM     20  H   UNL     1       0.374   5.160  20.049  0.00  0.00    +0.000 HD
BRANCH  17  22
ATOM     21  C   UNL     1       1.571   2.825  21.457  0.00  0.00    +0.000 C 
ATOM     22  C   UNL     1       1.620   3.377  20.019  0.00  0.00    +0.000 C 
ATOM     23  C   UNL     1       2.995   3.085  19.391  0.00  0.00    +0.000 C 
ATOM     24  C   UNL     1       0.558   2.629  19.194  0.00  0.00    +0.000 C 
ENDBRANCH  17  22
ENDBRANCH   1  18
BRANCH   4  25
ATOM     25  C   UNL     1      -0.309   9.562  22.974  0.00  0.00    +0.000 C 
ATOM     26  F   UNL     1       0.534   9.276  23.990  0.00  0.00    +0.000 F 
ATOM     27  F   UNL     1      -1.138  10.544  23.423  0.00  0.00    +0.000 F 
ATOM     28  F   UNL     1      -1.098   8.462  22.809  0.00  0.00    +0.000 F 
ENDBRANCH   4  25
TORSDOF 4
ENDMDL
MODEL 9
REMARK VINA RESULT:      -7.5      1.965      2.969
REMARK  Name = 
REMARK  7 active torsions:
REMARK  status: ('A' for Active; 'I' for Inactive)
REMARK    1  A    between atoms: C_1  and  C_2
REMARK    2  A    between atoms: C_2  and  C_3
REMARK    3  A    between atoms: C_2  and  C_4
REMARK    4  A    between atoms: C_2  and  N_5
REMARK    5  A    between atoms: C_6  and  C_8
REMARK    6  A    between atoms: C_11  and  C_12
REMARK    7  A    between atoms: C_17  and  C_18
REMARK                            x       y       z     vdW  Elec       q    Type
REMARK                         _______ _______ _______ _____ _____    ______ ____
ROOT
ATOM      1  C   UNL     1       2.530   6.132  19.407  0.00  0.00    +0.000 A 
ATOM      2  N   UNL     1       2.808   4.815  19.506  0.00  0.00    +0.000 NA
ATOM      3  N   UNL     1       3.545   4.512  18.395  0.00  0.00    +0.000 N 
ATOM      4  C   UNL     1       4.042   3.282  17.973  0.00  0.00    +0.000 A 
ATOM      5  C   UNL     1       4.707   3.193  16.800  0.00  0.00    +0.000 A 
ATOM      6  C   UNL     1       4.909   4.463  16.035  0.00  0.00    +0.000 A 
ATOM      7  N   UNL     1       4.447   5.613  16.426  0.00  0.00    +0.000 NA
ATOM      8  C   UNL     1       3.757   5.648  17.606  0.00  0.00    +0.000 A 
ATOM      9  C   UNL     1       3.133   6.679  18.256  0.00  0.00    +0.000 A 
ATOM     10 BR   UNL     1       3.072   8.460  17.660  0.00  0.00    +0.000 Br
ENDROOT
BRANCH   6  11
ATOM     11  C   UNL     1       5.674   4.382  14.754  0.00  0.00    +0.000 A 
ATOM     12  C   UNL     1       6.891   5.071  14.650  0.00  0.00    +0.000 A 
ATOM     13  C   UNL     1       7.646   4.998  13.475  0.00  0.00    +0.000 A 
ATOM     14  C   UNL     1       7.194   4.234  12.402  0.00  0.00    +0.000 A 
ATOM     15  C   UNL     1       5.989   3.539  12.502  0.00  0.00    +0.000 A 
ATOM     16  C   UNL     1       5.233   3.606  13.674  0.00  0.00    +0.000 A 
ENDBRANCH   6  11
BRANCH   1  18
ATOM     17  N   UNL     1       1.607   8.212  20.241  0.00  0.00    +0.000 N 
ATOM     18  C   UNL     1       1.683   6.837  20.385  0.00  0.00    +0.000 C 
ATOM     19  O   UNL     1       1.100   6.241  21.285  0.00  0.00    +0.000 OA
ATOM     20  H   UNL     1       2.150   8.606  19.478  0.00  0.00    +0.000 HD
BRANCH  17  22
ATOM     21  C   UNL     1      -0.507   8.497  21.505  0.00  0.00    +0.000 C 
ATOM     22  C   UNL     1       0.880   9.085  21.178  0.00  0.00    +0.000 C 
ATOM     23  C   UNL     1       0.725  10.504  20.604  0.00  0.00    +0.000 C 
ATOM     24  C   UNL     1       1.665   9.194  22.498  0.00  0.00    +0.000 C 
ENDBRANCH  17  22
ENDBRANCH   1  18
BRANCH   4  25
ATOM     25  C   UNL     1       3.822   2.075  18.804  0.00  0.00    +0.000 C 
ATOM     26  F   UNL     1       4.102   0.885  18.229  0.00  0.00    +0.000 F 
ATOM     27  F   UNL     1       4.559   2.136  19.946  0.00  0.00    +0.000 F 
ATOM     28  F   UNL     1       2.521   2.008  19.209  0.00  0.00    +0.000 F 
ENDBRANCH   4  25
TORSDOF 4
ENDMDL
