MODEL 1
REMARK VINA RESULT:      -8.5      0.000      0.000
REMARK  Name = 
REMARK  5 active torsions:
REMARK  status: ('A' for Active; 'I' for Inactive)
REMARK    1  A    between atoms: C_1  and  C_2
REMARK    2  A    between atoms: C_2  and  C_3
REMARK    3  A    between atoms: C_2  and  C_4
REMARK    4  A    between atoms: N_18  and  S_19
REMARK    5  A    between atoms: S_19  and  C_22
REMARK                            x       y       z     vdW  Elec       q    Type
REMARK                         _______ _______ _______ _____ _____    ______ ____
ROOT
ATOM      1  C   UNL     1       2.402   4.417  19.732  0.00  0.00    +0.000 A 
ATOM      2  N   UNL     1       1.820   5.583  19.931  0.00  0.00    +0.000 NA
ATOM      3  C   UNL     1       2.436   6.505  19.108  0.00  0.00    +0.000 A 
ATOM      4  C   UNL     1       2.196   7.910  18.976  0.00  0.00    +0.000 A 
ATOM      5  N   UNL     1       1.238   8.605  19.712  0.00  0.00    +0.000 N 
ATOM      6  C   UNL     1       1.061  10.035  19.415  0.00  0.00    +0.000 C 
ATOM      7  C   UNL     1      -0.324  10.481  19.945  0.00  0.00    +0.000 C 
ATOM      8  N   UNL     1      -0.523  10.222  21.388  0.00  0.00    +0.000 NA
ATOM      9  C   UNL     1      -0.232   8.802  21.678  0.00  0.00    +0.000 C 
ATOM     10  C   UNL     1       1.143   8.322  21.155  0.00  0.00    +0.000 C 
ATOM     11  N   UNL     1       2.904   8.567  18.006  0.00  0.00    +0.000 NA
ATOM     12  C   UNL     1       3.809   7.910  17.247  0.00  0.00    +0.000 A 
ATOM     13  C   UNL     1       4.109   6.562  17.342  0.00  0.00    +0.000 A 
ATOM     14  C   UNL     1       3.393   5.864  18.316  0.00  0.00    +0.000 A 
ATOM     15  N   UNL     1       3.396   4.559  18.783  0.00  0.00    +0.000 N 
ATOM     16  H   UNL     1      -1.497  10.408  21.622  0.00  0.00    +0.000 HD
ENDROOT
BRANCH   1  18
ATOM     17  C   UNL     1       2.158   3.392  21.997  0.00  0.00    +0.000 C 
ATOM     18  C   UNL     1       2.017   3.173  20.487  0.00  0.00    +0.000 C 
ATOM     19  C   UNL     1       0.561   2.787  20.181  0.00  0.00    +0.000 C 
ENDBRANCH   1  18
BRANCH  15  20
ATOM     20  S   UNL     1       4.441   3.341  18.240  0.00  0.00    +0.000 S 
ATOM     21  O   UNL     1       5.281   2.996  19.376  0.00  0.00    +0.000 OA
ATOM     22  O   UNL     1       3.618   2.337  17.595  0.00  0.00    +0.000 OA
BRANCH  20  23
ATOM     23  C   UNL     1       5.511   3.988  16.992  0.00  0.00    +0.000 A 
ATOM     24  C   UNL     1       6.621   4.787  17.273  0.00  0.00    +0.000 A 
ATOM     25  C   UNL     1       7.385   5.284  16.212  0.00  0.00    +0.000 A 
ATOM     26  C   UNL     1       7.045   4.987  14.888  0.00  0.00    +0.000 A 
ATOM     27  C   UNL     1       5.943   4.182  14.620  0.00  0.00    +0.000 A 
ATOM     28 CL   UNL     1       5.523   3.815  12.992  0.00  0.00    +0.000 Cl
ATOM     29  C   UNL     1       5.174   3.676  15.665  0.00  0.00    +0.000 A 
ENDBRANCH  20  23
ENDBRANCH  15  20
TORSDOF 3
ENDMDL
MODEL 2
REMARK VINA RESULT:      -8.1      1.736      2.109
REMARK  Name = 
REMARK  5 active torsions:
REMARK  status: ('A' for Active; 'I' for Inactive)
REMARK    1  A    between atoms: C_1  and  C_2
REMARK    2  A    between atoms: C_2  and  C_3
REMARK    3  A    between atoms: C_2  and  C_4
REMARK    4  A    between atoms: N_18  and  S_19
REMARK    5  A    between atoms: S_19  and  C_22
REMARK                            x       y       z     vdW  Elec       q    Type
REMARK                         _______ _______ _______ _____ _____    ______ ____
ROOT
ATOM      1  C   UNL     1       1.654   4.854  20.225  0.00  0.00    +0.000 A 
ATOM      2  N   UNL     1       1.266   6.051  20.620  0.00  0.00    +0.000 NA
ATOM      3  C   UNL     1       1.788   6.973  19.734  0.00  0.00    +0.000 A 
ATOM      4  C   UNL     1       1.687   8.402  19.744  0.00  0.00    +0.000 A 
ATOM      5  N   UNL     1       0.999   9.123  20.719  0.00  0.00    +0.000 N 
ATOM      6  C   UNL     1       0.925  10.583  20.555  0.00  0.00    +0.000 C 
ATOM      7  C   UNL     1      -0.250  11.116  21.412  0.00  0.00    +0.000 C 
ATOM      8  N   UNL     1      -0.155  10.758  22.843  0.00  0.00    +0.000 NA
ATOM      9  C   UNL     1       0.028   9.298  22.975  0.00  0.00    +0.000 C 
ATOM     10  C   UNL     1       1.191   8.731  22.126  0.00  0.00    +0.000 C 
ATOM     11  N   UNL     1       2.235   9.064  18.680  0.00  0.00    +0.000 NA
ATOM     12  C   UNL     1       2.871   8.388  17.697  0.00  0.00    +0.000 A 
ATOM     13  C   UNL     1       3.028   7.014  17.642  0.00  0.00    +0.000 A 
ATOM     14  C   UNL     1       2.469   6.311  18.709  0.00  0.00    +0.000 A 
ATOM     15  N   UNL     1       2.425   4.977  19.085  0.00  0.00    +0.000 N 
ATOM     16  H   UNL     1      -1.027  11.019  23.303  0.00  0.00    +0.000 HD
ENDROOT
BRANCH   1  18
ATOM     17  C   UNL     1       0.757   2.533  20.015  0.00  0.00    +0.000 C 
ATOM     18  C   UNL     1       1.305   3.595  20.972  0.00  0.00    +0.000 C 
ATOM     19  C   UNL     1       2.547   3.027  21.677  0.00  0.00    +0.000 C 
ENDBRANCH   1  18
BRANCH  15  20
ATOM     20  S   UNL     1       3.180   3.712  18.248  0.00  0.00    +0.000 S 
ATOM     21  O   UNL     1       3.517   2.713  19.248  0.00  0.00    +0.000 OA
ATOM     22  O   UNL     1       2.323   3.379  17.126  0.00  0.00    +0.000 OA
BRANCH  20  23
ATOM     23  C   UNL     1       4.705   4.281  17.561  0.00  0.00    +0.000 A 
ATOM     24  C   UNL     1       4.991   4.246  16.195  0.00  0.00    +0.000 A 
ATOM     25  C   UNL     1       6.243   4.685  15.751  0.00  0.00    +0.000 A 
ATOM     26  C   UNL     1       7.198   5.151  16.661  0.00  0.00    +0.000 A 
ATOM     27  C   UNL     1       6.900   5.190  18.019  0.00  0.00    +0.000 A 
ATOM     28 CL   UNL     1       8.073   5.764  19.141  0.00  0.00    +0.000 Cl
ATOM     29  C   UNL     1       5.656   4.762  18.477  0.00  0.00    +0.000 A 
ENDBRANCH  20  23
ENDBRANCH  15  20
TORSDOF 3
ENDMDL
MODEL 3
REMARK VINA RESULT:      -8.1      1.106      1.376
REMARK  Name = 
REMARK  5 active torsions:
REMARK  status: ('A' for Active; 'I' for Inactive)
REMARK    1  A    between atoms: C_1  and  C_2
REMARK    2  A    between atoms: C_2  and  C_3
REMARK    3  A    between atoms: C_2  and  C_4
REMARK    4  A    between atoms: N_18  and  S_19
REMARK    5  A    between atoms: S_19  and  C_22
REMARK                            x       y       z     vdW  Elec       q    Type
REMARK                         _______ _______ _______ _____ _____    ______ ____
ROOT
ATOM      1  C   UNL     1       1.670   4.800  20.203  0.00  0.00    +0.000 A 
ATOM      2  N   UNL     1       1.294   6.009  20.576  0.00  0.00    +0.000 NA
ATOM      3  C   UNL     1       1.844   6.911  19.687  0.00  0.00    +0.000 A 
ATOM      4  C   UNL     1       1.764   8.341  19.677  0.00  0.00    +0.000 A 
ATOM      5  N   UNL     1       1.072   9.085  20.631  0.00  0.00    +0.000 N 
ATOM      6  C   UNL     1       1.023  10.544  20.447  0.00  0.00    +0.000 C 
ATOM      7  C   UNL     1      -0.157  11.106  21.278  0.00  0.00    +0.000 C 
ATOM      8  N   UNL     1      -0.090  10.766  22.715  0.00  0.00    +0.000 NA
ATOM      9  C   UNL     1       0.069   9.304  22.869  0.00  0.00    +0.000 C 
ATOM     10  C   UNL     1       1.236   8.709  22.046  0.00  0.00    +0.000 C 
ATOM     11  N   UNL     1       2.339   8.981  18.613  0.00  0.00    +0.000 NA
ATOM     12  C   UNL     1       2.980   8.283  17.649  0.00  0.00    +0.000 A 
ATOM     13  C   UNL     1       3.117   6.906  17.614  0.00  0.00    +0.000 A 
ATOM     14  C   UNL     1       2.531   6.225  18.682  0.00  0.00    +0.000 A 
ATOM     15  N   UNL     1       2.461   4.897  19.074  0.00  0.00    +0.000 N 
ATOM     16  H   UNL     1      -0.965  11.045  23.158  0.00  0.00    +0.000 HD
ENDROOT
BRANCH   1  18
ATOM     17  C   UNL     1       0.727   2.496  20.011  0.00  0.00    +0.000 C 
ATOM     18  C   UNL     1       1.290   3.558  20.961  0.00  0.00    +0.000 C 
ATOM     19  C   UNL     1       2.515   2.972  21.681  0.00  0.00    +0.000 C 
ENDBRANCH   1  18
BRANCH  15  20
ATOM     20  S   UNL     1       3.210   3.610  18.265  0.00  0.00    +0.000 S 
ATOM     21  O   UNL     1       3.450   2.589  19.271  0.00  0.00    +0.000 OA
ATOM     22  O   UNL     1       2.403   3.323  17.095  0.00  0.00    +0.000 OA
BRANCH  20  23
ATOM     23  C   UNL     1       4.792   4.122  17.670  0.00  0.00    +0.000 A 
ATOM     24  C   UNL     1       5.799   4.621  18.498  0.00  0.00    +0.000 A 
ATOM     25  C   UNL     1       7.005   5.038  17.926  0.00  0.00    +0.000 A 
ATOM     26  C   UNL     1       7.203   4.958  16.543  0.00  0.00    +0.000 A 
ATOM     27  C   UNL     1       6.197   4.451  15.728  0.00  0.00    +0.000 A 
ATOM     28 CL   UNL     1       6.439   4.351  14.027  0.00  0.00    +0.000 Cl
ATOM     29  C   UNL     1       4.992   4.027  16.282  0.00  0.00    +0.000 A 
ENDBRANCH  20  23
ENDBRANCH  15  20
TORSDOF 3
ENDMDL
MODEL 4
REMARK VINA RESULT:      -7.9      4.414      7.601
REMARK  Name = 
REMARK  5 active torsions:
REMARK  status: ('A' for Active; 'I' for Inactive)
REMARK    1  A    between atoms: C_1  and  C_2
REMARK    2  A    between atoms: C_2  and  C_3
REMARK    3  A    between atoms: C_2  and  C_4
REMARK    4  A    between atoms: N_18  and  S_19
REMARK    5  A    between atoms: S_19  and  C_22
REMARK                            x       y       z     vdW  Elec       q    Type
REMARK                         _______ _______ _______ _____ _____    ______ ____
ROOT
ATOM      1  C   UNL     1       1.289   8.536  20.610  0.00  0.00    +0.000 A 
ATOM      2  N   UNL     1       1.738   7.303  20.740  0.00  0.00    +0.000 NA
ATOM      3  C   UNL     1       2.386   6.968  19.568  0.00  0.00    +0.000 A 
ATOM      4  C   UNL     1       3.012   5.735  19.196  0.00  0.00    +0.000 A 
ATOM      5  N   UNL     1       3.063   4.612  20.019  0.00  0.00    +0.000 N 
ATOM      6  C   UNL     1       3.803   3.441  19.524  0.00  0.00    +0.000 C 
ATOM      7  C   UNL     1       4.159   2.536  20.730  0.00  0.00    +0.000 C 
ATOM      8  N   UNL     1       2.986   2.112  21.524  0.00  0.00    +0.000 NA
ATOM      9  C   UNL     1       2.200   3.300  21.917  0.00  0.00    +0.000 C 
ATOM     10  C   UNL     1       1.833   4.230  20.735  0.00  0.00    +0.000 C 
ATOM     11  N   UNL     1       3.661   5.714  17.991  0.00  0.00    +0.000 NA
ATOM     12  C   UNL     1       3.666   6.802  17.189  0.00  0.00    +0.000 A 
ATOM     13  C   UNL     1       3.058   8.012  17.476  0.00  0.00    +0.000 A 
ATOM     14  C   UNL     1       2.397   8.066  18.704  0.00  0.00    +0.000 A 
ATOM     15  N   UNL     1       1.636   9.019  19.363  0.00  0.00    +0.000 N 
ATOM     16  H   UNL     1       3.315   1.647  22.369  0.00  0.00    +0.000 HD
ENDROOT
BRANCH   1  18
ATOM     17  C   UNL     1      -0.830   8.504  21.932  0.00  0.00    +0.000 C 
ATOM     18  C   UNL     1       0.494   9.232  21.681  0.00  0.00    +0.000 C 
ATOM     19  C   UNL     1       1.287   9.275  22.998  0.00  0.00    +0.000 C 
ENDBRANCH   1  18
BRANCH  15  20
ATOM     20  S   UNL     1       1.233  10.540  18.733  0.00  0.00    +0.000 S 
ATOM     21  O   UNL     1       1.510  11.499  19.789  0.00  0.00    +0.000 OA
ATOM     22  O   UNL     1       1.887  10.647  17.443  0.00  0.00    +0.000 OA
BRANCH  20  23
ATOM     23  C   UNL     1      -0.504  10.612  18.420  0.00  0.00    +0.000 A 
ATOM     24  C   UNL     1      -1.136   9.861  17.426  0.00  0.00    +0.000 A 
ATOM     25  C   UNL     1      -2.512  10.017  17.230  0.00  0.00    +0.000 A 
ATOM     26  C   UNL     1      -3.248  10.911  18.016  0.00  0.00    +0.000 A 
ATOM     27  C   UNL     1      -2.610  11.646  19.009  0.00  0.00    +0.000 A 
ATOM     28 CL   UNL     1      -3.513  12.746  19.977  0.00  0.00    +0.000 Cl
ATOM     29  C   UNL     1      -1.241  11.500  19.221  0.00  0.00    +0.000 A 
ENDBRANCH  20  23
ENDBRANCH  15  20
TORSDOF 3
ENDMDL
MODEL 5
REMARK VINA RESULT:      -7.7      4.116      7.401
REMARK  Name = 
REMARK  5 active torsions:
REMARK  status: ('A' for Active; 'I' for Inactive)
REMARK    1  A    between atoms: C_1  and  C_2
REMARK    2  A    between atoms: C_2  and  C_3
REMARK    3  A    between atoms: C_2  and  C_4
REMARK    4  A    between atoms: N_18  and  S_19
REMARK    5  A    between atoms: S_19  and  C_22
REMARK                            x       y       z     vdW  Elec       q    Type
REMARK                         _______ _______ _______ _____ _____    ______ ____
ROOT
ATOM      1  C   UNL     1       1.155   8.719  20.743  0.00  0.00    +0.000 A 
ATOM      2  N   UNL     1       1.554   7.462  20.785  0.00  0.00    +0.000 NA
ATOM      3  C   UNL     1       2.197   7.187  19.595  0.00  0.00    +0.000 A 
ATOM      4  C   UNL     1       2.777   5.961  19.137  0.00  0.00    +0.000 A 
ATOM      5  N   UNL     1       2.777   4.780  19.877  0.00  0.00    +0.000 N 
ATOM      6  C   UNL     1       3.474   3.619  19.301  0.00  0.00    +0.000 C 
ATOM      7  C   UNL     1       3.785   2.616  20.440  0.00  0.00    +0.000 C 
ATOM      8  N   UNL     1       2.591   2.183  21.196  0.00  0.00    +0.000 NA
ATOM      9  C   UNL     1       1.849   3.370  21.670  0.00  0.00    +0.000 C 
ATOM     10  C   UNL     1       1.528   4.396  20.558  0.00  0.00    +0.000 C 
ATOM     11  N   UNL     1       3.433   6.001  17.937  0.00  0.00    +0.000 NA
ATOM     12  C   UNL     1       3.487   7.144  17.216  0.00  0.00    +0.000 A 
ATOM     13  C   UNL     1       2.924   8.353  17.587  0.00  0.00    +0.000 A 
ATOM     14  C   UNL     1       2.257   8.344  18.813  0.00  0.00    +0.000 A 
ATOM     15  N   UNL     1       1.530   9.277  19.536  0.00  0.00    +0.000 N 
ATOM     16  H   UNL     1       2.895   1.645  22.006  0.00  0.00    +0.000 HD
ENDROOT
BRANCH   1  18
ATOM     17  C   UNL     1      -0.921   8.604  22.127  0.00  0.00    +0.000 C 
ATOM     18  C   UNL     1       0.380   9.367  21.859  0.00  0.00    +0.000 C 
ATOM     19  C   UNL     1       1.213   9.387  23.151  0.00  0.00    +0.000 C 
ENDBRANCH   1  18
BRANCH  15  20
ATOM     20  S   UNL     1       1.192  10.854  19.016  0.00  0.00    +0.000 S 
ATOM     21  O   UNL     1       1.453  11.717  20.155  0.00  0.00    +0.000 OA
ATOM     22  O   UNL     1       1.898  11.044  17.763  0.00  0.00    +0.000 OA
BRANCH  20  23
ATOM     23  C   UNL     1      -0.529  11.001  18.647  0.00  0.00    +0.000 A 
ATOM     24  C   UNL     1      -1.419  11.745  19.424  0.00  0.00    +0.000 A 
ATOM     25  C   UNL     1      -2.773  11.769  19.071  0.00  0.00    +0.000 A 
ATOM     26  C   UNL     1      -3.232  11.058  17.958  0.00  0.00    +0.000 A 
ATOM     27  C   UNL     1      -2.335  10.327  17.185  0.00  0.00    +0.000 A 
ATOM     28 CL   UNL     1      -2.898   9.453  15.813  0.00  0.00    +0.000 Cl
ATOM     29  C   UNL     1      -0.984  10.297  17.519  0.00  0.00    +0.000 A 
ENDBRANCH  20  23
ENDBRANCH  15  20
TORSDOF 3
ENDMDL
MODEL 6
REMARK VINA RESULT:      -7.1      2.344      2.785
REMARK  Name = 
REMARK  5 active torsions:
REMARK  status: ('A' for Active; 'I' for Inactive)
REMARK    1  A    between atoms: C_1  and  C_2
REMARK    2  A    between atoms: C_2  and  C_3
REMARK    3  A    between atoms: C_2  and  C_4
REMARK    4  A    between atoms: N_18  and  S_19
REMARK    5  A    between atoms: S_19  and  C_22
REMARK                            x       y       z     vdW  Elec       q    Type
REMARK                         _______ _______ _______ _____ _____    ______ ____
ROOT
ATOM      1  C   UNL     1       2.199   5.879  19.831  0.00  0.00    +0.000 A 
ATOM      2  N   UNL     1       1.524   6.853  20.411  0.00  0.00    +0.000 NA
ATOM      3  C   UNL     1       1.725   8.000  19.670  0.00  0.00    +0.000 A 
ATOM      4  C   UNL     1       1.241   9.328  19.901  0.00  0.00    +0.000 A 
ATOM      5  N   UNL     1       0.440   9.684  20.984  0.00  0.00    +0.000 N 
ATOM      6  C   UNL     1      -0.036  11.074  21.048  0.00  0.00    +0.000 C 
ATOM      7  C   UNL     1      -1.261  11.133  21.994  0.00  0.00    +0.000 C 
ATOM      8  N   UNL     1      -0.992  10.614  23.352  0.00  0.00    +0.000 NA
ATOM      9  C   UNL     1      -0.413   9.257  23.255  0.00  0.00    +0.000 C 
ATOM     10  C   UNL     1       0.811   9.162  22.312  0.00  0.00    +0.000 C 
ATOM     11  N   UNL     1       1.528  10.262  18.943  0.00  0.00    +0.000 NA
ATOM     12  C   UNL     1       2.267   9.937  17.858  0.00  0.00    +0.000 A 
ATOM     13  C   UNL     1       2.787   8.683  17.590  0.00  0.00    +0.000 A 
ATOM     14  C   UNL     1       2.501   7.706  18.545  0.00  0.00    +0.000 A 
ATOM     15  N   UNL     1       2.842   6.373  18.712  0.00  0.00    +0.000 N 
ATOM     16  H   UNL     1      -1.874  10.554  23.859  0.00  0.00    +0.000 HD
ENDROOT
BRANCH   1  18
ATOM     17  C   UNL     1       2.481   4.502  21.895  0.00  0.00    +0.000 C 
ATOM     18  C   UNL     1       2.247   4.480  20.381  0.00  0.00    +0.000 C 
ATOM     19  C   UNL     1       0.926   3.745  20.100  0.00  0.00    +0.000 C 
ENDBRANCH   1  18
BRANCH  15  20
ATOM     20  S   UNL     1       3.863   5.500  17.679  0.00  0.00    +0.000 S 
ATOM     21  O   UNL     1       3.582   4.096  17.929  0.00  0.00    +0.000 OA
ATOM     22  O   UNL     1       3.702   6.064  16.353  0.00  0.00    +0.000 OA
BRANCH  20  23
ATOM     23  C   UNL     1       5.547   5.774  18.138  0.00  0.00    +0.000 A 
ATOM     24  C   UNL     1       6.272   4.899  18.950  0.00  0.00    +0.000 A 
ATOM     25  C   UNL     1       7.590   5.224  19.289  0.00  0.00    +0.000 A 
ATOM     26  C   UNL     1       8.175   6.407  18.825  0.00  0.00    +0.000 A 
ATOM     27  C   UNL     1       7.446   7.266  18.010  0.00  0.00    +0.000 A 
ATOM     28 CL   UNL     1       8.165   8.721  17.436  0.00  0.00    +0.000 Cl
ATOM     29  C   UNL     1       6.135   6.956  17.658  0.00  0.00    +0.000 A 
ENDBRANCH  20  23
ENDBRANCH  15  20
TORSDOF 3
ENDMDL
MODEL 7
REMARK VINA RESULT:      -7.1      2.355      2.751
REMARK  Name = 
REMARK  5 active torsions:
REMARK  status: ('A' for Active; 'I' for Inactive)
REMARK    1  A    between atoms: C_1  and  C_2
REMARK    2  A    between atoms: C_2  and  C_3
REMARK    3  A    between atoms: C_2  and  C_4
REMARK    4  A    between atoms: N_18  and  S_19
REMARK    5  A    between atoms: S_19  and  C_22
REMARK                            x       y       z     vdW  Elec       q    Type
REMARK                         _______ _______ _______ _____ _____    ______ ____
ROOT
ATOM      1  C   UNL     1       2.138   5.660  20.019  0.00  0.00    +0.000 A 
ATOM      2  N   UNL     1       1.461   6.668  20.536  0.00  0.00    +0.000 NA
ATOM      3  C   UNL     1       1.717   7.783  19.763  0.00  0.00    +0.000 A 
ATOM      4  C   UNL     1       1.252   9.128  19.926  0.00  0.00    +0.000 A 
ATOM      5  N   UNL     1       0.416   9.538  20.963  0.00  0.00    +0.000 N 
ATOM      6  C   UNL     1      -0.033  10.939  20.958  0.00  0.00    +0.000 C 
ATOM      7  C   UNL     1      -1.294  11.057  21.850  0.00  0.00    +0.000 C 
ATOM      8  N   UNL     1      -1.091  10.582  23.235  0.00  0.00    +0.000 NA
ATOM      9  C   UNL     1      -0.537   9.212  23.211  0.00  0.00    +0.000 C 
ATOM     10  C   UNL     1       0.721   9.058  22.322  0.00  0.00    +0.000 C 
ATOM     11  N   UNL     1       1.597  10.021  18.948  0.00  0.00    +0.000 NA
ATOM     12  C   UNL     1       2.372   9.641  17.908  0.00  0.00    +0.000 A 
ATOM     13  C   UNL     1       2.876   8.368  17.706  0.00  0.00    +0.000 A 
ATOM     14  C   UNL     1       2.531   7.433  18.682  0.00  0.00    +0.000 A 
ATOM     15  N   UNL     1       2.836   6.100  18.910  0.00  0.00    +0.000 N 
ATOM     16  H   UNL     1      -1.993  10.558  23.708  0.00  0.00    +0.000 HD
ENDROOT
BRANCH   1  18
ATOM     17  C   UNL     1       2.389   4.348  22.129  0.00  0.00    +0.000 C 
ATOM     18  C   UNL     1       2.134   4.281  20.620  0.00  0.00    +0.000 C 
ATOM     19  C   UNL     1       0.780   3.594  20.381  0.00  0.00    +0.000 C 
ENDBRANCH   1  18
BRANCH  15  20
ATOM     20  S   UNL     1       3.879   5.170  17.952  0.00  0.00    +0.000 S 
ATOM     21  O   UNL     1       3.914   3.850  18.560  0.00  0.00    +0.000 OA
ATOM     22  O   UNL     1       3.452   5.342  16.577  0.00  0.00    +0.000 OA
BRANCH  20  23
ATOM     23  C   UNL     1       5.518   5.822  18.053  0.00  0.00    +0.000 A 
ATOM     24  C   UNL     1       6.040   6.729  17.129  0.00  0.00    +0.000 A 
ATOM     25  C   UNL     1       7.364   7.158  17.273  0.00  0.00    +0.000 A 
ATOM     26  C   UNL     1       8.156   6.686  18.325  0.00  0.00    +0.000 A 
ATOM     27  C   UNL     1       7.622   5.790  19.245  0.00  0.00    +0.000 A 
ATOM     28 CL   UNL     1       8.594   5.209  20.542  0.00  0.00    +0.000 Cl
ATOM     29  C   UNL     1       6.305   5.356  19.120  0.00  0.00    +0.000 A 
ENDBRANCH  20  23
ENDBRANCH  15  20
TORSDOF 3
ENDMDL
MODEL 8
REMARK VINA RESULT:      -7.0      5.129      8.061
REMARK  Name = 
REMARK  5 active torsions:
REMARK  status: ('A' for Active; 'I' for Inactive)
REMARK    1  A    between atoms: C_1  and  C_2
REMARK    2  A    between atoms: C_2  and  C_3
REMARK    3  A    between atoms: C_2  and  C_4
REMARK    4  A    between atoms: N_18  and  S_19
REMARK    5  A    between atoms: S_19  and  C_22
REMARK                            x       y       z     vdW  Elec       q    Type
REMARK                         _______ _______ _______ _____ _____    ______ ____
ROOT
ATOM      1  C   UNL     1      -1.377  11.899  21.012  0.00  0.00    +0.000 A 
ATOM      2  N   UNL     1      -2.642  12.086  20.687  0.00  0.00    +0.000 NA
ATOM      3  C   UNL     1      -2.767  11.842  19.334  0.00  0.00    +0.000 A 
ATOM      4  C   UNL     1      -3.923  11.942  18.495  0.00  0.00    +0.000 A 
ATOM      5  N   UNL     1      -5.181  12.329  18.952  0.00  0.00    +0.000 N 
ATOM      6  C   UNL     1      -6.288  12.318  17.983  0.00  0.00    +0.000 C 
ATOM      7  C   UNL     1      -7.626  12.285  18.763  0.00  0.00    +0.000 C 
ATOM      8  N   UNL     1      -7.786  13.400  19.720  0.00  0.00    +0.000 NA
ATOM      9  C   UNL     1      -6.609  13.457  20.613  0.00  0.00    +0.000 C 
ATOM     10  C   UNL     1      -5.254  13.484  19.865  0.00  0.00    +0.000 C 
ATOM     11  N   UNL     1      -3.774  11.549  17.193  0.00  0.00    +0.000 NA
ATOM     12  C   UNL     1      -2.575  11.128  16.731  0.00  0.00    +0.000 A 
ATOM     13  C   UNL     1      -1.415  11.034  17.480  0.00  0.00    +0.000 A 
ATOM     14  C   UNL     1      -1.540  11.418  18.816  0.00  0.00    +0.000 A 
ATOM     15  N   UNL     1      -0.667  11.531  19.886  0.00  0.00    +0.000 N 
ATOM     16  H   UNL     1      -8.615  13.227  20.288  0.00  0.00    +0.000 HD
ENDROOT
BRANCH   1  18
ATOM     17  C   UNL     1      -1.559  13.294  23.076  0.00  0.00    +0.000 C 
ATOM     18  C   UNL     1      -0.853  12.110  22.407  0.00  0.00    +0.000 C 
ATOM     19  C   UNL     1      -1.082  10.855  23.263  0.00  0.00    +0.000 C 
ENDBRANCH   1  18
BRANCH  15  20
ATOM     20  S   UNL     1       0.999  11.231  19.809  0.00  0.00    +0.000 S 
ATOM     21  O   UNL     1       1.417  11.619  18.472  0.00  0.00    +0.000 OA
ATOM     22  O   UNL     1       1.592  11.850  20.980  0.00  0.00    +0.000 OA
BRANCH  20  23
ATOM     23  C   UNL     1       1.298   9.496  19.955  0.00  0.00    +0.000 A 
ATOM     24  C   UNL     1       0.885   8.737  21.051  0.00  0.00    +0.000 A 
ATOM     25  C   UNL     1       1.204   7.375  21.092  0.00  0.00    +0.000 A 
ATOM     26  C   UNL     1       1.926   6.780  20.052  0.00  0.00    +0.000 A 
ATOM     27  C   UNL     1       2.324   7.545  18.960  0.00  0.00    +0.000 A 
ATOM     28 CL   UNL     1       3.212   6.814  17.679  0.00  0.00    +0.000 Cl
ATOM     29  C   UNL     1       2.011   8.900  18.901  0.00  0.00    +0.000 A 
ENDBRANCH  20  23
ENDBRANCH  15  20
TORSDOF 3
ENDMDL
MODEL 9
REMARK VINA RESULT:      -6.9      9.189     12.423
REMARK  Name = 
REMARK  5 active torsions:
REMARK  status: ('A' for Active; 'I' for Inactive)
REMARK    1  A    between atoms: C_1  and  C_2
REMARK    2  A    between atoms: C_2  and  C_3
REMARK    3  A    between atoms: C_2  and  C_4
REMARK    4  A    between atoms: N_18  and  S_19
REMARK    5  A    between atoms: S_19  and  C_22
REMARK                            x       y       z     vdW  Elec       q    Type
REMARK                         _______ _______ _______ _____ _____    ______ ____
ROOT
ATOM      1  C   UNL     1      -2.848  12.568  21.917  0.00  0.00    +0.000 A 
ATOM      2  N   UNL     1      -2.809  12.176  20.658  0.00  0.00    +0.000 NA
ATOM      3  C   UNL     1      -4.084  12.298  20.143  0.00  0.00    +0.000 A 
ATOM      4  C   UNL     1      -4.572  11.969  18.837  0.00  0.00    +0.000 A 
ATOM      5  N   UNL     1      -3.776  11.438  17.824  0.00  0.00    +0.000 N 
ATOM      6  C   UNL     1      -4.406  11.217  16.513  0.00  0.00    +0.000 C 
ATOM      7  C   UNL     1      -3.292  11.114  15.441  0.00  0.00    +0.000 C 
ATOM      8  N   UNL     1      -2.291  10.062  15.720  0.00  0.00    +0.000 NA
ATOM      9  C   UNL     1      -1.753  10.243  17.085  0.00  0.00    +0.000 C 
ATOM     10  C   UNL     1      -2.841  10.357  18.180  0.00  0.00    +0.000 C 
ATOM     11  N   UNL     1      -5.878  12.280  18.572  0.00  0.00    +0.000 NA
ATOM     12  C   UNL     1      -6.663  12.835  19.522  0.00  0.00    +0.000 A 
ATOM     13  C   UNL     1      -6.262  13.152  20.809  0.00  0.00    +0.000 A 
ATOM     14  C   UNL     1      -4.931  12.855  21.104  0.00  0.00    +0.000 A 
ATOM     15  N   UNL     1      -4.137  12.950  22.236  0.00  0.00    +0.000 N 
ATOM     16  H   UNL     1      -1.525  10.155  15.054  0.00  0.00    +0.000 HD
ENDROOT
BRANCH   1  18
ATOM     17  C   UNL     1      -1.131  11.106  22.991  0.00  0.00    +0.000 C 
ATOM     18  C   UNL     1      -1.643  12.540  22.818  0.00  0.00    +0.000 C 
ATOM     19  C   UNL     1      -0.511  13.398  22.230  0.00  0.00    +0.000 C 
ENDBRANCH   1  18
BRANCH  15  20
ATOM     20  S   UNL     1      -4.675  13.481  23.753  0.00  0.00    +0.000 S 
ATOM     21  O   UNL     1      -6.009  14.019  23.541  0.00  0.00    +0.000 OA
ATOM     22  O   UNL     1      -4.454  12.391  24.683  0.00  0.00    +0.000 OA
BRANCH  20  23
ATOM     23  C   UNL     1      -3.666  14.822  24.305  0.00  0.00    +0.000 A 
ATOM     24  C   UNL     1      -2.797  14.731  25.393  0.00  0.00    +0.000 A 
ATOM     25  C   UNL     1      -2.068  15.861  25.777  0.00  0.00    +0.000 A 
ATOM     26  C   UNL     1      -2.206  17.068  25.083  0.00  0.00    +0.000 A 
ATOM     27  C   UNL     1      -3.067  17.145  23.994  0.00  0.00    +0.000 A 
ATOM     28 CL   UNL     1      -3.238  18.629  23.137  0.00  0.00    +0.000 Cl
ATOM     29  C   UNL     1      -3.797  16.028  23.595  0.00  0.00    +0.000 A 
ENDBRANCH  20  23
ENDBRANCH  15  20
TORSDOF 3
ENDMDL
