MODEL 1
REMARK VINA RESULT:      -7.8      0.000      0.000
REMARK  Name = 
REMARK  4 active torsions:
REMARK  status: ('A' for Active; 'I' for Inactive)
REMARK    1  A    between atoms: C_1  and  C_2
REMARK    2  A    between atoms: C_6  and  C_7
REMARK    3  A    between atoms: C_13  and  C_14
REMARK    4  A    between atoms: C_14  and  O_15
REMARK                            x       y       z     vdW  Elec       q    Type
REMARK                         _______ _______ _______ _____ _____    ______ ____
ROOT
ATOM      1  C   UNL     1       4.496   1.793  20.238  0.00  0.00    +0.000 C 
ATOM      2  C   UNL     1       3.416   2.838  19.915  0.00  0.00    +0.000 C 
ATOM      3  C   UNL     1       2.403   2.149  18.973  0.00  0.00    +0.000 C 
ATOM      4  C   UNL     1       1.277   3.058  18.524  0.00  0.00    +0.000 C 
ATOM      5  C   UNL     1       1.859   4.289  17.848  0.00  0.00    +0.000 C 
ATOM      6  C   UNL     1       2.853   5.082  18.726  0.00  0.00    +0.000 C 
ATOM      7  C   UNL     1       2.097   5.747  19.906  0.00  0.00    +0.000 C 
ATOM      8  C   UNL     1       3.415   6.216  17.820  0.00  0.00    +0.000 C 
ATOM      9  C   UNL     1       4.919   6.281  17.676  0.00  0.00    +0.000 C 
ATOM     10  O   UNL     1       5.468   5.436  16.660  0.00  0.00    +0.000 OA
ATOM     11  C   UNL     1       6.737   5.131  17.090  0.00  0.00    +0.000 C 
ATOM     12  O   UNL     1       7.554   4.427  16.523  0.00  0.00    +0.000 OA
ATOM     13  C   UNL     1       6.995   5.853  18.379  0.00  0.00    +0.000 C 
ATOM     14  C   UNL     1       5.726   5.832  18.845  0.00  0.00    +0.000 C 
ATOM     15  C   UNL     1       5.203   4.609  19.478  0.00  0.00    +0.000 C 
ATOM     16  C   UNL     1       3.922   4.185  19.362  0.00  0.00    +0.000 C 
ENDROOT
BRANCH  13  17
ATOM     17  C   UNL     1       7.770   7.107  18.015  0.00  0.00    +0.000 C 
BRANCH  17  18
ATOM     18  O   UNL     1       7.870   7.249  16.600  0.00  0.00    +0.000 OA
ATOM     19  H   UNL     1       8.203   6.406  16.248  0.00  0.00    +0.000 HD
ENDBRANCH  17  18
ENDBRANCH  13  17
TORSDOF 2
ENDMDL
MODEL 2
REMARK VINA RESULT:      -7.6      1.383      3.392
REMARK  Name = 
REMARK  4 active torsions:
REMARK  status: ('A' for Active; 'I' for Inactive)
REMARK    1  A    between atoms: C_1  and  C_2
REMARK    2  A    between atoms: C_6  and  C_7
REMARK    3  A    between atoms: C_13  and  C_14
REMARK    4  A    between atoms: C_14  and  O_15
REMARK                            x       y       z     vdW  Elec       q    Type
REMARK                         _______ _______ _______ _____ _____    ______ ____
ROOT
ATOM      1  C   UNL     1       2.576   8.628  18.093  0.00  0.00    +0.000 C 
ATOM      2  C   UNL     1       2.122   7.251  18.603  0.00  0.00    +0.000 C 
ATOM      3  C   UNL     1       1.810   7.418  20.107  0.00  0.00    +0.000 C 
ATOM      4  C   UNL     1       1.375   6.132  20.782  0.00  0.00    +0.000 C 
ATOM      5  C   UNL     1       2.447   5.071  20.589  0.00  0.00    +0.000 C 
ATOM      6  C   UNL     1       2.801   4.792  19.111  0.00  0.00    +0.000 C 
ATOM      7  C   UNL     1       1.603   4.105  18.404  0.00  0.00    +0.000 C 
ATOM      8  C   UNL     1       3.983   3.780  19.138  0.00  0.00    +0.000 C 
ATOM      9  C   UNL     1       5.238   4.189  18.401  0.00  0.00    +0.000 C 
ATOM     10  O   UNL     1       6.146   5.001  19.153  0.00  0.00    +0.000 OA
ATOM     11  C   UNL     1       6.804   5.767  18.221  0.00  0.00    +0.000 C 
ATOM     12  O   UNL     1       7.663   6.604  18.434  0.00  0.00    +0.000 OA
ATOM     13  C   UNL     1       6.327   5.375  16.853  0.00  0.00    +0.000 C 
ATOM     14  C   UNL     1       5.061   5.051  17.199  0.00  0.00    +0.000 C 
ATOM     15  C   UNL     1       4.062   6.117  17.389  0.00  0.00    +0.000 C 
ATOM     16  C   UNL     1       3.079   6.076  18.320  0.00  0.00    +0.000 C 
ENDROOT
BRANCH  13  17
ATOM     17  C   UNL     1       7.358   4.404  16.307  0.00  0.00    +0.000 C 
BRANCH  17  18
ATOM     18  O   UNL     1       8.303   4.046  17.313  0.00  0.00    +0.000 OA
ATOM     19  H   UNL     1       8.402   4.814  17.902  0.00  0.00    +0.000 HD
ENDBRANCH  17  18
ENDBRANCH  13  17
TORSDOF 2
ENDMDL
MODEL 3
REMARK VINA RESULT:      -7.6      1.516      2.979
REMARK  Name = 
REMARK  4 active torsions:
REMARK  status: ('A' for Active; 'I' for Inactive)
REMARK    1  A    between atoms: C_1  and  C_2
REMARK    2  A    between atoms: C_6  and  C_7
REMARK    3  A    between atoms: C_13  and  C_14
REMARK    4  A    between atoms: C_14  and  O_15
REMARK                            x       y       z     vdW  Elec       q    Type
REMARK                         _______ _______ _______ _____ _____    ______ ____
ROOT
ATOM      1  C   UNL     1       1.894   6.645  20.471  0.00  0.00    +0.000 C 
ATOM      2  C   UNL     1       1.803   5.139  20.176  0.00  0.00    +0.000 C 
ATOM      3  C   UNL     1       2.140   4.409  21.496  0.00  0.00    +0.000 C 
ATOM      4  C   UNL     1       2.129   2.899  21.373  0.00  0.00    +0.000 C 
ATOM      5  C   UNL     1       3.099   2.472  20.283  0.00  0.00    +0.000 C 
ATOM      6  C   UNL     1       2.820   3.110  18.903  0.00  0.00    +0.000 C 
ATOM      7  C   UNL     1       1.493   2.553  18.325  0.00  0.00    +0.000 C 
ATOM      8  C   UNL     1       3.979   2.645  17.975  0.00  0.00    +0.000 C 
ATOM      9  C   UNL     1       4.773   3.733  17.288  0.00  0.00    +0.000 C 
ATOM     10  O   UNL     1       5.847   4.280  18.062  0.00  0.00    +0.000 OA
ATOM     11  C   UNL     1       5.991   5.572  17.618  0.00  0.00    +0.000 C 
ATOM     12  O   UNL     1       6.793   6.399  18.015  0.00  0.00    +0.000 OA
ATOM     13  C   UNL     1       5.015   5.810  16.503  0.00  0.00    +0.000 C 
ATOM     14  C   UNL     1       4.041   4.986  16.948  0.00  0.00    +0.000 C 
ATOM     15  C   UNL     1       3.136   5.440  18.017  0.00  0.00    +0.000 C 
ATOM     16  C   UNL     1       2.640   4.631  18.985  0.00  0.00    +0.000 C 
ENDROOT
BRANCH  13  17
ATOM     17  C   UNL     1       5.794   5.624  15.212  0.00  0.00    +0.000 C 
BRANCH  17  18
ATOM     18  O   UNL     1       7.193   5.545  15.470  0.00  0.00    +0.000 OA
ATOM     19  H   UNL     1       7.652   5.701  14.626  0.00  0.00    +0.000 HD
ENDBRANCH  17  18
ENDBRANCH  13  17
TORSDOF 2
ENDMDL
MODEL 4
REMARK VINA RESULT:      -7.6      1.562      2.679
REMARK  Name = 
REMARK  4 active torsions:
REMARK  status: ('A' for Active; 'I' for Inactive)
REMARK    1  A    between atoms: C_1  and  C_2
REMARK    2  A    between atoms: C_6  and  C_7
REMARK    3  A    between atoms: C_13  and  C_14
REMARK    4  A    between atoms: C_14  and  O_15
REMARK                            x       y       z     vdW  Elec       q    Type
REMARK                         _______ _______ _______ _____ _____    ______ ____
ROOT
ATOM      1  C   UNL     1       1.906   6.632  20.904  0.00  0.00    +0.000 C 
ATOM      2  C   UNL     1       1.599   5.432  19.994  0.00  0.00    +0.000 C 
ATOM      3  C   UNL     1       1.248   4.250  20.926  0.00  0.00    +0.000 C 
ATOM      4  C   UNL     1       0.948   2.962  20.185  0.00  0.00    +0.000 C 
ATOM      5  C   UNL     1       2.133   2.596  19.306  0.00  0.00    +0.000 C 
ATOM      6  C   UNL     1       2.537   3.696  18.299  0.00  0.00    +0.000 C 
ATOM      7  C   UNL     1       1.433   3.854  17.222  0.00  0.00    +0.000 C 
ATOM      8  C   UNL     1       3.823   3.177  17.593  0.00  0.00    +0.000 C 
ATOM      9  C   UNL     1       5.036   4.078  17.653  0.00  0.00    +0.000 C 
ATOM     10  O   UNL     1       5.838   3.937  18.831  0.00  0.00    +0.000 OA
ATOM     11  C   UNL     1       6.420   5.167  19.021  0.00  0.00    +0.000 C 
ATOM     12  O   UNL     1       7.179   5.488  19.919  0.00  0.00    +0.000 OA
ATOM     13  C   UNL     1       6.009   6.073  17.898  0.00  0.00    +0.000 C 
ATOM     14  C   UNL     1       4.782   5.546  17.692  0.00  0.00    +0.000 C 
ATOM     15  C   UNL     1       3.670   5.921  18.581  0.00  0.00    +0.000 C 
ATOM     16  C   UNL     1       2.683   5.073  18.959  0.00  0.00    +0.000 C 
ENDROOT
BRANCH  13  17
ATOM     17  C   UNL     1       7.150   6.049  16.895  0.00  0.00    +0.000 C 
BRANCH  17  18
ATOM     18  O   UNL     1       7.918   4.856  17.027  0.00  0.00    +0.000 OA
ATOM     19  H   UNL     1       7.444   4.275  17.648  0.00  0.00    +0.000 HD
ENDBRANCH  17  18
ENDBRANCH  13  17
TORSDOF 2
ENDMDL
MODEL 5
REMARK VINA RESULT:      -7.5      1.545      3.334
REMARK  Name = 
REMARK  4 active torsions:
REMARK  status: ('A' for Active; 'I' for Inactive)
REMARK    1  A    between atoms: C_1  and  C_2
REMARK    2  A    between atoms: C_6  and  C_7
REMARK    3  A    between atoms: C_13  and  C_14
REMARK    4  A    between atoms: C_14  and  O_15
REMARK                            x       y       z     vdW  Elec       q    Type
REMARK                         _______ _______ _______ _____ _____    ______ ____
ROOT
ATOM      1  C   UNL     1       2.619   8.453  18.109  0.00  0.00    +0.000 C 
ATOM      2  C   UNL     1       2.266   7.001  18.469  0.00  0.00    +0.000 C 
ATOM      3  C   UNL     1       2.220   6.928  20.012  0.00  0.00    +0.000 C 
ATOM      4  C   UNL     1       1.915   5.542  20.544  0.00  0.00    +0.000 C 
ATOM      5  C   UNL     1       2.941   4.556  20.009  0.00  0.00    +0.000 C 
ATOM      6  C   UNL     1       3.034   4.515  18.467  0.00  0.00    +0.000 C 
ATOM      7  C   UNL     1       1.734   3.907  17.878  0.00  0.00    +0.000 C 
ATOM      8  C   UNL     1       4.207   3.548  18.135  0.00  0.00    +0.000 C 
ATOM      9  C   UNL     1       5.313   4.102  17.265  0.00  0.00    +0.000 C 
ATOM     10  O   UNL     1       6.334   4.819  17.968  0.00  0.00    +0.000 OA
ATOM     11  C   UNL     1       6.816   5.737  17.066  0.00  0.00    +0.000 C 
ATOM     12  O   UNL     1       7.696   6.558  17.255  0.00  0.00    +0.000 OA
ATOM     13  C   UNL     1       6.110   5.542  15.756  0.00  0.00    +0.000 C 
ATOM     14  C   UNL     1       4.925   5.131  16.259  0.00  0.00    +0.000 C 
ATOM     15  C   UNL     1       3.971   6.124  16.780  0.00  0.00    +0.000 C 
ATOM     16  C   UNL     1       3.164   5.912  17.848  0.00  0.00    +0.000 C 
ENDROOT
BRANCH  13  17
ATOM     17  C   UNL     1       7.035   4.698  14.898  0.00  0.00    +0.000 C 
BRANCH  17  18
ATOM     18  O   UNL     1       8.012   5.510  14.252  0.00  0.00    +0.000 OA
ATOM     19  H   UNL     1       8.884   5.227  14.577  0.00  0.00    +0.000 HD
ENDBRANCH  17  18
ENDBRANCH  13  17
TORSDOF 2
ENDMDL
MODEL 6
REMARK VINA RESULT:      -7.5      2.511      5.265
REMARK  Name = 
REMARK  4 active torsions:
REMARK  status: ('A' for Active; 'I' for Inactive)
REMARK    1  A    between atoms: C_1  and  C_2
REMARK    2  A    between atoms: C_6  and  C_7
REMARK    3  A    between atoms: C_13  and  C_14
REMARK    4  A    between atoms: C_14  and  O_15
REMARK                            x       y       z     vdW  Elec       q    Type
REMARK                         _______ _______ _______ _____ _____    ______ ____
ROOT
ATOM      1  C   UNL     1       5.907   3.893  14.550  0.00  0.00    +0.000 C 
ATOM      2  C   UNL     1       5.804   5.074  15.528  0.00  0.00    +0.000 C 
ATOM      3  C   UNL     1       7.225   5.308  16.088  0.00  0.00    +0.000 C 
ATOM      4  C   UNL     1       7.299   6.429  17.106  0.00  0.00    +0.000 C 
ATOM      5  C   UNL     1       6.334   6.142  18.245  0.00  0.00    +0.000 C 
ATOM      6  C   UNL     1       4.869   5.939  17.797  0.00  0.00    +0.000 C 
ATOM      7  C   UNL     1       4.289   7.279  17.274  0.00  0.00    +0.000 C 
ATOM      8  C   UNL     1       4.079   5.545  19.079  0.00  0.00    +0.000 C 
ATOM      9  C   UNL     1       3.307   4.246  19.022  0.00  0.00    +0.000 C 
ATOM     10  O   UNL     1       4.066   3.075  19.342  0.00  0.00    +0.000 OA
ATOM     11  C   UNL     1       3.468   2.055  18.642  0.00  0.00    +0.000 C 
ATOM     12  O   UNL     1       3.803   0.883  18.624  0.00  0.00    +0.000 OA
ATOM     13  C   UNL     1       2.275   2.603  17.916  0.00  0.00    +0.000 C 
ATOM     14  C   UNL     1       2.764   3.844  17.695  0.00  0.00    +0.000 C 
ATOM     15  C   UNL     1       3.709   4.067  16.587  0.00  0.00    +0.000 C 
ATOM     16  C   UNL     1       4.741   4.943  16.638  0.00  0.00    +0.000 C 
ENDROOT
BRANCH  13  17
ATOM     17  C   UNL     1       1.069   2.282  18.781  0.00  0.00    +0.000 C 
BRANCH  17  18
ATOM     18  O   UNL     1       1.463   2.009  20.123  0.00  0.00    +0.000 OA
ATOM     19  H   UNL     1       2.169   1.340  20.086  0.00  0.00    +0.000 HD
ENDBRANCH  17  18
ENDBRANCH  13  17
TORSDOF 2
ENDMDL
MODEL 7
REMARK VINA RESULT:      -6.9      2.569      5.233
REMARK  Name = 
REMARK  4 active torsions:
REMARK  status: ('A' for Active; 'I' for Inactive)
REMARK    1  A    between atoms: C_1  and  C_2
REMARK    2  A    between atoms: C_6  and  C_7
REMARK    3  A    between atoms: C_13  and  C_14
REMARK    4  A    between atoms: C_14  and  O_15
REMARK                            x       y       z     vdW  Elec       q    Type
REMARK                         _______ _______ _______ _____ _____    ______ ____
ROOT
ATOM      1  C   UNL     1       7.559   5.539  19.725  0.00  0.00    +0.000 C 
ATOM      2  C   UNL     1       7.056   5.291  18.294  0.00  0.00    +0.000 C 
ATOM      3  C   UNL     1       7.063   6.661  17.579  0.00  0.00    +0.000 C 
ATOM      4  C   UNL     1       6.557   6.603  16.151  0.00  0.00    +0.000 C 
ATOM      5  C   UNL     1       5.155   6.016  16.134  0.00  0.00    +0.000 C 
ATOM      6  C   UNL     1       5.046   4.618  16.785  0.00  0.00    +0.000 C 
ATOM      7  C   UNL     1       5.793   3.574  15.914  0.00  0.00    +0.000 C 
ATOM      8  C   UNL     1       3.533   4.257  16.771  0.00  0.00    +0.000 C 
ATOM      9  C   UNL     1       2.910   3.910  18.105  0.00  0.00    +0.000 C 
ATOM     10  O   UNL     1       2.456   5.030  18.872  0.00  0.00    +0.000 OA
ATOM     11  C   UNL     1       2.555   4.633  20.184  0.00  0.00    +0.000 C 
ATOM     12  O   UNL     1       2.273   5.289  21.172  0.00  0.00    +0.000 OA
ATOM     13  C   UNL     1       3.029   3.211  20.222  0.00  0.00    +0.000 C 
ATOM     14  C   UNL     1       3.794   3.254  19.109  0.00  0.00    +0.000 C 
ATOM     15  C   UNL     1       5.141   3.847  19.174  0.00  0.00    +0.000 C 
ATOM     16  C   UNL     1       5.703   4.561  18.169  0.00  0.00    +0.000 C 
ENDROOT
BRANCH  13  17
ATOM     17  C   UNL     1       1.787   2.354  20.395  0.00  0.00    +0.000 C 
BRANCH  17  18
ATOM     18  O   UNL     1       0.632   3.167  20.585  0.00  0.00    +0.000 OA
ATOM     19  H   UNL     1       0.023   2.979  19.850  0.00  0.00    +0.000 HD
ENDBRANCH  17  18
ENDBRANCH  13  17
TORSDOF 2
ENDMDL
MODEL 8
REMARK VINA RESULT:      -6.9      1.612      3.086
REMARK  Name = 
REMARK  4 active torsions:
REMARK  status: ('A' for Active; 'I' for Inactive)
REMARK    1  A    between atoms: C_1  and  C_2
REMARK    2  A    between atoms: C_6  and  C_7
REMARK    3  A    between atoms: C_13  and  C_14
REMARK    4  A    between atoms: C_14  and  O_15
REMARK                            x       y       z     vdW  Elec       q    Type
REMARK                         _______ _______ _______ _____ _____    ______ ____
ROOT
ATOM      1  C   UNL     1       0.854   4.117  17.215  0.00  0.00    +0.000 C 
ATOM      2  C   UNL     1       1.799   3.784  18.380  0.00  0.00    +0.000 C 
ATOM      3  C   UNL     1       1.418   4.731  19.541  0.00  0.00    +0.000 C 
ATOM      4  C   UNL     1       2.284   4.557  20.773  0.00  0.00    +0.000 C 
ATOM      5  C   UNL     1       3.744   4.758  20.399  0.00  0.00    +0.000 C 
ATOM      6  C   UNL     1       4.242   3.822  19.274  0.00  0.00    +0.000 C 
ATOM      7  C   UNL     1       4.288   2.360  19.788  0.00  0.00    +0.000 C 
ATOM      8  C   UNL     1       5.701   4.265  18.964  0.00  0.00    +0.000 C 
ATOM      9  C   UNL     1       6.004   4.633  17.529  0.00  0.00    +0.000 C 
ATOM     10  O   UNL     1       5.704   5.987  17.174  0.00  0.00    +0.000 OA
ATOM     11  C   UNL     1       5.413   5.953  15.831  0.00  0.00    +0.000 C 
ATOM     12  O   UNL     1       5.098   6.895  15.125  0.00  0.00    +0.000 OA
ATOM     13  C   UNL     1       5.594   4.549  15.335  0.00  0.00    +0.000 C 
ATOM     14  C   UNL     1       5.234   3.916  16.474  0.00  0.00    +0.000 C 
ATOM     15  C   UNL     1       3.806   3.761  16.800  0.00  0.00    +0.000 C 
ATOM     16  C   UNL     1       3.307   3.813  18.058  0.00  0.00    +0.000 C 
ENDROOT
BRANCH  13  17
ATOM     17  C   UNL     1       6.975   4.496  14.706  0.00  0.00    +0.000 C 
BRANCH  17  18
ATOM     18  O   UNL     1       7.684   5.712  14.932  0.00  0.00    +0.000 OA
ATOM     19  H   UNL     1       7.834   5.785  15.891  0.00  0.00    +0.000 HD
ENDBRANCH  17  18
ENDBRANCH  13  17
TORSDOF 2
ENDMDL
MODEL 9
REMARK VINA RESULT:      -6.8      2.700      5.446
REMARK  Name = 
REMARK  4 active torsions:
REMARK  status: ('A' for Active; 'I' for Inactive)
REMARK    1  A    between atoms: C_1  and  C_2
REMARK    2  A    between atoms: C_6  and  C_7
REMARK    3  A    between atoms: C_13  and  C_14
REMARK    4  A    between atoms: C_14  and  O_15
REMARK                            x       y       z     vdW  Elec       q    Type
REMARK                         _______ _______ _______ _____ _____    ______ ____
ROOT
ATOM      1  C   UNL     1       2.846   7.860  17.514  0.00  0.00    +0.000 C 
ATOM      2  C   UNL     1       4.159   7.079  17.686  0.00  0.00    +0.000 C 
ATOM      3  C   UNL     1       4.698   6.802  16.265  0.00  0.00    +0.000 C 
ATOM      4  C   UNL     1       5.985   6.001  16.250  0.00  0.00    +0.000 C 
ATOM      5  C   UNL     1       5.774   4.690  16.989  0.00  0.00    +0.000 C 
ATOM      6  C   UNL     1       5.279   4.856  18.444  0.00  0.00    +0.000 C 
ATOM      7  C   UNL     1       6.400   5.485  19.311  0.00  0.00    +0.000 C 
ATOM      8  C   UNL     1       5.015   3.417  18.973  0.00  0.00    +0.000 C 
ATOM      9  C   UNL     1       3.629   3.139  19.510  0.00  0.00    +0.000 C 
ATOM     10  O   UNL     1       2.662   2.765  18.524  0.00  0.00    +0.000 OA
ATOM     11  C   UNL     1       1.453   3.186  19.025  0.00  0.00    +0.000 C 
ATOM     12  O   UNL     1       0.360   3.070  18.499  0.00  0.00    +0.000 OA
ATOM     13  C   UNL     1       1.678   3.786  20.382  0.00  0.00    +0.000 C 
ATOM     14  C   UNL     1       2.915   4.279  20.149  0.00  0.00    +0.000 C 
ATOM     15  C   UNL     1       3.067   5.547  19.414  0.00  0.00    +0.000 C 
ATOM     16  C   UNL     1       4.079   5.805  18.552  0.00  0.00    +0.000 C 
ENDROOT
BRANCH  13  17
ATOM     17  C   UNL     1       1.347   2.698  21.387  0.00  0.00    +0.000 C 
BRANCH  17  18
ATOM     18  O   UNL     1       2.440   2.477  22.275  0.00  0.00    +0.000 OA
ATOM     19  H   UNL     1       2.364   3.129  22.994  0.00  0.00    +0.000 HD
ENDBRANCH  17  18
ENDBRANCH  13  17
TORSDOF 2
ENDMDL
