MODEL 1
REMARK VINA RESULT:      -7.4      0.000      0.000
REMARK  Name = 
REMARK  6 active torsions:
REMARK  status: ('A' for Active; 'I' for Inactive)
REMARK    1  A    between atoms: C_1  and  O_2
REMARK    2  A    between atoms: O_2  and  C_3
REMARK    3  A    between atoms: C_6  and  C_7
REMARK    4  A    between atoms: N_9  and  C_10
REMARK    5  A    between atoms: C_21  and  O_22
REMARK    6  A    between atoms: O_22  and  C_23
REMARK                            x       y       z     vdW  Elec       q    Type
REMARK                         _______ _______ _______ _____ _____    ______ ____
ROOT
ATOM      1  C   UNL     1       3.102   6.019  18.635  0.00  0.00    +0.000 C 
ATOM      2  N   UNL     1       3.311   5.012  19.440  0.00  0.00    +0.000 NA
ATOM      3  N   UNL     1       4.381   4.213  19.140  0.00  0.00    +0.000 N 
ATOM      4  C   UNL     1       4.101   3.018  18.353  0.00  0.00    +0.000 C 
ATOM      5  C   UNL     1       5.569   4.944  19.014  0.00  0.00    +0.000 C 
ATOM      6  O   UNL     1       6.146   5.572  19.891  0.00  0.00    +0.000 OA
ATOM      7  C   UNL     1       5.952   5.136  17.620  0.00  0.00    +0.000 A 
ATOM      8  C   UNL     1       7.224   4.713  17.225  0.00  0.00    +0.000 A 
ATOM      9  C   UNL     1       7.484   4.552  15.874  0.00  0.00    +0.000 A 
ATOM     10  C   UNL     1       6.479   4.833  14.944  0.00  0.00    +0.000 A 
ATOM     11  C   UNL     1       5.238   5.350  15.357  0.00  0.00    +0.000 A 
ATOM     12  C   UNL     1       4.950   5.535  16.717  0.00  0.00    +0.000 A 
ATOM     13  C   UNL     1       3.579   6.089  17.152  0.00  0.00    +0.000 C 
ENDROOT
BRANCH   1  17
ATOM     14  C   UNL     1       1.048   9.304  20.603  0.00  0.00    +0.000 A 
ATOM     15  C   UNL     1       1.283   8.089  21.255  0.00  0.00    +0.000 A 
ATOM     16  C   UNL     1       1.910   7.037  20.581  0.00  0.00    +0.000 A 
ATOM     17  C   UNL     1       2.290   7.153  19.232  0.00  0.00    +0.000 A 
ATOM     18  C   UNL     1       1.955   8.327  18.557  0.00  0.00    +0.000 A 
ATOM     19  C   UNL     1       1.338   9.406  19.230  0.00  0.00    +0.000 A 
BRANCH  14  21
ATOM     20  C   UNL     1      -0.282  10.013  22.432  0.00  0.00    +0.000 C 
ATOM     21  O   UNL     1       0.490  10.353  21.274  0.00  0.00    +0.000 OA
ENDBRANCH  14  21
BRANCH  19  22
ATOM     22  O   UNL     1       1.105  10.470  18.396  0.00  0.00    +0.000 OA
ATOM     23  C   UNL     1       1.887  11.646  18.553  0.00  0.00    +0.000 C 
ENDBRANCH  19  22
ENDBRANCH   1  17
TORSDOF 3
ENDMDL
MODEL 2
REMARK VINA RESULT:      -7.4      1.044      1.940
REMARK  Name = 
REMARK  6 active torsions:
REMARK  status: ('A' for Active; 'I' for Inactive)
REMARK    1  A    between atoms: C_1  and  O_2
REMARK    2  A    between atoms: O_2  and  C_3
REMARK    3  A    between atoms: C_6  and  C_7
REMARK    4  A    between atoms: N_9  and  C_10
REMARK    5  A    between atoms: C_21  and  O_22
REMARK    6  A    between atoms: O_22  and  C_23
REMARK                            x       y       z     vdW  Elec       q    Type
REMARK                         _______ _______ _______ _____ _____    ______ ____
ROOT
ATOM      1  C   UNL     1       3.080   6.477  18.221  0.00  0.00    +0.000 C 
ATOM      2  N   UNL     1       3.026   5.424  18.993  0.00  0.00    +0.000 NA
ATOM      3  N   UNL     1       3.996   4.481  18.795  0.00  0.00    +0.000 N 
ATOM      4  C   UNL     1       3.654   3.368  17.916  0.00  0.00    +0.000 C 
ATOM      5  C   UNL     1       5.285   5.025  18.863  0.00  0.00    +0.000 C 
ATOM      6  O   UNL     1       5.823   5.528  19.840  0.00  0.00    +0.000 OA
ATOM      7  C   UNL     1       5.880   5.200  17.544  0.00  0.00    +0.000 A 
ATOM      8  C   UNL     1       7.118   4.600  17.297  0.00  0.00    +0.000 A 
ATOM      9  C   UNL     1       7.535   4.444  15.984  0.00  0.00    +0.000 A 
ATOM     10  C   UNL     1       6.719   4.906  14.947  0.00  0.00    +0.000 A 
ATOM     11  C   UNL     1       5.523   5.593  15.220  0.00  0.00    +0.000 A 
ATOM     12  C   UNL     1       5.082   5.777  16.540  0.00  0.00    +0.000 A 
ATOM     13  C   UNL     1       3.761   6.520  16.820  0.00  0.00    +0.000 C 
ENDROOT
BRANCH   1  17
ATOM     14  C   UNL     1       0.795   9.946  19.501  0.00  0.00    +0.000 A 
ATOM     15  C   UNL     1       1.437   9.906  18.259  0.00  0.00    +0.000 A 
ATOM     16  C   UNL     1       2.199   8.792  17.893  0.00  0.00    +0.000 A 
ATOM     17  C   UNL     1       2.370   7.702  18.765  0.00  0.00    +0.000 A 
ATOM     18  C   UNL     1       1.817   7.795  20.043  0.00  0.00    +0.000 A 
ATOM     19  C   UNL     1       1.030   8.906  20.420  0.00  0.00    +0.000 A 
BRANCH  14  21
ATOM     20  C   UNL     1      -1.119  11.242  18.981  0.00  0.00    +0.000 C 
ATOM     21  O   UNL     1       0.004  11.004  19.838  0.00  0.00    +0.000 OA
ENDBRANCH  14  21
BRANCH  19  22
ATOM     22  O   UNL     1       0.570   8.800  21.708  0.00  0.00    +0.000 OA
ATOM     23  C   UNL     1       1.406   9.237  22.771  0.00  0.00    +0.000 C 
ENDBRANCH  19  22
ENDBRANCH   1  17
TORSDOF 3
ENDMDL
MODEL 3
REMARK VINA RESULT:      -7.4      1.029      1.055
REMARK  Name = 
REMARK  6 active torsions:
REMARK  status: ('A' for Active; 'I' for Inactive)
REMARK    1  A    between atoms: C_1  and  O_2
REMARK    2  A    between atoms: O_2  and  C_3
REMARK    3  A    between atoms: C_6  and  C_7
REMARK    4  A    between atoms: N_9  and  C_10
REMARK    5  A    between atoms: C_21  and  O_22
REMARK    6  A    between atoms: O_22  and  C_23
REMARK                            x       y       z     vdW  Elec       q    Type
REMARK                         _______ _______ _______ _____ _____    ______ ____
ROOT
ATOM      1  C   UNL     1       2.532   6.629  18.545  0.00  0.00    +0.000 C 
ATOM      2  N   UNL     1       2.261   5.423  18.969  0.00  0.00    +0.000 NA
ATOM      3  N   UNL     1       3.143   4.443  18.603  0.00  0.00    +0.000 N 
ATOM      4  C   UNL     1       2.805   3.676  17.410  0.00  0.00    +0.000 C 
ATOM      5  C   UNL     1       4.462   4.759  18.954  0.00  0.00    +0.000 C 
ATOM      6  O   UNL     1       4.912   4.893  20.084  0.00  0.00    +0.000 OA
ATOM      7  C   UNL     1       5.245   5.205  17.808  0.00  0.00    +0.000 A 
ATOM      8  C   UNL     1       6.433   4.527  17.522  0.00  0.00    +0.000 A 
ATOM      9  C   UNL     1       7.005   4.680  16.269  0.00  0.00    +0.000 A 
ATOM     10  C   UNL     1       6.392   5.519  15.335  0.00  0.00    +0.000 A 
ATOM     11  C   UNL     1       5.251   6.267  15.675  0.00  0.00    +0.000 A 
ATOM     12  C   UNL     1       4.657   6.142  16.940  0.00  0.00    +0.000 A 
ATOM     13  C   UNL     1       3.398   6.959  17.291  0.00  0.00    +0.000 C 
ENDROOT
BRANCH   1  17
ATOM     14  C   UNL     1       1.001   9.822  21.064  0.00  0.00    +0.000 A 
ATOM     15  C   UNL     1       1.231   8.536  21.566  0.00  0.00    +0.000 A 
ATOM     16  C   UNL     1       1.686   7.520  20.720  0.00  0.00    +0.000 A 
ATOM     17  C   UNL     1       1.891   7.745  19.347  0.00  0.00    +0.000 A 
ATOM     18  C   UNL     1       1.557   8.998  18.833  0.00  0.00    +0.000 A 
ATOM     19  C   UNL     1       1.114  10.040  19.679  0.00  0.00    +0.000 A 
BRANCH  14  21
ATOM     20  C   UNL     1      -0.562  10.581  22.675  0.00  0.00    +0.000 C 
ATOM     21  O   UNL     1       0.614  10.831  21.897  0.00  0.00    +0.000 OA
ENDBRANCH  14  21
BRANCH  19  22
ATOM     22  O   UNL     1       0.850  11.194  18.984  0.00  0.00    +0.000 OA
ATOM     23  C   UNL     1      -0.496  11.492  18.639  0.00  0.00    +0.000 C 
ENDBRANCH  19  22
ENDBRANCH   1  17
TORSDOF 3
ENDMDL
MODEL 4
REMARK VINA RESULT:      -7.4      2.382      4.416
REMARK  Name = 
REMARK  6 active torsions:
REMARK  status: ('A' for Active; 'I' for Inactive)
REMARK    1  A    between atoms: C_1  and  O_2
REMARK    2  A    between atoms: O_2  and  C_3
REMARK    3  A    between atoms: C_6  and  C_7
REMARK    4  A    between atoms: N_9  and  C_10
REMARK    5  A    between atoms: C_21  and  O_22
REMARK    6  A    between atoms: O_22  and  C_23
REMARK                            x       y       z     vdW  Elec       q    Type
REMARK                         _______ _______ _______ _____ _____    ______ ____
ROOT
ATOM      1  C   UNL     1       2.375   6.992  19.263  0.00  0.00    +0.000 C 
ATOM      2  N   UNL     1       3.053   6.659  18.197  0.00  0.00    +0.000 NA
ATOM      3  N   UNL     1       3.217   5.317  17.983  0.00  0.00    +0.000 N 
ATOM      4  C   UNL     1       4.454   4.725  18.477  0.00  0.00    +0.000 C 
ATOM      5  C   UNL     1       1.996   4.630  17.975  0.00  0.00    +0.000 C 
ATOM      6  O   UNL     1       1.083   4.756  17.170  0.00  0.00    +0.000 OA
ATOM      7  C   UNL     1       1.766   3.901  19.216  0.00  0.00    +0.000 A 
ATOM      8  C   UNL     1       1.514   2.529  19.134  0.00  0.00    +0.000 A 
ATOM      9  C   UNL     1       1.644   1.756  20.277  0.00  0.00    +0.000 A 
ATOM     10  C   UNL     1       2.004   2.369  21.481  0.00  0.00    +0.000 A 
ATOM     11  C   UNL     1       2.159   3.764  21.563  0.00  0.00    +0.000 A 
ATOM     12  C   UNL     1       2.022   4.573  20.424  0.00  0.00    +0.000 A 
ATOM     13  C   UNL     1       2.208   6.100  20.530  0.00  0.00    +0.000 C 
ENDROOT
BRANCH   1  17
ATOM     14  C   UNL     1       0.411  10.848  18.859  0.00  0.00    +0.000 A 
ATOM     15  C   UNL     1       1.184  10.306  17.827  0.00  0.00    +0.000 A 
ATOM     16  C   UNL     1       1.836   9.082  18.003  0.00  0.00    +0.000 A 
ATOM     17  C   UNL     1       1.766   8.381  19.220  0.00  0.00    +0.000 A 
ATOM     18  C   UNL     1       1.083   8.979  20.280  0.00  0.00    +0.000 A 
ATOM     19  C   UNL     1       0.404  10.207  20.111  0.00  0.00    +0.000 A 
BRANCH  14  21
ATOM     20  C   UNL     1      -1.598  11.879  18.140  0.00  0.00    +0.000 C 
ATOM     21  O   UNL     1      -0.275  12.012  18.671  0.00  0.00    +0.000 OA
ENDBRANCH  14  21
BRANCH  19  22
ATOM     22  O   UNL     1      -0.214  10.618  21.265  0.00  0.00    +0.000 OA
ATOM     23  C   UNL     1      -0.165   9.773  22.406  0.00  0.00    +0.000 C 
ENDBRANCH  19  22
ENDBRANCH   1  17
TORSDOF 3
ENDMDL
MODEL 5
REMARK VINA RESULT:      -6.9      3.416      7.851
REMARK  Name = 
REMARK  6 active torsions:
REMARK  status: ('A' for Active; 'I' for Inactive)
REMARK    1  A    between atoms: C_1  and  O_2
REMARK    2  A    between atoms: O_2  and  C_3
REMARK    3  A    between atoms: C_6  and  C_7
REMARK    4  A    between atoms: N_9  and  C_10
REMARK    5  A    between atoms: C_21  and  O_22
REMARK    6  A    between atoms: O_22  and  C_23
REMARK                            x       y       z     vdW  Elec       q    Type
REMARK                         _______ _______ _______ _____ _____    ______ ____
ROOT
ATOM      1  C   UNL     1       5.754   5.151  16.205  0.00  0.00    +0.000 C 
ATOM      2  N   UNL     1       6.419   4.479  17.107  0.00  0.00    +0.000 NA
ATOM      3  N   UNL     1       5.883   4.467  18.366  0.00  0.00    +0.000 N 
ATOM      4  C   UNL     1       6.392   5.465  19.300  0.00  0.00    +0.000 C 
ATOM      5  C   UNL     1       4.551   4.032  18.370  0.00  0.00    +0.000 C 
ATOM      6  O   UNL     1       4.137   2.922  18.067  0.00  0.00    +0.000 OA
ATOM      7  C   UNL     1       3.612   5.137  18.516  0.00  0.00    +0.000 A 
ATOM      8  C   UNL     1       2.693   5.082  19.568  0.00  0.00    +0.000 A 
ATOM      9  C   UNL     1       2.042   6.245  19.948  0.00  0.00    +0.000 A 
ATOM     10  C   UNL     1       2.305   7.433  19.260  0.00  0.00    +0.000 A 
ATOM     11  C   UNL     1       3.160   7.447  18.143  0.00  0.00    +0.000 A 
ATOM     12  C   UNL     1       3.824   6.282  17.729  0.00  0.00    +0.000 A 
ATOM     13  C   UNL     1       4.768   6.319  16.511  0.00  0.00    +0.000 C 
ENDROOT
BRANCH   1  17
ATOM     14  C   UNL     1       6.870   3.799  12.228  0.00  0.00    +0.000 A 
ATOM     15  C   UNL     1       7.705   4.630  12.983  0.00  0.00    +0.000 A 
ATOM     16  C   UNL     1       7.299   5.081  14.243  0.00  0.00    +0.000 A 
ATOM     17  C   UNL     1       6.039   4.746  14.771  0.00  0.00    +0.000 A 
ATOM     18  C   UNL     1       5.169   4.008  13.969  0.00  0.00    +0.000 A 
ATOM     19  C   UNL     1       5.572   3.530  12.701  0.00  0.00    +0.000 A 
BRANCH  14  21
ATOM     20  C   UNL     1       7.465   1.889  10.958  0.00  0.00    +0.000 C 
ATOM     21  O   UNL     1       7.285   3.309  11.025  0.00  0.00    +0.000 OA
ENDBRANCH  14  21
BRANCH  19  22
ATOM     22  O   UNL     1       4.580   2.817  12.078  0.00  0.00    +0.000 OA
ATOM     23  C   UNL     1       3.867   3.426  11.010  0.00  0.00    +0.000 C 
ENDBRANCH  19  22
ENDBRANCH   1  17
TORSDOF 3
ENDMDL
MODEL 6
REMARK VINA RESULT:      -6.7      1.982      3.214
REMARK  Name = 
REMARK  6 active torsions:
REMARK  status: ('A' for Active; 'I' for Inactive)
REMARK    1  A    between atoms: C_1  and  O_2
REMARK    2  A    between atoms: O_2  and  C_3
REMARK    3  A    between atoms: C_6  and  C_7
REMARK    4  A    between atoms: N_9  and  C_10
REMARK    5  A    between atoms: C_21  and  O_22
REMARK    6  A    between atoms: O_22  and  C_23
REMARK                            x       y       z     vdW  Elec       q    Type
REMARK                         _______ _______ _______ _____ _____    ______ ____
ROOT
ATOM      1  C   UNL     1       2.740   6.561  19.119  0.00  0.00    +0.000 C 
ATOM      2  N   UNL     1       2.912   6.628  17.825  0.00  0.00    +0.000 NA
ATOM      3  N   UNL     1       3.234   5.455  17.199  0.00  0.00    +0.000 N 
ATOM      4  C   UNL     1       4.653   5.202  16.979  0.00  0.00    +0.000 C 
ATOM      5  C   UNL     1       2.315   4.435  17.480  0.00  0.00    +0.000 C 
ATOM      6  O   UNL     1       1.132   4.402  17.169  0.00  0.00    +0.000 OA
ATOM      7  C   UNL     1       2.832   3.482  18.454  0.00  0.00    +0.000 A 
ATOM      8  C   UNL     1       2.860   2.130  18.098  0.00  0.00    +0.000 A 
ATOM      9  C   UNL     1       3.653   1.263  18.832  0.00  0.00    +0.000 A 
ATOM     10  C   UNL     1       4.386   1.755  19.916  0.00  0.00    +0.000 A 
ATOM     11  C   UNL     1       4.268   3.099  20.317  0.00  0.00    +0.000 A 
ATOM     12  C   UNL     1       3.463   3.997  19.599  0.00  0.00    +0.000 A 
ATOM     13  C   UNL     1       3.357   5.469  20.045  0.00  0.00    +0.000 C 
ENDROOT
BRANCH   1  17
ATOM     14  C   UNL     1       0.617   9.812  21.071  0.00  0.00    +0.000 A 
ATOM     15  C   UNL     1       0.860   8.598  21.722  0.00  0.00    +0.000 A 
ATOM     16  C   UNL     1       1.510   7.557  21.053  0.00  0.00    +0.000 A 
ATOM     17  C   UNL     1       1.905   7.682  19.709  0.00  0.00    +0.000 A 
ATOM     18  C   UNL     1       1.563   8.853  19.033  0.00  0.00    +0.000 A 
ATOM     19  C   UNL     1       0.923   9.922  19.701  0.00  0.00    +0.000 A 
BRANCH  14  21
ATOM     20  C   UNL     1      -0.721  10.501  22.901  0.00  0.00    +0.000 C 
ATOM     21  O   UNL     1       0.037  10.851  21.737  0.00  0.00    +0.000 OA
ENDBRANCH  14  21
BRANCH  19  22
ATOM     22  O   UNL     1       0.686  10.985  18.868  0.00  0.00    +0.000 OA
ATOM     23  C   UNL     1       1.681  11.992  18.744  0.00  0.00    +0.000 C 
ENDBRANCH  19  22
ENDBRANCH   1  17
TORSDOF 3
ENDMDL
MODEL 7
REMARK VINA RESULT:      -6.7      2.522      7.642
REMARK  Name = 
REMARK  6 active torsions:
REMARK  status: ('A' for Active; 'I' for Inactive)
REMARK    1  A    between atoms: C_1  and  O_2
REMARK    2  A    between atoms: O_2  and  C_3
REMARK    3  A    between atoms: C_6  and  C_7
REMARK    4  A    between atoms: N_9  and  C_10
REMARK    5  A    between atoms: C_21  and  O_22
REMARK    6  A    between atoms: O_22  and  C_23
REMARK                            x       y       z     vdW  Elec       q    Type
REMARK                         _______ _______ _______ _____ _____    ______ ____
ROOT
ATOM      1  C   UNL     1       1.163   8.819  19.264  0.00  0.00    +0.000 C 
ATOM      2  N   UNL     1       0.833   9.466  18.178  0.00  0.00    +0.000 NA
ATOM      3  N   UNL     1       0.292  10.710  18.359  0.00  0.00    +0.000 N 
ATOM      4  C   UNL     1      -1.163  10.792  18.379  0.00  0.00    +0.000 C 
ATOM      5  C   UNL     1       1.110  11.533  19.144  0.00  0.00    +0.000 C 
ATOM      6  O   UNL     1       2.229  11.942  18.867  0.00  0.00    +0.000 OA
ATOM      7  C   UNL     1       0.614  11.662  20.509  0.00  0.00    +0.000 A 
ATOM      8  C   UNL     1       0.376  12.947  21.003  0.00  0.00    +0.000 A 
ATOM      9  C   UNL     1      -0.413  13.094  22.133  0.00  0.00    +0.000 A 
ATOM     10  C   UNL     1      -0.933  11.957  22.757  0.00  0.00    +0.000 A 
ATOM     11  C   UNL     1      -0.602  10.667  22.301  0.00  0.00    +0.000 A 
ATOM     12  C   UNL     1       0.204  10.488  21.167  0.00  0.00    +0.000 A 
ATOM     13  C   UNL     1       0.544   9.068  20.673  0.00  0.00    +0.000 C 
ENDROOT
BRANCH   1  17
ATOM     14  C   UNL     1       3.837   5.446  18.668  0.00  0.00    +0.000 A 
ATOM     15  C   UNL     1       3.011   5.539  19.794  0.00  0.00    +0.000 A 
ATOM     16  C   UNL     1       2.192   6.657  19.977  0.00  0.00    +0.000 A 
ATOM     17  C   UNL     1       2.196   7.727  19.065  0.00  0.00    +0.000 A 
ATOM     18  C   UNL     1       3.100   7.677  18.003  0.00  0.00    +0.000 A 
ATOM     19  C   UNL     1       3.921   6.546  17.795  0.00  0.00    +0.000 A 
BRANCH  14  21
ATOM     20  C   UNL     1       4.009   3.331  17.613  0.00  0.00    +0.000 C 
ATOM     21  O   UNL     1       4.594   4.331  18.455  0.00  0.00    +0.000 OA
ENDBRANCH  14  21
BRANCH  19  22
ATOM     22  O   UNL     1       4.727   6.688  16.694  0.00  0.00    +0.000 OA
ATOM     23  C   UNL     1       6.104   6.982  16.887  0.00  0.00    +0.000 C 
ENDBRANCH  19  22
ENDBRANCH   1  17
TORSDOF 3
ENDMDL
MODEL 8
REMARK VINA RESULT:      -6.7      3.174      8.011
REMARK  Name = 
REMARK  6 active torsions:
REMARK  status: ('A' for Active; 'I' for Inactive)
REMARK    1  A    between atoms: C_1  and  O_2
REMARK    2  A    between atoms: O_2  and  C_3
REMARK    3  A    between atoms: C_6  and  C_7
REMARK    4  A    between atoms: N_9  and  C_10
REMARK    5  A    between atoms: C_21  and  O_22
REMARK    6  A    between atoms: O_22  and  C_23
REMARK                            x       y       z     vdW  Elec       q    Type
REMARK                         _______ _______ _______ _____ _____    ______ ____
ROOT
ATOM      1  C   UNL     1       1.148   9.848  18.651  0.00  0.00    +0.000 C 
ATOM      2  N   UNL     1       1.883  10.875  18.989  0.00  0.00    +0.000 NA
ATOM      3  N   UNL     1       1.208  11.971  19.453  0.00  0.00    +0.000 N 
ATOM      4  C   UNL     1       0.902  13.009  18.477  0.00  0.00    +0.000 C 
ATOM      5  C   UNL     1       0.356  11.655  20.519  0.00  0.00    +0.000 C 
ATOM      6  O   UNL     1       0.679  11.250  21.628  0.00  0.00    +0.000 OA
ATOM      7  C   UNL     1      -1.041  11.587  20.106  0.00  0.00    +0.000 A 
ATOM      8  C   UNL     1      -1.964  12.391  20.780  0.00  0.00    +0.000 A 
ATOM      9  C   UNL     1      -3.201  12.618  20.198  0.00  0.00    +0.000 A 
ATOM     10  C   UNL     1      -3.499  12.026  18.968  0.00  0.00    +0.000 A 
ATOM     11  C   UNL     1      -2.593  11.143  18.353  0.00  0.00    +0.000 A 
ATOM     12  C   UNL     1      -1.338  10.884  18.925  0.00  0.00    +0.000 A 
ATOM     13  C   UNL     1      -0.351   9.924  18.231  0.00  0.00    +0.000 C 
ENDROOT
BRANCH   1  17
ATOM     14  C   UNL     1       3.562   6.234  18.644  0.00  0.00    +0.000 A 
ATOM     15  C   UNL     1       3.626   7.163  17.599  0.00  0.00    +0.000 A 
ATOM     16  C   UNL     1       2.807   8.295  17.611  0.00  0.00    +0.000 A 
ATOM     17  C   UNL     1       1.878   8.518  18.643  0.00  0.00    +0.000 A 
ATOM     18  C   UNL     1       1.742   7.536  19.624  0.00  0.00    +0.000 A 
ATOM     19  C   UNL     1       2.576   6.395  19.635  0.00  0.00    +0.000 A 
BRANCH  14  21
ATOM     20  C   UNL     1       4.000   4.038  17.868  0.00  0.00    +0.000 C 
ATOM     21  O   UNL     1       4.400   5.158  18.666  0.00  0.00    +0.000 OA
ENDBRANCH  14  21
BRANCH  19  22
ATOM     22  O   UNL     1       2.294   5.558  20.686  0.00  0.00    +0.000 OA
ATOM     23  C   UNL     1       1.305   4.553  20.512  0.00  0.00    +0.000 C 
ENDBRANCH  19  22
ENDBRANCH   1  17
TORSDOF 3
ENDMDL
MODEL 9
REMARK VINA RESULT:      -6.6      2.430      4.009
REMARK  Name = 
REMARK  6 active torsions:
REMARK  status: ('A' for Active; 'I' for Inactive)
REMARK    1  A    between atoms: C_1  and  O_2
REMARK    2  A    between atoms: O_2  and  C_3
REMARK    3  A    between atoms: C_6  and  C_7
REMARK    4  A    between atoms: N_9  and  C_10
REMARK    5  A    between atoms: C_21  and  O_22
REMARK    6  A    between atoms: O_22  and  C_23
REMARK                            x       y       z     vdW  Elec       q    Type
REMARK                         _______ _______ _______ _____ _____    ______ ____
ROOT
ATOM      1  C   UNL     1       2.110   7.234  19.909  0.00  0.00    +0.000 C 
ATOM      2  N   UNL     1       2.887   7.190  18.859  0.00  0.00    +0.000 NA
ATOM      3  N   UNL     1       3.169   5.944  18.370  0.00  0.00    +0.000 N 
ATOM      4  C   UNL     1       4.410   5.330  18.828  0.00  0.00    +0.000 C 
ATOM      5  C   UNL     1       2.009   5.205  18.105  0.00  0.00    +0.000 C 
ATOM      6  O   UNL     1       1.149   5.455  17.271  0.00  0.00    +0.000 OA
ATOM      7  C   UNL     1       1.748   4.202  19.130  0.00  0.00    +0.000 A 
ATOM      8  C   UNL     1       1.609   2.871  18.727  0.00  0.00    +0.000 A 
ATOM      9  C   UNL     1       1.716   1.870  19.678  0.00  0.00    +0.000 A 
ATOM     10  C   UNL     1       1.941   2.216  21.014  0.00  0.00    +0.000 A 
ATOM     11  C   UNL     1       1.981   3.563  21.414  0.00  0.00    +0.000 A 
ATOM     12  C   UNL     1       1.863   4.599  20.474  0.00  0.00    +0.000 A 
ATOM     13  C   UNL     1       1.923   6.070  20.929  0.00  0.00    +0.000 C 
ENDROOT
BRANCH   1  17
ATOM     14  C   UNL     1       0.298  11.079  20.814  0.00  0.00    +0.000 A 
ATOM     15  C   UNL     1       0.202   9.996  21.695  0.00  0.00    +0.000 A 
ATOM     16  C   UNL     1       0.762   8.760  21.357  0.00  0.00    +0.000 A 
ATOM     17  C   UNL     1       1.400   8.558  20.120  0.00  0.00    +0.000 A 
ATOM     18  C   UNL     1       1.397   9.609  19.203  0.00  0.00    +0.000 A 
ATOM     19  C   UNL     1       0.852  10.869  19.538  0.00  0.00    +0.000 A 
BRANCH  14  21
ATOM     20  C   UNL     1      -0.901  12.357  22.409  0.00  0.00    +0.000 C 
ATOM     21  O   UNL     1      -0.194  12.302  21.165  0.00  0.00    +0.000 OA
ENDBRANCH  14  21
BRANCH  19  22
ATOM     22  O   UNL     1       0.958  11.769  18.507  0.00  0.00    +0.000 OA
ATOM     23  C   UNL     1       2.102  12.611  18.450  0.00  0.00    +0.000 C 
ENDBRANCH  19  22
ENDBRANCH   1  17
TORSDOF 3
ENDMDL
