MODEL 1
REMARK VINA RESULT:      -8.5      0.000      0.000
REMARK  Name = 
REMARK  5 active torsions:
REMARK  status: ('A' for Active; 'I' for Inactive)
REMARK    1  A    between atoms: C_7  and  C_8
REMARK    2  A    between atoms: C_12  and  N_13
REMARK    3  A    between atoms: C_19  and  C_20
REMARK    4  A    between atoms: N_23  and  C_24
REMARK    5  A    between atoms: C_24  and  C_25
REMARK                            x       y       z     vdW  Elec       q    Type
REMARK                         _______ _______ _______ _____ _____    ______ ____
ROOT
ATOM      1  N   UNL     1       1.308   8.948  19.694  0.00  0.00    +0.000 N 
ATOM      2  N   UNL     1       0.912   8.535  20.957  0.00  0.00    +0.000 NA
ATOM      3  C   UNL     1       1.268   7.281  21.095  0.00  0.00    +0.000 A 
ATOM      4  C   UNL     1       2.049   6.853  20.038  0.00  0.00    +0.000 A 
ATOM      5  C   UNL     1       2.668   5.634  19.823  0.00  0.00    +0.000 A 
ATOM      6  N   UNL     1       3.425   5.445  18.745  0.00  0.00    +0.000 NA
ATOM      7  C   UNL     1       3.602   6.448  17.849  0.00  0.00    +0.000 A 
ATOM      8  C   UNL     1       2.997   7.729  17.979  0.00  0.00    +0.000 A 
ATOM      9  C   UNL     1       2.159   7.935  19.129  0.00  0.00    +0.000 A 
ENDROOT
BRANCH   1  14
ATOM     10  C   UNL     1       0.416  12.610  19.145  0.00  0.00    +0.000 A 
ATOM     11  C   UNL     1      -0.739  12.458  18.360  0.00  0.00    +0.000 A 
ATOM     12  C   UNL     1      -1.200  11.203  18.072  0.00  0.00    +0.000 A 
ATOM     13  C   UNL     1      -0.480  10.127  18.555  0.00  0.00    +0.000 A 
ATOM     14  C   UNL     1       0.712  10.265  19.325  0.00  0.00    +0.000 A 
ATOM     15  N   UNL     1       1.184  11.524  19.615  0.00  0.00    +0.000 NA
BRANCH  10  22
ATOM     16  F   UNL     1       1.925  15.983  18.628  0.00  0.00    +0.000 F 
ATOM     17  C   UNL     1       1.977  14.610  18.582  0.00  0.00    +0.000 C 
ATOM     18  C   UNL     1       3.303  14.182  19.187  0.00  0.00    +0.000 C 
ATOM     19  C   UNL     1       3.384  14.472  20.686  0.00  0.00    +0.000 C 
ATOM     20  N   UNL     1       2.228  13.965  21.426  0.00  0.00    +0.000 NA
ATOM     21  C   UNL     1       0.985  14.487  20.855  0.00  0.00    +0.000 C 
ATOM     22  C   UNL     1       0.788  14.089  19.363  0.00  0.00    +0.000 C 
ATOM     23  H   UNL     1       2.302  14.256  22.403  0.00  0.00    +0.000 HD
ENDBRANCH  10  22
ENDBRANCH   1  14
BRANCH   7  24
ATOM     24  C   UNL     1       4.458   5.931  16.768  0.00  0.00    +0.000 A 
ATOM     25  C   UNL     1       5.315   6.721  15.938  0.00  0.00    +0.000 A 
ATOM     26  N   UNL     1       5.991   6.011  15.035  0.00  0.00    +0.000 NA
ATOM     27  N   UNL     1       5.564   4.754  15.244  0.00  0.00    +0.000 N 
ATOM     28  C   UNL     1       4.636   4.658  16.267  0.00  0.00    +0.000 A 
BRANCH  27  29
ATOM     29  C   UNL     1       6.261   3.699  14.552  0.00  0.00    +0.000 C 
BRANCH  29  30
ATOM     30  C   UNL     1       6.028   3.655  13.062  0.00  0.00    +0.000 C 
ATOM     31  F   UNL     1       6.854   4.431  12.335  0.00  0.00    +0.000 F 
ATOM     32  F   UNL     1       6.135   2.387  12.587  0.00  0.00    +0.000 F 
ATOM     33  F   UNL     1       4.760   4.058  12.782  0.00  0.00    +0.000 F 
ENDBRANCH  29  30
ENDBRANCH  27  29
ENDBRANCH   7  24
TORSDOF 5
ENDMDL
MODEL 2
REMARK VINA RESULT:      -8.3      2.053      3.188
REMARK  Name = 
REMARK  5 active torsions:
REMARK  status: ('A' for Active; 'I' for Inactive)
REMARK    1  A    between atoms: C_7  and  C_8
REMARK    2  A    between atoms: C_12  and  N_13
REMARK    3  A    between atoms: C_19  and  C_20
REMARK    4  A    between atoms: N_23  and  C_24
REMARK    5  A    between atoms: C_24  and  C_25
REMARK                            x       y       z     vdW  Elec       q    Type
REMARK                         _______ _______ _______ _____ _____    ______ ____
ROOT
ATOM      1  N   UNL     1       2.261   6.577  19.974  0.00  0.00    +0.000 N 
ATOM      2  N   UNL     1       1.784   5.651  20.889  0.00  0.00    +0.000 NA
ATOM      3  C   UNL     1       2.137   4.460  20.470  0.00  0.00    +0.000 A 
ATOM      4  C   UNL     1       2.990   4.532  19.385  0.00  0.00    +0.000 A 
ATOM      5  C   UNL     1       3.631   3.524  18.685  0.00  0.00    +0.000 A 
ATOM      6  N   UNL     1       4.460   3.821  17.688  0.00  0.00    +0.000 NA
ATOM      7  C   UNL     1       4.691   5.115  17.351  0.00  0.00    +0.000 A 
ATOM      8  C   UNL     1       4.071   6.215  18.005  0.00  0.00    +0.000 A 
ATOM      9  C   UNL     1       3.155   5.904  19.069  0.00  0.00    +0.000 A 
ENDROOT
BRANCH   1  14
ATOM     10  C   UNL     1       0.793  10.084  19.750  0.00  0.00    +0.000 A 
ATOM     11  C   UNL     1       0.589  10.344  21.115  0.00  0.00    +0.000 A 
ATOM     12  C   UNL     1       0.958   9.410  22.043  0.00  0.00    +0.000 A 
ATOM     13  C   UNL     1       1.501   8.226  21.583  0.00  0.00    +0.000 A 
ATOM     14  C   UNL     1       1.684   7.934  20.199  0.00  0.00    +0.000 A 
ATOM     15  N   UNL     1       1.312   8.867  19.260  0.00  0.00    +0.000 NA
BRANCH  10  22
ATOM     16  F   UNL     1      -0.045  13.526  18.578  0.00  0.00    +0.000 F 
ATOM     17  C   UNL     1       0.007  12.552  19.548  0.00  0.00    +0.000 C 
ATOM     18  C   UNL     1      -1.340  12.535  20.250  0.00  0.00    +0.000 C 
ATOM     19  C   UNL     1      -2.468  12.046  19.342  0.00  0.00    +0.000 C 
ATOM     20  N   UNL     1      -2.154  10.780  18.676  0.00  0.00    +0.000 NA
ATOM     21  C   UNL     1      -0.893  10.888  17.939  0.00  0.00    +0.000 C 
ATOM     22  C   UNL     1       0.316  11.242  18.853  0.00  0.00    +0.000 C 
ATOM     23  H   UNL     1      -2.908  10.547  18.028  0.00  0.00    +0.000 HD
ENDBRANCH  10  22
ENDBRANCH   1  14
BRANCH   7  24
ATOM     24  C   UNL     1       5.622   5.116  16.210  0.00  0.00    +0.000 A 
ATOM     25  C   UNL     1       7.026   5.381  16.285  0.00  0.00    +0.000 A 
ATOM     26  N   UNL     1       7.647   5.316  15.107  0.00  0.00    +0.000 NA
ATOM     27  N   UNL     1       6.654   5.037  14.246  0.00  0.00    +0.000 N 
ATOM     28  C   UNL     1       5.419   4.918  14.860  0.00  0.00    +0.000 A 
BRANCH  27  29
ATOM     29  C   UNL     1       7.030   4.701  12.896  0.00  0.00    +0.000 C 
BRANCH  29  30
ATOM     30  C   UNL     1       6.393   3.446  12.353  0.00  0.00    +0.000 C 
ATOM     31  F   UNL     1       6.062   2.529  13.283  0.00  0.00    +0.000 F 
ATOM     32  F   UNL     1       5.270   3.733  11.646  0.00  0.00    +0.000 F 
ATOM     33  F   UNL     1       7.243   2.837  11.484  0.00  0.00    +0.000 F 
ENDBRANCH  29  30
ENDBRANCH  27  29
ENDBRANCH   7  24
TORSDOF 5
ENDMDL
MODEL 3
REMARK VINA RESULT:      -8.3      3.554      9.730
REMARK  Name = 
REMARK  5 active torsions:
REMARK  status: ('A' for Active; 'I' for Inactive)
REMARK    1  A    between atoms: C_7  and  C_8
REMARK    2  A    between atoms: C_12  and  N_13
REMARK    3  A    between atoms: C_19  and  C_20
REMARK    4  A    between atoms: N_23  and  C_24
REMARK    5  A    between atoms: C_24  and  C_25
REMARK                            x       y       z     vdW  Elec       q    Type
REMARK                         _______ _______ _______ _____ _____    ______ ____
ROOT
ATOM      1  N   UNL     1       0.778   8.884  20.834  0.00  0.00    +0.000 N 
ATOM      2  N   UNL     1      -0.088   8.311  21.753  0.00  0.00    +0.000 NA
ATOM      3  C   UNL     1      -0.558   9.273  22.509  0.00  0.00    +0.000 A 
ATOM      4  C   UNL     1      -0.183  10.519  22.044  0.00  0.00    +0.000 A 
ATOM      5  C   UNL     1      -0.508  11.781  22.511  0.00  0.00    +0.000 A 
ATOM      6  N   UNL     1      -0.073  12.866  21.875  0.00  0.00    +0.000 NA
ATOM      7  C   UNL     1       0.689  12.745  20.759  0.00  0.00    +0.000 A 
ATOM      8  C   UNL     1       1.082  11.493  20.212  0.00  0.00    +0.000 A 
ATOM      9  C   UNL     1       0.636  10.315  20.905  0.00  0.00    +0.000 A 
ENDROOT
BRANCH   1  14
ATOM     10  C   UNL     1       2.627   5.796  19.591  0.00  0.00    +0.000 A 
ATOM     11  C   UNL     1       3.117   6.288  18.369  0.00  0.00    +0.000 A 
ATOM     12  C   UNL     1       2.867   7.584  18.015  0.00  0.00    +0.000 A 
ATOM     13  C   UNL     1       2.112   8.353  18.878  0.00  0.00    +0.000 A 
ATOM     14  C   UNL     1       1.580   7.859  20.106  0.00  0.00    +0.000 A 
ATOM     15  N   UNL     1       1.823   6.555  20.467  0.00  0.00    +0.000 NA
BRANCH  10  22
ATOM     16  F   UNL     1       3.650   2.268  18.929  0.00  0.00    +0.000 F 
ATOM     17  C   UNL     1       2.958   3.413  18.609  0.00  0.00    +0.000 C 
ATOM     18  C   UNL     1       1.543   3.002  18.239  0.00  0.00    +0.000 C 
ATOM     19  C   UNL     1       0.759   2.458  19.433  0.00  0.00    +0.000 C 
ATOM     20  N   UNL     1       0.812   3.344  20.598  0.00  0.00    +0.000 NA
ATOM     21  C   UNL     1       2.201   3.627  20.964  0.00  0.00    +0.000 C 
ATOM     22  C   UNL     1       3.000   4.319  19.822  0.00  0.00    +0.000 C 
ATOM     23  H   UNL     1       0.338   2.892  21.382  0.00  0.00    +0.000 HD
ENDBRANCH  10  22
ENDBRANCH   1  14
BRANCH   7  24
ATOM     24  C   UNL     1       1.030  14.105  20.306  0.00  0.00    +0.000 A 
ATOM     25  C   UNL     1       1.579  15.139  21.128  0.00  0.00    +0.000 A 
ATOM     26  N   UNL     1       1.803  16.281  20.475  0.00  0.00    +0.000 NA
ATOM     27  N   UNL     1       1.377  16.015  19.229  0.00  0.00    +0.000 N 
ATOM     28  C   UNL     1       0.895  14.725  19.081  0.00  0.00    +0.000 A 
BRANCH  27  29
ATOM     29  C   UNL     1       1.669  16.994  18.211  0.00  0.00    +0.000 C 
BRANCH  29  30
ATOM     30  C   UNL     1       2.936  16.741  17.433  0.00  0.00    +0.000 C 
ATOM     31  F   UNL     1       3.134  15.459  17.070  0.00  0.00    +0.000 F 
ATOM     32  F   UNL     1       2.976  17.495  16.304  0.00  0.00    +0.000 F 
ATOM     33  F   UNL     1       4.014  17.112  18.174  0.00  0.00    +0.000 F 
ENDBRANCH  29  30
ENDBRANCH  27  29
ENDBRANCH   7  24
TORSDOF 5
ENDMDL
MODEL 4
REMARK VINA RESULT:      -8.2      1.627      2.342
REMARK  Name = 
REMARK  5 active torsions:
REMARK  status: ('A' for Active; 'I' for Inactive)
REMARK    1  A    between atoms: C_7  and  C_8
REMARK    2  A    between atoms: C_12  and  N_13
REMARK    3  A    between atoms: C_19  and  C_20
REMARK    4  A    between atoms: N_23  and  C_24
REMARK    5  A    between atoms: C_24  and  C_25
REMARK                            x       y       z     vdW  Elec       q    Type
REMARK                         _______ _______ _______ _____ _____    ______ ____
ROOT
ATOM      1  N   UNL     1       2.117   6.739  20.002  0.00  0.00    +0.000 N 
ATOM      2  N   UNL     1       1.605   5.880  20.962  0.00  0.00    +0.000 NA
ATOM      3  C   UNL     1       1.975   4.664  20.644  0.00  0.00    +0.000 A 
ATOM      4  C   UNL     1       2.869   4.660  19.590  0.00  0.00    +0.000 A 
ATOM      5  C   UNL     1       3.536   3.607  18.988  0.00  0.00    +0.000 A 
ATOM      6  N   UNL     1       4.402   3.834  18.004  0.00  0.00    +0.000 NA
ATOM      7  C   UNL     1       4.645   5.101  17.585  0.00  0.00    +0.000 A 
ATOM      8  C   UNL     1       4.000   6.244  18.134  0.00  0.00    +0.000 A 
ATOM      9  C   UNL     1       3.045   6.007  19.182  0.00  0.00    +0.000 A 
ENDROOT
BRANCH   1  14
ATOM     10  C   UNL     1       0.958  10.339  19.554  0.00  0.00    +0.000 A 
ATOM     11  C   UNL     1       0.211  10.498  20.733  0.00  0.00    +0.000 A 
ATOM     12  C   UNL     1       0.139   9.468  21.629  0.00  0.00    +0.000 A 
ATOM     13  C   UNL     1       0.795   8.294  21.315  0.00  0.00    +0.000 A 
ATOM     14  C   UNL     1       1.531   8.107  20.107  0.00  0.00    +0.000 A 
ATOM     15  N   UNL     1       1.604   9.137  19.199  0.00  0.00    +0.000 NA
BRANCH  10  22
ATOM     16  F   UNL     1       2.092  13.244  17.502  0.00  0.00    +0.000 F 
ATOM     17  C   UNL     1       2.202  12.407  18.588  0.00  0.00    +0.000 C 
ATOM     18  C   UNL     1       2.413  13.276  19.815  0.00  0.00    +0.000 C 
ATOM     19  C   UNL     1       1.181  14.113  20.159  0.00  0.00    +0.000 C 
ATOM     20  N   UNL     1      -0.046  13.317  20.226  0.00  0.00    +0.000 NA
ATOM     21  C   UNL     1      -0.244  12.575  18.979  0.00  0.00    +0.000 C 
ATOM     22  C   UNL     1       0.925  11.597  18.663  0.00  0.00    +0.000 C 
ATOM     23  H   UNL     1      -0.841  13.939  20.382  0.00  0.00    +0.000 HD
ENDBRANCH  10  22
ENDBRANCH   1  14
BRANCH   7  24
ATOM     24  C   UNL     1       5.618   5.024  16.483  0.00  0.00    +0.000 A 
ATOM     25  C   UNL     1       7.019   4.770  16.629  0.00  0.00    +0.000 A 
ATOM     26  N   UNL     1       7.683   4.745  15.472  0.00  0.00    +0.000 NA
ATOM     27  N   UNL     1       6.732   5.011  14.562  0.00  0.00    +0.000 N 
ATOM     28  C   UNL     1       5.479   5.196  15.121  0.00  0.00    +0.000 A 
BRANCH  27  29
ATOM     29  C   UNL     1       7.090   4.858  13.174  0.00  0.00    +0.000 C 
BRANCH  29  30
ATOM     30  C   UNL     1       6.514   3.638  12.500  0.00  0.00    +0.000 C 
ATOM     31  F   UNL     1       7.295   3.094  11.547  0.00  0.00    +0.000 F 
ATOM     32  F   UNL     1       6.237   2.664  13.405  0.00  0.00    +0.000 F 
ATOM     33  F   UNL     1       5.331   3.953  11.909  0.00  0.00    +0.000 F 
ENDBRANCH  29  30
ENDBRANCH  27  29
ENDBRANCH   7  24
TORSDOF 5
ENDMDL
MODEL 5
REMARK VINA RESULT:      -8.2      3.486     10.123
REMARK  Name = 
REMARK  5 active torsions:
REMARK  status: ('A' for Active; 'I' for Inactive)
REMARK    1  A    between atoms: C_7  and  C_8
REMARK    2  A    between atoms: C_12  and  N_13
REMARK    3  A    between atoms: C_19  and  C_20
REMARK    4  A    between atoms: N_23  and  C_24
REMARK    5  A    between atoms: C_24  and  C_25
REMARK                            x       y       z     vdW  Elec       q    Type
REMARK                         _______ _______ _______ _____ _____    ______ ____
ROOT
ATOM      1  N   UNL     1       0.927   9.026  20.513  0.00  0.00    +0.000 N 
ATOM      2  N   UNL     1       0.081   8.525  21.490  0.00  0.00    +0.000 NA
ATOM      3  C   UNL     1      -0.378   9.541  22.178  0.00  0.00    +0.000 A 
ATOM      4  C   UNL     1      -0.016  10.748  21.610  0.00  0.00    +0.000 A 
ATOM      5  C   UNL     1      -0.336  12.042  21.984  0.00  0.00    +0.000 A 
ATOM      6  N   UNL     1       0.084  13.075  21.257  0.00  0.00    +0.000 NA
ATOM      7  C   UNL     1       0.825  12.869  20.140  0.00  0.00    +0.000 A 
ATOM      8  C   UNL     1       1.212  11.579  19.685  0.00  0.00    +0.000 A 
ATOM      9  C   UNL     1       0.783  10.458  20.475  0.00  0.00    +0.000 A 
ENDROOT
BRANCH   1  14
ATOM     10  C   UNL     1       2.729   5.840  19.460  0.00  0.00    +0.000 A 
ATOM     11  C   UNL     1       3.251   6.259  18.225  0.00  0.00    +0.000 A 
ATOM     12  C   UNL     1       3.037   7.542  17.802  0.00  0.00    +0.000 A 
ATOM     13  C   UNL     1       2.284   8.369  18.612  0.00  0.00    +0.000 A 
ATOM     14  C   UNL     1       1.719   7.948  19.852  0.00  0.00    +0.000 A 
ATOM     15  N   UNL     1       1.927   6.659  20.282  0.00  0.00    +0.000 NA
BRANCH  10  22
ATOM     16  F   UNL     1       3.669   2.259  18.993  0.00  0.00    +0.000 F 
ATOM     17  C   UNL     1       3.006   3.401  18.608  0.00  0.00    +0.000 C 
ATOM     18  C   UNL     1       1.584   3.006  18.251  0.00  0.00    +0.000 C 
ATOM     19  C   UNL     1       0.781   2.545  19.467  0.00  0.00    +0.000 C 
ATOM     20  N   UNL     1       0.849   3.489  20.584  0.00  0.00    +0.000 NA
ATOM     21  C   UNL     1       2.243   3.758  20.943  0.00  0.00    +0.000 C 
ATOM     22  C   UNL     1       3.065   4.369  19.771  0.00  0.00    +0.000 C 
ATOM     23  H   UNL     1       0.361   3.091  21.388  0.00  0.00    +0.000 HD
ENDBRANCH  10  22
ENDBRANCH   1  14
BRANCH   7  24
ATOM     24  C   UNL     1       1.153  14.190  19.577  0.00  0.00    +0.000 A 
ATOM     25  C   UNL     1       2.208  14.457  18.649  0.00  0.00    +0.000 A 
ATOM     26  N   UNL     1       2.293  15.738  18.287  0.00  0.00    +0.000 NA
ATOM     27  N   UNL     1       1.315  16.327  18.995  0.00  0.00    +0.000 N 
ATOM     28  C   UNL     1       0.610  15.440  19.791  0.00  0.00    +0.000 A 
BRANCH  27  29
ATOM     29  C   UNL     1       1.008  17.699  18.676  0.00  0.00    +0.000 C 
BRANCH  29  30
ATOM     30  C   UNL     1      -0.152  17.887  17.731  0.00  0.00    +0.000 C 
ATOM     31  F   UNL     1      -0.712  16.746  17.285  0.00  0.00    +0.000 F 
ATOM     32  F   UNL     1      -1.136  18.628  18.303  0.00  0.00    +0.000 F 
ATOM     33  F   UNL     1       0.255  18.581  16.635  0.00  0.00    +0.000 F 
ENDBRANCH  29  30
ENDBRANCH  27  29
ENDBRANCH   7  24
TORSDOF 5
ENDMDL
MODEL 6
REMARK VINA RESULT:      -8.1      2.045      3.040
REMARK  Name = 
REMARK  5 active torsions:
REMARK  status: ('A' for Active; 'I' for Inactive)
REMARK    1  A    between atoms: C_7  and  C_8
REMARK    2  A    between atoms: C_12  and  N_13
REMARK    3  A    between atoms: C_19  and  C_20
REMARK    4  A    between atoms: N_23  and  C_24
REMARK    5  A    between atoms: C_24  and  C_25
REMARK                            x       y       z     vdW  Elec       q    Type
REMARK                         _______ _______ _______ _____ _____    ______ ____
ROOT
ATOM      1  N   UNL     1       1.833   6.814  20.244  0.00  0.00    +0.000 N 
ATOM      2  N   UNL     1       1.362   5.945  21.216  0.00  0.00    +0.000 NA
ATOM      3  C   UNL     1       1.628   4.724  20.820  0.00  0.00    +0.000 A 
ATOM      4  C   UNL     1       2.418   4.715  19.687  0.00  0.00    +0.000 A 
ATOM      5  C   UNL     1       2.963   3.652  18.988  0.00  0.00    +0.000 A 
ATOM      6  N   UNL     1       3.747   3.871  17.935  0.00  0.00    +0.000 NA
ATOM      7  C   UNL     1       4.025   5.139  17.540  0.00  0.00    +0.000 A 
ATOM      8  C   UNL     1       3.502   6.292  18.189  0.00  0.00    +0.000 A 
ATOM      9  C   UNL     1       2.636   6.065  19.313  0.00  0.00    +0.000 A 
ENDROOT
BRANCH   1  14
ATOM     10  C   UNL     1       0.537  10.385  19.980  0.00  0.00    +0.000 A 
ATOM     11  C   UNL     1       0.429  10.701  21.345  0.00  0.00    +0.000 A 
ATOM     12  C   UNL     1       0.805   9.779  22.282  0.00  0.00    +0.000 A 
ATOM     13  C   UNL     1       1.257   8.553  21.834  0.00  0.00    +0.000 A 
ATOM     14  C   UNL     1       1.341   8.207  20.453  0.00  0.00    +0.000 A 
ATOM     15  N   UNL     1       0.961   9.127  19.505  0.00  0.00    +0.000 NA
BRANCH  10  22
ATOM     16  F   UNL     1      -0.657  13.742  18.868  0.00  0.00    +0.000 F 
ATOM     17  C   UNL     1      -0.645  12.688  19.752  0.00  0.00    +0.000 C 
ATOM     18  C   UNL     1      -2.089  12.360  20.091  0.00  0.00    +0.000 C 
ATOM     19  C   UNL     1      -2.856  11.789  18.898  0.00  0.00    +0.000 C 
ATOM     20  N   UNL     1      -2.154  10.680  18.250  0.00  0.00    +0.000 NA
ATOM     21  C   UNL     1      -0.802  11.086  17.862  0.00  0.00    +0.000 C 
ATOM     22  C   UNL     1       0.067  11.538  19.071  0.00  0.00    +0.000 C 
ATOM     23  H   UNL     1      -2.676  10.395  17.419  0.00  0.00    +0.000 HD
ENDBRANCH  10  22
ENDBRANCH   1  14
BRANCH   7  24
ATOM     24  C   UNL     1       4.886   5.054  16.349  0.00  0.00    +0.000 A 
ATOM     25  C   UNL     1       5.500   6.164  15.688  0.00  0.00    +0.000 A 
ATOM     26  N   UNL     1       6.238   5.819  14.632  0.00  0.00    +0.000 NA
ATOM     27  N   UNL     1       6.092   4.484  14.573  0.00  0.00    +0.000 N 
ATOM     28  C   UNL     1       5.282   3.981  15.577  0.00  0.00    +0.000 A 
BRANCH  27  29
ATOM     29  C   UNL     1       6.936   3.771  13.648  0.00  0.00    +0.000 C 
BRANCH  29  30
ATOM     30  C   UNL     1       6.352   3.584  12.270  0.00  0.00    +0.000 C 
ATOM     31  F   UNL     1       6.844   4.411  11.328  0.00  0.00    +0.000 F 
ATOM     32  F   UNL     1       6.532   2.312  11.830  0.00  0.00    +0.000 F 
ATOM     33  F   UNL     1       5.008   3.785  12.309  0.00  0.00    +0.000 F 
ENDBRANCH  29  30
ENDBRANCH  27  29
ENDBRANCH   7  24
TORSDOF 5
ENDMDL
MODEL 7
REMARK VINA RESULT:      -8.1      2.052      2.620
REMARK  Name = 
REMARK  5 active torsions:
REMARK  status: ('A' for Active; 'I' for Inactive)
REMARK    1  A    between atoms: C_7  and  C_8
REMARK    2  A    between atoms: C_12  and  N_13
REMARK    3  A    between atoms: C_19  and  C_20
REMARK    4  A    between atoms: N_23  and  C_24
REMARK    5  A    between atoms: C_24  and  C_25
REMARK                            x       y       z     vdW  Elec       q    Type
REMARK                         _______ _______ _______ _____ _____    ______ ____
ROOT
ATOM      1  N   UNL     1       1.508   8.109  19.954  0.00  0.00    +0.000 N 
ATOM      2  N   UNL     1       1.160   7.538  21.169  0.00  0.00    +0.000 NA
ATOM      3  C   UNL     1       1.541   6.285  21.142  0.00  0.00    +0.000 A 
ATOM      4  C   UNL     1       2.294   6.003  20.019  0.00  0.00    +0.000 A 
ATOM      5  C   UNL     1       2.927   4.832  19.639  0.00  0.00    +0.000 A 
ATOM      6  N   UNL     1       3.652   4.791  18.524  0.00  0.00    +0.000 NA
ATOM      7  C   UNL     1       3.784   5.898  17.752  0.00  0.00    +0.000 A 
ATOM      8  C   UNL     1       3.162   7.141  18.055  0.00  0.00    +0.000 A 
ATOM      9  C   UNL     1       2.358   7.189  19.245  0.00  0.00    +0.000 A 
ENDROOT
BRANCH   1  14
ATOM     10  C   UNL     1      -0.018  11.584  20.266  0.00  0.00    +0.000 A 
ATOM     11  C   UNL     1      -0.262  11.860  18.910  0.00  0.00    +0.000 A 
ATOM     12  C   UNL     1       0.037  10.917  17.966  0.00  0.00    +0.000 A 
ATOM     13  C   UNL     1       0.596   9.730  18.396  0.00  0.00    +0.000 A 
ATOM     14  C   UNL     1       0.879   9.449  19.765  0.00  0.00    +0.000 A 
ATOM     15  N   UNL     1       0.586  10.393  20.720  0.00  0.00    +0.000 NA
BRANCH  10  22
ATOM     16  F   UNL     1      -0.707  13.583  23.341  0.00  0.00    +0.000 F 
ATOM     17  C   UNL     1      -0.740  12.412  22.621  0.00  0.00    +0.000 C 
ATOM     18  C   UNL     1      -2.130  11.821  22.774  0.00  0.00    +0.000 C 
ATOM     19  C   UNL     1      -3.205  12.666  22.090  0.00  0.00    +0.000 C 
ATOM     20  N   UNL     1      -2.872  12.994  20.703  0.00  0.00    +0.000 NA
ATOM     21  C   UNL     1      -1.563  13.646  20.630  0.00  0.00    +0.000 C 
ATOM     22  C   UNL     1      -0.411  12.758  21.184  0.00  0.00    +0.000 C 
ATOM     23  H   UNL     1      -3.586  13.621  20.327  0.00  0.00    +0.000 HD
ENDBRANCH  10  22
ENDBRANCH   1  14
BRANCH   7  24
ATOM     24  C   UNL     1       4.614   5.533  16.591  0.00  0.00    +0.000 A 
ATOM     25  C   UNL     1       5.397   6.443  15.813  0.00  0.00    +0.000 A 
ATOM     26  N   UNL     1       6.064   5.859  14.816  0.00  0.00    +0.000 NA
ATOM     27  N   UNL     1       5.703   4.569  14.914  0.00  0.00    +0.000 N 
ATOM     28  C   UNL     1       4.826   4.326  15.957  0.00  0.00    +0.000 A 
BRANCH  27  29
ATOM     29  C   UNL     1       6.415   3.623  14.091  0.00  0.00    +0.000 C 
BRANCH  29  30
ATOM     30  C   UNL     1       5.943   3.543  12.661  0.00  0.00    +0.000 C 
ATOM     31  F   UNL     1       6.627   4.312  11.793  0.00  0.00    +0.000 F 
ATOM     32  F   UNL     1       5.990   2.266  12.200  0.00  0.00    +0.000 F 
ATOM     33  F   UNL     1       4.640   3.925  12.585  0.00  0.00    +0.000 F 
ENDBRANCH  29  30
ENDBRANCH  27  29
ENDBRANCH   7  24
TORSDOF 5
ENDMDL
MODEL 8
REMARK VINA RESULT:      -7.9      1.318      1.823
REMARK  Name = 
REMARK  5 active torsions:
REMARK  status: ('A' for Active; 'I' for Inactive)
REMARK    1  A    between atoms: C_7  and  C_8
REMARK    2  A    between atoms: C_12  and  N_13
REMARK    3  A    between atoms: C_19  and  C_20
REMARK    4  A    between atoms: N_23  and  C_24
REMARK    5  A    between atoms: C_24  and  C_25
REMARK                            x       y       z     vdW  Elec       q    Type
REMARK                         _______ _______ _______ _____ _____    ______ ____
ROOT
ATOM      1  N   UNL     1       1.758   7.416  20.076  0.00  0.00    +0.000 N 
ATOM      2  N   UNL     1       1.335   6.678  21.171  0.00  0.00    +0.000 NA
ATOM      3  C   UNL     1       1.632   5.423  20.943  0.00  0.00    +0.000 A 
ATOM      4  C   UNL     1       2.400   5.277  19.803  0.00  0.00    +0.000 A 
ATOM      5  C   UNL     1       2.965   4.143  19.246  0.00  0.00    +0.000 A 
ATOM      6  N   UNL     1       3.720   4.236  18.154  0.00  0.00    +0.000 NA
ATOM      7  C   UNL     1       3.949   5.443  17.581  0.00  0.00    +0.000 A 
ATOM      8  C   UNL     1       3.403   6.660  18.074  0.00  0.00    +0.000 A 
ATOM      9  C   UNL     1       2.567   6.568  19.240  0.00  0.00    +0.000 A 
ENDROOT
BRANCH   1  14
ATOM     10  C   UNL     1       0.865  11.072  19.495  0.00  0.00    +0.000 A 
ATOM     11  C   UNL     1      -0.071  11.255  20.527  0.00  0.00    +0.000 A 
ATOM     12  C   UNL     1      -0.348  10.221  21.378  0.00  0.00    +0.000 A 
ATOM     13  C   UNL     1       0.299   9.020  21.163  0.00  0.00    +0.000 A 
ATOM     14  C   UNL     1       1.227   8.810  20.101  0.00  0.00    +0.000 A 
ATOM     15  N   UNL     1       1.507   9.843  19.238  0.00  0.00    +0.000 NA
BRANCH  10  22
ATOM     16  F   UNL     1       2.484  13.829  17.570  0.00  0.00    +0.000 F 
ATOM     17  C   UNL     1       2.426  12.965  18.639  0.00  0.00    +0.000 C 
ATOM     18  C   UNL     1       2.694  13.774  19.895  0.00  0.00    +0.000 C 
ATOM     19  C   UNL     1       1.573  14.767  20.204  0.00  0.00    +0.000 C 
ATOM     20  N   UNL     1       0.247  14.147  20.195  0.00  0.00    +0.000 NA
ATOM     21  C   UNL     1       0.010  13.462  18.923  0.00  0.00    +0.000 C 
ATOM     22  C   UNL     1       1.047  12.338  18.636  0.00  0.00    +0.000 C 
ATOM     23  H   UNL     1      -0.461  14.870  20.330  0.00  0.00    +0.000 HD
ENDBRANCH  10  22
ENDBRANCH   1  14
BRANCH   7  24
ATOM     24  C   UNL     1       4.789   5.217  16.392  0.00  0.00    +0.000 A 
ATOM     25  C   UNL     1       5.571   6.213  15.727  0.00  0.00    +0.000 A 
ATOM     26  N   UNL     1       6.248   5.750  14.675  0.00  0.00    +0.000 NA
ATOM     27  N   UNL     1       5.895   4.455  14.624  0.00  0.00    +0.000 N 
ATOM     28  C   UNL     1       5.013   4.091  15.627  0.00  0.00    +0.000 A 
BRANCH  27  29
ATOM     29  C   UNL     1       6.619   3.613  13.705  0.00  0.00    +0.000 C 
BRANCH  29  30
ATOM     30  C   UNL     1       5.958   3.422  12.363  0.00  0.00    +0.000 C 
ATOM     31  F   UNL     1       6.017   2.168  11.874  0.00  0.00    +0.000 F 
ATOM     32  F   UNL     1       4.649   3.781  12.407  0.00  0.00    +0.000 F 
ATOM     33  F   UNL     1       6.542   4.233  11.442  0.00  0.00    +0.000 F 
ENDBRANCH  29  30
ENDBRANCH  27  29
ENDBRANCH   7  24
TORSDOF 5
ENDMDL
MODEL 9
REMARK VINA RESULT:      -7.9      0.820      1.063
REMARK  Name = 
REMARK  5 active torsions:
REMARK  status: ('A' for Active; 'I' for Inactive)
REMARK    1  A    between atoms: C_7  and  C_8
REMARK    2  A    between atoms: C_12  and  N_13
REMARK    3  A    between atoms: C_19  and  C_20
REMARK    4  A    between atoms: N_23  and  C_24
REMARK    5  A    between atoms: C_24  and  C_25
REMARK                            x       y       z     vdW  Elec       q    Type
REMARK                         _______ _______ _______ _____ _____    ______ ____
ROOT
ATOM      1  N   UNL     1       1.485   8.596  19.500  0.00  0.00    +0.000 N 
ATOM      2  N   UNL     1       1.013   8.047  20.682  0.00  0.00    +0.000 NA
ATOM      3  C   UNL     1       1.492   6.832  20.776  0.00  0.00    +0.000 A 
ATOM      4  C   UNL     1       2.420   6.570  19.786  0.00  0.00    +0.000 A 
ATOM      5  C   UNL     1       3.192   5.444  19.561  0.00  0.00    +0.000 A 
ATOM      6  N   UNL     1       4.072   5.419  18.563  0.00  0.00    +0.000 NA
ATOM      7  C   UNL     1       4.224   6.501  17.759  0.00  0.00    +0.000 A 
ATOM      8  C   UNL     1       3.468   7.697  17.905  0.00  0.00    +0.000 A 
ATOM      9  C   UNL     1       2.499   7.725  18.967  0.00  0.00    +0.000 A 
ENDROOT
BRANCH   1  14
ATOM     10  C   UNL     1       0.304  12.183  19.011  0.00  0.00    +0.000 A 
ATOM     11  C   UNL     1      -0.840  11.952  18.229  0.00  0.00    +0.000 A 
ATOM     12  C   UNL     1      -1.201  10.670  17.924  0.00  0.00    +0.000 A 
ATOM     13  C   UNL     1      -0.396   9.647  18.387  0.00  0.00    +0.000 A 
ATOM     14  C   UNL     1       0.786   9.867  19.153  0.00  0.00    +0.000 A 
ATOM     15  N   UNL     1       1.158  11.154  19.461  0.00  0.00    +0.000 NA
BRANCH  10  22
ATOM     16  F   UNL     1       1.716  15.621  18.678  0.00  0.00    +0.000 F 
ATOM     17  C   UNL     1       1.842  14.252  18.680  0.00  0.00    +0.000 C 
ATOM     18  C   UNL     1       3.057  13.906  19.523  0.00  0.00    +0.000 C 
ATOM     19  C   UNL     1       2.854  14.228  21.004  0.00  0.00    +0.000 C 
ATOM     20  N   UNL     1       1.609  13.674  21.540  0.00  0.00    +0.000 NA
ATOM     21  C   UNL     1       0.465  14.119  20.743  0.00  0.00    +0.000 C 
ATOM     22  C   UNL     1       0.559  13.684  19.252  0.00  0.00    +0.000 C 
ATOM     23  H   UNL     1       1.494  13.987  22.506  0.00  0.00    +0.000 HD
ENDBRANCH  10  22
ENDBRANCH   1  14
BRANCH   7  24
ATOM     24  C   UNL     1       5.240   6.162  16.748  0.00  0.00    +0.000 A 
ATOM     25  C   UNL     1       6.655   6.169  16.958  0.00  0.00    +0.000 A 
ATOM     26  N   UNL     1       7.359   5.817  15.881  0.00  0.00    +0.000 NA
ATOM     27  N   UNL     1       6.415   5.603  14.949  0.00  0.00    +0.000 N 
ATOM     28  C   UNL     1       5.129   5.808  15.419  0.00  0.00    +0.000 A 
BRANCH  27  29
ATOM     29  C   UNL     1       6.842   5.007  13.707  0.00  0.00    +0.000 C 
BRANCH  29  30
ATOM     30  C   UNL     1       6.144   3.719  13.349  0.00  0.00    +0.000 C 
ATOM     31  F   UNL     1       6.051   2.825  14.352  0.00  0.00    +0.000 F 
ATOM     32  F   UNL     1       4.886   3.954  12.894  0.00  0.00    +0.000 F 
ATOM     33  F   UNL     1       6.805   3.105  12.333  0.00  0.00    +0.000 F 
ENDBRANCH  29  30
ENDBRANCH  27  29
ENDBRANCH   7  24
TORSDOF 5
ENDMDL
