MODEL 1
REMARK VINA RESULT:      -7.0      0.000      0.000
REMARK  Name = 
REMARK  5 active torsions:
REMARK  status: ('A' for Active; 'I' for Inactive)
REMARK    1  A    between atoms: C_1  and  N_2
REMARK    2  A    between atoms: N_2  and  C_3
REMARK    3  A    between atoms: N_2  and  S_4
REMARK    4  A    between atoms: S_4  and  N_7
REMARK    5  A    between atoms: C_11  and  C_12
REMARK                            x       y       z     vdW  Elec       q    Type
REMARK                         _______ _______ _______ _____ _____    ______ ____
ROOT
ATOM      1  N   UNL     1       4.446   4.832  17.823  0.00  0.00    +0.000 NA
ATOM      2  C   UNL     1       5.548   4.443  18.749  0.00  0.00    +0.000 C 
ATOM      3  C   UNL     1       6.843   5.163  18.394  0.00  0.00    +0.000 C 
ATOM      4  C   UNL     1       7.255   4.875  16.957  0.00  0.00    +0.000 C 
ATOM      5  C   UNL     1       6.126   5.243  15.985  0.00  0.00    +0.000 C 
ATOM      6  C   UNL     1       4.796   4.580  16.386  0.00  0.00    +0.000 C 
ENDROOT
BRANCH   5   7
ATOM      7  C   UNL     1       6.500   4.841  14.570  0.00  0.00    +0.000 A 
ATOM      8  C   UNL     1       5.795   3.862  13.896  0.00  0.00    +0.000 A 
ATOM      9  C   UNL     1       6.218   3.575  12.615  0.00  0.00    +0.000 A 
ATOM     10  N   UNL     1       7.252   4.191  12.015  0.00  0.00    +0.000 NA
ATOM     11  C   UNL     1       7.869   5.125  12.747  0.00  0.00    +0.000 A 
ATOM     12  N   UNL     1       7.547   5.483  14.001  0.00  0.00    +0.000 NA
ENDBRANCH   5   7
BRANCH   1  13
ATOM     13  S   UNL     1       2.935   4.149  18.276  0.00  0.00    +0.000 S 
ATOM     14  O   UNL     1       2.298   3.598  17.100  0.00  0.00    +0.000 OA
ATOM     15  O   UNL     1       2.237   5.059  19.153  0.00  0.00    +0.000 OA
BRANCH  13  17
ATOM     16  C   UNL     1       2.768   2.719  20.533  0.00  0.00    +0.000 C 
ATOM     17  N   UNL     1       3.461   2.842  19.233  0.00  0.00    +0.000 NA
ATOM     18  C   UNL     1       3.426   1.554  18.493  0.00  0.00    +0.000 C 
ENDBRANCH  13  17
ENDBRANCH   1  13
TORSDOF 3
ENDMDL
MODEL 2
REMARK VINA RESULT:      -7.0      1.432      1.698
REMARK  Name = 
REMARK  5 active torsions:
REMARK  status: ('A' for Active; 'I' for Inactive)
REMARK    1  A    between atoms: C_1  and  N_2
REMARK    2  A    between atoms: N_2  and  C_3
REMARK    3  A    between atoms: N_2  and  S_4
REMARK    4  A    between atoms: S_4  and  N_7
REMARK    5  A    between atoms: C_11  and  C_12
REMARK                            x       y       z     vdW  Elec       q    Type
REMARK                         _______ _______ _______ _____ _____    ______ ____
ROOT
ATOM      1  N   UNL     1       4.853   4.252  18.075  0.00  0.00    +0.000 NA
ATOM      2  C   UNL     1       6.010   4.749  18.875  0.00  0.00    +0.000 C 
ATOM      3  C   UNL     1       6.611   6.002  18.249  0.00  0.00    +0.000 C 
ATOM      4  C   UNL     1       7.051   5.742  16.815  0.00  0.00    +0.000 C 
ATOM      5  C   UNL     1       5.883   5.205  15.978  0.00  0.00    +0.000 C 
ATOM      6  C   UNL     1       5.221   3.986  16.647  0.00  0.00    +0.000 C 
ENDROOT
BRANCH   5   7
ATOM      7  C   UNL     1       6.361   4.837  14.585  0.00  0.00    +0.000 A 
ATOM      8  C   UNL     1       5.698   3.889  13.830  0.00  0.00    +0.000 A 
ATOM      9  C   UNL     1       6.216   3.632  12.577  0.00  0.00    +0.000 A 
ATOM     10  N   UNL     1       7.302   4.246  12.078  0.00  0.00    +0.000 NA
ATOM     11  C   UNL     1       7.874   5.149  12.885  0.00  0.00    +0.000 A 
ATOM     12  N   UNL     1       7.459   5.476  14.119  0.00  0.00    +0.000 NA
ENDBRANCH   5   7
BRANCH   1  13
ATOM     13  S   UNL     1       4.059   2.923  18.823  0.00  0.00    +0.000 S 
ATOM     14  O   UNL     1       4.828   2.508  19.976  0.00  0.00    +0.000 OA
ATOM     15  O   UNL     1       3.644   1.978  17.815  0.00  0.00    +0.000 OA
BRANCH  13  17
ATOM     16  C   UNL     1       2.053   4.658  18.451  0.00  0.00    +0.000 C 
ATOM     17  N   UNL     1       2.649   3.689  19.397  0.00  0.00    +0.000 NA
ATOM     18  C   UNL     1       1.631   2.713  19.864  0.00  0.00    +0.000 C 
ENDBRANCH  13  17
ENDBRANCH   1  13
TORSDOF 3
ENDMDL
MODEL 3
REMARK VINA RESULT:      -6.9      1.355      1.658
REMARK  Name = 
REMARK  5 active torsions:
REMARK  status: ('A' for Active; 'I' for Inactive)
REMARK    1  A    between atoms: C_1  and  N_2
REMARK    2  A    between atoms: N_2  and  C_3
REMARK    3  A    between atoms: N_2  and  S_4
REMARK    4  A    between atoms: S_4  and  N_7
REMARK    5  A    between atoms: C_11  and  C_12
REMARK                            x       y       z     vdW  Elec       q    Type
REMARK                         _______ _______ _______ _____ _____    ______ ____
ROOT
ATOM      1  N   UNL     1       5.077   4.974  18.365  0.00  0.00    +0.000 NA
ATOM      2  C   UNL     1       6.367   5.267  19.053  0.00  0.00    +0.000 C 
ATOM      3  C   UNL     1       7.170   6.312  18.288  0.00  0.00    +0.000 C 
ATOM      4  C   UNL     1       7.441   5.860  16.860  0.00  0.00    +0.000 C 
ATOM      5  C   UNL     1       6.129   5.526  16.138  0.00  0.00    +0.000 C 
ATOM      6  C   UNL     1       5.276   4.530  16.947  0.00  0.00    +0.000 C 
ENDROOT
BRANCH   5   7
ATOM      7  C   UNL     1       6.416   4.963  14.759  0.00  0.00    +0.000 A 
ATOM      8  C   UNL     1       5.608   3.991  14.202  0.00  0.00    +0.000 A 
ATOM      9  C   UNL     1       5.959   3.550  12.943  0.00  0.00    +0.000 A 
ATOM     10  N   UNL     1       7.018   4.014  12.258  0.00  0.00    +0.000 NA
ATOM     11  C   UNL     1       7.739   4.956  12.880  0.00  0.00    +0.000 A 
ATOM     12  N   UNL     1       7.492   5.455  14.103  0.00  0.00    +0.000 NA
ENDBRANCH   5   7
BRANCH   1  13
ATOM     13  S   UNL     1       4.078   3.905  19.269  0.00  0.00    +0.000 S 
ATOM     14  O   UNL     1       3.232   4.684  20.145  0.00  0.00    +0.000 OA
ATOM     15  O   UNL     1       4.872   2.808  19.768  0.00  0.00    +0.000 OA
BRANCH  13  17
ATOM     16  C   UNL     1       2.921   1.812  18.065  0.00  0.00    +0.000 C 
ATOM     17  N   UNL     1       3.093   3.280  18.028  0.00  0.00    +0.000 NA
ATOM     18  C   UNL     1       1.775   3.964  17.960  0.00  0.00    +0.000 C 
ENDBRANCH  13  17
ENDBRANCH   1  13
TORSDOF 3
ENDMDL
MODEL 4
REMARK VINA RESULT:      -6.9      1.314      1.642
REMARK  Name = 
REMARK  5 active torsions:
REMARK  status: ('A' for Active; 'I' for Inactive)
REMARK    1  A    between atoms: C_1  and  N_2
REMARK    2  A    between atoms: N_2  and  C_3
REMARK    3  A    between atoms: N_2  and  S_4
REMARK    4  A    between atoms: S_4  and  N_7
REMARK    5  A    between atoms: C_11  and  C_12
REMARK                            x       y       z     vdW  Elec       q    Type
REMARK                         _______ _______ _______ _____ _____    ______ ____
ROOT
ATOM      1  N   UNL     1       4.371   4.547  17.817  0.00  0.00    +0.000 NA
ATOM      2  C   UNL     1       5.497   4.276  18.756  0.00  0.00    +0.000 C 
ATOM      3  C   UNL     1       6.709   5.138  18.421  0.00  0.00    +0.000 C 
ATOM      4  C   UNL     1       7.168   4.908  16.989  0.00  0.00    +0.000 C 
ATOM      5  C   UNL     1       6.018   5.155  16.004  0.00  0.00    +0.000 C 
ATOM      6  C   UNL     1       4.764   4.346  16.384  0.00  0.00    +0.000 C 
ENDROOT
BRANCH   5   7
ATOM      7  C   UNL     1       6.452   4.807  14.591  0.00  0.00    +0.000 A 
ATOM      8  C   UNL     1       5.766   3.867  13.845  0.00  0.00    +0.000 A 
ATOM      9  C   UNL     1       6.244   3.628  12.574  0.00  0.00    +0.000 A 
ATOM     10  N   UNL     1       7.313   4.252  12.048  0.00  0.00    +0.000 NA
ATOM     11  C   UNL     1       7.908   5.146  12.848  0.00  0.00    +0.000 A 
ATOM     12  N   UNL     1       7.532   5.455  14.099  0.00  0.00    +0.000 NA
ENDBRANCH   5   7
BRANCH   1  13
ATOM     13  S   UNL     1       2.939   3.698  18.246  0.00  0.00    +0.000 S 
ATOM     14  O   UNL     1       3.271   2.686  19.225  0.00  0.00    +0.000 OA
ATOM     15  O   UNL     1       2.191   3.377  17.055  0.00  0.00    +0.000 OA
BRANCH  13  17
ATOM     16  C   UNL     1       2.162   4.862  20.529  0.00  0.00    +0.000 C 
ATOM     17  N   UNL     1       2.082   4.929  19.054  0.00  0.00    +0.000 NA
ATOM     18  C   UNL     1       2.452   6.283  18.567  0.00  0.00    +0.000 C 
ENDBRANCH  13  17
ENDBRANCH   1  13
TORSDOF 3
ENDMDL
MODEL 5
REMARK VINA RESULT:      -6.8      3.023      6.458
REMARK  Name = 
REMARK  5 active torsions:
REMARK  status: ('A' for Active; 'I' for Inactive)
REMARK    1  A    between atoms: C_1  and  N_2
REMARK    2  A    between atoms: N_2  and  C_3
REMARK    3  A    between atoms: N_2  and  S_4
REMARK    4  A    between atoms: S_4  and  N_7
REMARK    5  A    between atoms: C_11  and  C_12
REMARK                            x       y       z     vdW  Elec       q    Type
REMARK                         _______ _______ _______ _____ _____    ______ ____
ROOT
ATOM      1  N   UNL     1       5.422   6.189  17.820  0.00  0.00    +0.000 NA
ATOM      2  C   UNL     1       4.584   6.967  16.862  0.00  0.00    +0.000 C 
ATOM      3  C   UNL     1       3.406   7.623  17.573  0.00  0.00    +0.000 C 
ATOM      4  C   UNL     1       2.547   6.587  18.283  0.00  0.00    +0.000 C 
ATOM      5  C   UNL     1       3.393   5.755  19.256  0.00  0.00    +0.000 C 
ATOM      6  C   UNL     1       4.628   5.155  18.560  0.00  0.00    +0.000 C 
ENDROOT
BRANCH   5   7
ATOM      7  C   UNL     1       2.553   4.649  19.869  0.00  0.00    +0.000 A 
ATOM      8  C   UNL     1       1.604   3.977  19.123  0.00  0.00    +0.000 A 
ATOM      9  C   UNL     1       0.898   2.989  19.777  0.00  0.00    +0.000 A 
ATOM     10  N   UNL     1       1.091   2.663  21.067  0.00  0.00    +0.000 NA
ATOM     11  C   UNL     1       2.033   3.369  21.704  0.00  0.00    +0.000 A 
ATOM     12  N   UNL     1       2.777   4.352  21.170  0.00  0.00    +0.000 NA
ENDBRANCH   5   7
BRANCH   1  13
ATOM     13  S   UNL     1       6.838   5.549  17.084  0.00  0.00    +0.000 S 
ATOM     14  O   UNL     1       7.321   4.443  17.882  0.00  0.00    +0.000 OA
ATOM     15  O   UNL     1       7.710   6.631  16.691  0.00  0.00    +0.000 OA
BRANCH  13  17
ATOM     16  C   UNL     1       7.052   5.018  14.469  0.00  0.00    +0.000 C 
ATOM     17  N   UNL     1       6.177   4.900  15.655  0.00  0.00    +0.000 NA
ATOM     18  C   UNL     1       5.719   3.498  15.835  0.00  0.00    +0.000 C 
ENDBRANCH  13  17
ENDBRANCH   1  13
TORSDOF 3
ENDMDL
MODEL 6
REMARK VINA RESULT:      -6.7      2.963      6.459
REMARK  Name = 
REMARK  5 active torsions:
REMARK  status: ('A' for Active; 'I' for Inactive)
REMARK    1  A    between atoms: C_1  and  N_2
REMARK    2  A    between atoms: N_2  and  C_3
REMARK    3  A    between atoms: N_2  and  S_4
REMARK    4  A    between atoms: S_4  and  N_7
REMARK    5  A    between atoms: C_11  and  C_12
REMARK                            x       y       z     vdW  Elec       q    Type
REMARK                         _______ _______ _______ _____ _____    ______ ____
ROOT
ATOM      1  N   UNL     1       5.453   6.167  17.822  0.00  0.00    +0.000 NA
ATOM      2  C   UNL     1       4.603   6.945  16.875  0.00  0.00    +0.000 C 
ATOM      3  C   UNL     1       3.414   7.571  17.594  0.00  0.00    +0.000 C 
ATOM      4  C   UNL     1       2.571   6.511  18.288  0.00  0.00    +0.000 C 
ATOM      5  C   UNL     1       3.430   5.678  19.249  0.00  0.00    +0.000 C 
ATOM      6  C   UNL     1       4.675   5.109  18.545  0.00  0.00    +0.000 C 
ENDROOT
BRANCH   5   7
ATOM      7  C   UNL     1       2.607   4.549  19.844  0.00  0.00    +0.000 A 
ATOM      8  C   UNL     1       2.574   4.332  21.208  0.00  0.00    +0.000 A 
ATOM      9  C   UNL     1       1.794   3.280  21.642  0.00  0.00    +0.000 A 
ATOM     10  N   UNL     1       1.088   2.486  20.819  0.00  0.00    +0.000 NA
ATOM     11  C   UNL     1       1.183   2.777  19.515  0.00  0.00    +0.000 A 
ATOM     12  N   UNL     1       1.912   3.771  18.982  0.00  0.00    +0.000 NA
ENDBRANCH   5   7
BRANCH   1  13
ATOM     13  S   UNL     1       6.880   5.562  17.078  0.00  0.00    +0.000 S 
ATOM     14  O   UNL     1       7.384   4.457  17.863  0.00  0.00    +0.000 OA
ATOM     15  O   UNL     1       7.731   6.663  16.696  0.00  0.00    +0.000 OA
BRANCH  13  17
ATOM     16  C   UNL     1       7.106   5.051  14.459  0.00  0.00    +0.000 C 
ATOM     17  N   UNL     1       6.229   4.915  15.643  0.00  0.00    +0.000 NA
ATOM     18  C   UNL     1       5.787   3.507  15.812  0.00  0.00    +0.000 C 
ENDBRANCH  13  17
ENDBRANCH   1  13
TORSDOF 3
ENDMDL
MODEL 7
REMARK VINA RESULT:      -6.6      0.968      1.211
REMARK  Name = 
REMARK  5 active torsions:
REMARK  status: ('A' for Active; 'I' for Inactive)
REMARK    1  A    between atoms: C_1  and  N_2
REMARK    2  A    between atoms: N_2  and  C_3
REMARK    3  A    between atoms: N_2  and  S_4
REMARK    4  A    between atoms: S_4  and  N_7
REMARK    5  A    between atoms: C_11  and  C_12
REMARK                            x       y       z     vdW  Elec       q    Type
REMARK                         _______ _______ _______ _____ _____    ______ ____
ROOT
ATOM      1  N   UNL     1       4.121   4.551  17.771  0.00  0.00    +0.000 NA
ATOM      2  C   UNL     1       5.220   4.623  18.777  0.00  0.00    +0.000 C 
ATOM      3  C   UNL     1       6.247   5.680  18.392  0.00  0.00    +0.000 C 
ATOM      4  C   UNL     1       6.831   5.401  17.014  0.00  0.00    +0.000 C 
ATOM      5  C   UNL     1       5.718   5.296  15.964  0.00  0.00    +0.000 C 
ATOM      6  C   UNL     1       4.635   4.286  16.387  0.00  0.00    +0.000 C 
ENDROOT
BRANCH   5   7
ATOM      7  C   UNL     1       6.300   4.900  14.619  0.00  0.00    +0.000 A 
ATOM      8  C   UNL     1       5.654   3.992  13.801  0.00  0.00    +0.000 A 
ATOM      9  C   UNL     1       6.269   3.704  12.601  0.00  0.00    +0.000 A 
ATOM     10  N   UNL     1       7.431   4.254  12.207  0.00  0.00    +0.000 NA
ATOM     11  C   UNL     1       7.978   5.122  13.066  0.00  0.00    +0.000 A 
ATOM     12  N   UNL     1       7.471   5.474  14.259  0.00  0.00    +0.000 NA
ENDBRANCH   5   7
BRANCH   1  13
ATOM     13  S   UNL     1       2.870   3.470  18.241  0.00  0.00    +0.000 S 
ATOM     14  O   UNL     1       3.381   2.117  18.205  0.00  0.00    +0.000 OA
ATOM     15  O   UNL     1       1.643   3.828  17.569  0.00  0.00    +0.000 OA
BRANCH  13  17
ATOM     16  C   UNL     1       1.463   4.684  20.168  0.00  0.00    +0.000 C 
ATOM     17  N   UNL     1       2.685   3.905  19.877  0.00  0.00    +0.000 NA
ATOM     18  C   UNL     1       2.792   2.733  20.785  0.00  0.00    +0.000 C 
ENDBRANCH  13  17
ENDBRANCH   1  13
TORSDOF 3
ENDMDL
MODEL 8
REMARK VINA RESULT:      -6.5      3.771      6.581
REMARK  Name = 
REMARK  5 active torsions:
REMARK  status: ('A' for Active; 'I' for Inactive)
REMARK    1  A    between atoms: C_1  and  N_2
REMARK    2  A    between atoms: N_2  and  C_3
REMARK    3  A    between atoms: N_2  and  S_4
REMARK    4  A    between atoms: S_4  and  N_7
REMARK    5  A    between atoms: C_11  and  C_12
REMARK                            x       y       z     vdW  Elec       q    Type
REMARK                         _______ _______ _______ _____ _____    ______ ____
ROOT
ATOM      1  N   UNL     1       5.247   6.207  17.739  0.00  0.00    +0.000 NA
ATOM      2  C   UNL     1       4.340   7.029  16.887  0.00  0.00    +0.000 C 
ATOM      3  C   UNL     1       3.198   7.615  17.709  0.00  0.00    +0.000 C 
ATOM      4  C   UNL     1       2.399   6.519  18.400  0.00  0.00    +0.000 C 
ATOM      5  C   UNL     1       3.316   5.643  19.263  0.00  0.00    +0.000 C 
ATOM      6  C   UNL     1       4.515   5.112  18.456  0.00  0.00    +0.000 C 
ENDROOT
BRANCH   5   7
ATOM      7  C   UNL     1       2.532   4.483  19.851  0.00  0.00    +0.000 A 
ATOM      8  C   UNL     1       2.418   4.319  21.218  0.00  0.00    +0.000 A 
ATOM      9  C   UNL     1       1.683   3.233  21.645  0.00  0.00    +0.000 A 
ATOM     10  N   UNL     1       1.091   2.358  20.813  0.00  0.00    +0.000 NA
ATOM     11  C   UNL     1       1.258   2.603  19.507  0.00  0.00    +0.000 A 
ATOM     12  N   UNL     1       1.953   3.624  18.981  0.00  0.00    +0.000 NA
ENDBRANCH   5   7
BRANCH   1  13
ATOM     13  S   UNL     1       6.624   5.644  16.879  0.00  0.00    +0.000 S 
ATOM     14  O   UNL     1       6.566   6.144  15.523  0.00  0.00    +0.000 OA
ATOM     15  O   UNL     1       6.829   4.243  17.156  0.00  0.00    +0.000 OA
BRANCH  13  17
ATOM     16  C   UNL     1       7.749   7.967  17.592  0.00  0.00    +0.000 C 
ATOM     17  N   UNL     1       7.860   6.495  17.685  0.00  0.00    +0.000 NA
ATOM     18  C   UNL     1       8.006   6.066  19.101  0.00  0.00    +0.000 C 
ENDBRANCH  13  17
ENDBRANCH   1  13
TORSDOF 3
ENDMDL
MODEL 9
REMARK VINA RESULT:      -6.5      1.032      1.032
REMARK  Name = 
REMARK  5 active torsions:
REMARK  status: ('A' for Active; 'I' for Inactive)
REMARK    1  A    between atoms: C_1  and  N_2
REMARK    2  A    between atoms: N_2  and  C_3
REMARK    3  A    between atoms: N_2  and  S_4
REMARK    4  A    between atoms: S_4  and  N_7
REMARK    5  A    between atoms: C_11  and  C_12
REMARK                            x       y       z     vdW  Elec       q    Type
REMARK                         _______ _______ _______ _____ _____    ______ ____
ROOT
ATOM      1  N   UNL     1       4.838   5.715  18.173  0.00  0.00    +0.000 NA
ATOM      2  C   UNL     1       5.838   5.067  19.070  0.00  0.00    +0.000 C 
ATOM      3  C   UNL     1       7.260   5.367  18.612  0.00  0.00    +0.000 C 
ATOM      4  C   UNL     1       7.484   4.908  17.178  0.00  0.00    +0.000 C 
ATOM      5  C   UNL     1       6.449   5.541  16.238  0.00  0.00    +0.000 C 
ATOM      6  C   UNL     1       5.012   5.309  16.740  0.00  0.00    +0.000 C 
ENDROOT
BRANCH   5   7
ATOM      7  C   UNL     1       6.605   4.985  14.834  0.00  0.00    +0.000 A 
ATOM      8  C   UNL     1       5.772   3.988  14.365  0.00  0.00    +0.000 A 
ATOM      9  C   UNL     1       6.000   3.557  13.075  0.00  0.00    +0.000 A 
ATOM     10  N   UNL     1       6.966   4.051  12.282  0.00  0.00    +0.000 NA
ATOM     11  C   UNL     1       7.720   5.014  12.826  0.00  0.00    +0.000 A 
ATOM     12  N   UNL     1       7.591   5.508  14.069  0.00  0.00    +0.000 NA
ENDBRANCH   5   7
BRANCH   1  13
ATOM     13  S   UNL     1       3.226   5.519  18.736  0.00  0.00    +0.000 S 
ATOM     14  O   UNL     1       2.313   5.793  17.647  0.00  0.00    +0.000 OA
ATOM     15  O   UNL     1       3.080   6.160  20.020  0.00  0.00    +0.000 OA
BRANCH  13  17
ATOM     16  C   UNL     1       2.786   3.452  20.381  0.00  0.00    +0.000 C 
ATOM     17  N   UNL     1       3.199   3.838  19.014  0.00  0.00    +0.000 NA
ATOM     18  C   UNL     1       2.395   3.113  17.996  0.00  0.00    +0.000 C 
ENDBRANCH  13  17
ENDBRANCH   1  13
TORSDOF 3
ENDMDL
