MODEL 1
REMARK VINA RESULT:      -7.6      0.000      0.000
REMARK  Name = 
REMARK  6 active torsions:
REMARK  status: ('A' for Active; 'I' for Inactive)
REMARK    1  A    between atoms: C_2  and  C_3
REMARK    2  A    between atoms: C_2  and  O_17
REMARK    3  A    between atoms: C_3  and  C_4
REMARK    4  A    between atoms: C_4  and  C_5
REMARK    5  A    between atoms: C_5  and  N_6
REMARK    6  A    between atoms: O_17  and  C_18
REMARK                            x       y       z     vdW  Elec       q    Type
REMARK                         _______ _______ _______ _____ _____    ______ ____
ROOT
ATOM      1  C   UNL     1       2.130   3.111  18.088  0.00  0.00    +0.000 C 
ENDROOT
BRANCH   1   2
ATOM      2  C   UNL     1       1.973   4.633  18.097  0.00  0.00    +0.000 C 
BRANCH   2   4
ATOM      3  O   UNL     1       1.462   4.621  20.465  0.00  0.00    +0.000 OA
ATOM      4  C   UNL     1       2.018   5.158  19.517  0.00  0.00    +0.000 C 
BRANCH   4   5
ATOM      5  O   UNL     1       2.797   6.318  19.562  0.00  0.00    +0.000 OA
BRANCH   5   6
ATOM      6  C   UNL     1       2.195   7.587  19.418  0.00  0.00    +0.000 A 
ATOM      7  C   UNL     1       1.506   8.227  20.448  0.00  0.00    +0.000 A 
ATOM      8  C   UNL     1       0.926   9.477  20.221  0.00  0.00    +0.000 A 
ATOM      9  C   UNL     1       1.068  10.094  18.980  0.00  0.00    +0.000 A 
ATOM     10 CL   UNL     1       0.341  11.630  18.702  0.00  0.00    +0.000 Cl
ATOM     11  C   UNL     1       1.796   9.476  17.963  0.00  0.00    +0.000 A 
ATOM     12  C   UNL     1       2.365   8.218  18.183  0.00  0.00    +0.000 A 
ENDBRANCH   5   6
ENDBRANCH   4   5
ENDBRANCH   2   4
ENDBRANCH   1   2
BRANCH   1  13
ATOM     13  C   UNL     1       3.445   2.663  17.454  0.00  0.00    +0.000 C 
BRANCH  13  14
ATOM     14  N   UNL     1       4.484   3.666  17.618  0.00  0.00    +0.000 N 
ATOM     15  C   UNL     1       4.919   4.493  16.619  0.00  0.00    +0.000 C 
ATOM     16  O   UNL     1       4.550   4.557  15.462  0.00  0.00    +0.000 OA
ATOM     17  C   UNL     1       5.966   5.333  17.198  0.00  0.00    +0.000 A 
ATOM     18  C   UNL     1       6.703   6.361  16.641  0.00  0.00    +0.000 A 
ATOM     19  C   UNL     1       7.642   6.991  17.463  0.00  0.00    +0.000 A 
ATOM     20  C   UNL     1       7.826   6.581  18.800  0.00  0.00    +0.000 A 
ATOM     21  C   UNL     1       7.066   5.538  19.341  0.00  0.00    +0.000 A 
ATOM     22  C   UNL     1       6.139   4.937  18.513  0.00  0.00    +0.000 A 
ATOM     23  C   UNL     1       5.188   3.856  18.776  0.00  0.00    +0.000 C 
ATOM     24  O   UNL     1       5.086   3.276  19.840  0.00  0.00    +0.000 OA
ENDBRANCH  13  14
ENDBRANCH   1  13
TORSDOF 6
ENDMDL
MODEL 2
REMARK VINA RESULT:      -7.6      0.887      1.080
REMARK  Name = 
REMARK  6 active torsions:
REMARK  status: ('A' for Active; 'I' for Inactive)
REMARK    1  A    between atoms: C_2  and  C_3
REMARK    2  A    between atoms: C_2  and  O_17
REMARK    3  A    between atoms: C_3  and  C_4
REMARK    4  A    between atoms: C_4  and  C_5
REMARK    5  A    between atoms: C_5  and  N_6
REMARK    6  A    between atoms: O_17  and  C_18
REMARK                            x       y       z     vdW  Elec       q    Type
REMARK                         _______ _______ _______ _____ _____    ______ ____
ROOT
ATOM      1  C   UNL     1       2.343   3.085  17.559  0.00  0.00    +0.000 C 
ENDROOT
BRANCH   1   2
ATOM      2  C   UNL     1       1.702   2.659  18.881  0.00  0.00    +0.000 C 
BRANCH   2   4
ATOM      3  O   UNL     1       0.404   4.020  20.408  0.00  0.00    +0.000 OA
ATOM      4  C   UNL     1       1.421   3.872  19.744  0.00  0.00    +0.000 C 
BRANCH   4   5
ATOM      5  O   UNL     1       2.498   4.760  19.668  0.00  0.00    +0.000 OA
BRANCH   5   6
ATOM      6  C   UNL     1       2.274   6.131  19.416  0.00  0.00    +0.000 A 
ATOM      7  C   UNL     1       1.805   7.019  20.383  0.00  0.00    +0.000 A 
ATOM      8  C   UNL     1       1.596   8.360  20.050  0.00  0.00    +0.000 A 
ATOM      9  C   UNL     1       1.891   8.811  18.764  0.00  0.00    +0.000 A 
ATOM     10 CL   UNL     1       1.621  10.461  18.356  0.00  0.00    +0.000 Cl
ATOM     11  C   UNL     1       2.405   7.933  17.809  0.00  0.00    +0.000 A 
ATOM     12  C   UNL     1       2.600   6.588  18.136  0.00  0.00    +0.000 A 
ENDBRANCH   5   6
ENDBRANCH   4   5
ENDBRANCH   2   4
ENDBRANCH   1   2
BRANCH   1  13
ATOM     13  C   UNL     1       3.770   2.562  17.406  0.00  0.00    +0.000 C 
BRANCH  13  14
ATOM     14  N   UNL     1       4.747   3.625  17.568  0.00  0.00    +0.000 N 
ATOM     15  C   UNL     1       5.130   4.478  16.569  0.00  0.00    +0.000 C 
ATOM     16  O   UNL     1       4.755   4.520  15.413  0.00  0.00    +0.000 OA
ATOM     17  C   UNL     1       6.125   5.378  17.147  0.00  0.00    +0.000 A 
ATOM     18  C   UNL     1       6.799   6.449  16.589  0.00  0.00    +0.000 A 
ATOM     19  C   UNL     1       7.700   7.134  17.410  0.00  0.00    +0.000 A 
ATOM     20  C   UNL     1       7.910   6.735  18.746  0.00  0.00    +0.000 A 
ATOM     21  C   UNL     1       7.215   5.648  19.287  0.00  0.00    +0.000 A 
ATOM     22  C   UNL     1       6.324   4.993  18.460  0.00  0.00    +0.000 A 
ATOM     23  C   UNL     1       5.441   3.857  18.726  0.00  0.00    +0.000 C 
ATOM     24  O   UNL     1       5.376   3.271  19.789  0.00  0.00    +0.000 OA
ENDBRANCH  13  14
ENDBRANCH   1  13
TORSDOF 6
ENDMDL
MODEL 3
REMARK VINA RESULT:      -7.6      0.531      2.083
REMARK  Name = 
REMARK  6 active torsions:
REMARK  status: ('A' for Active; 'I' for Inactive)
REMARK    1  A    between atoms: C_2  and  C_3
REMARK    2  A    between atoms: C_2  and  O_17
REMARK    3  A    between atoms: C_3  and  C_4
REMARK    4  A    between atoms: C_4  and  C_5
REMARK    5  A    between atoms: C_5  and  N_6
REMARK    6  A    between atoms: O_17  and  C_18
REMARK                            x       y       z     vdW  Elec       q    Type
REMARK                         _______ _______ _______ _____ _____    ______ ____
ROOT
ATOM      1  C   UNL     1       2.539   3.243  18.478  0.00  0.00    +0.000 C 
ENDROOT
BRANCH   1   2
ATOM      2  C   UNL     1       1.850   4.602  18.628  0.00  0.00    +0.000 C 
BRANCH   2   4
ATOM      3  O   UNL     1       1.967   4.781  21.040  0.00  0.00    +0.000 OA
ATOM      4  C   UNL     1       2.237   5.246  19.942  0.00  0.00    +0.000 C 
BRANCH   4   5
ATOM      5  O   UNL     1       2.953   6.421  19.693  0.00  0.00    +0.000 OA
BRANCH   5   6
ATOM      6  C   UNL     1       2.271   7.620  19.388  0.00  0.00    +0.000 A 
ATOM      7  C   UNL     1       2.281   8.202  18.121  0.00  0.00    +0.000 A 
ATOM      8  C   UNL     1       1.592   9.398  17.903  0.00  0.00    +0.000 A 
ATOM      9  C   UNL     1       0.869   9.983  18.941  0.00  0.00    +0.000 A 
ATOM     10 CL   UNL     1       0.031  11.462  18.669  0.00  0.00    +0.000 Cl
ATOM     11  C   UNL     1       0.820   9.377  20.196  0.00  0.00    +0.000 A 
ATOM     12  C   UNL     1       1.522   8.188  20.422  0.00  0.00    +0.000 A 
ENDBRANCH   5   6
ENDBRANCH   4   5
ENDBRANCH   2   4
ENDBRANCH   1   2
BRANCH   1  13
ATOM     13  C   UNL     1       3.586   3.239  17.367  0.00  0.00    +0.000 C 
BRANCH  13  14
ATOM     14  N   UNL     1       4.669   4.163  17.651  0.00  0.00    +0.000 N 
ATOM     15  C   UNL     1       5.455   4.107  18.770  0.00  0.00    +0.000 C 
ATOM     16  O   UNL     1       5.413   3.320  19.697  0.00  0.00    +0.000 OA
ATOM     17  C   UNL     1       6.406   5.212  18.669  0.00  0.00    +0.000 A 
ATOM     18  C   UNL     1       7.444   5.583  19.504  0.00  0.00    +0.000 A 
ATOM     19  C   UNL     1       8.195   6.701  19.130  0.00  0.00    +0.000 A 
ATOM     20  C   UNL     1       7.892   7.417  17.954  0.00  0.00    +0.000 A 
ATOM     21  C   UNL     1       6.836   7.021  17.125  0.00  0.00    +0.000 A 
ATOM     22  C   UNL     1       6.115   5.909  17.510  0.00  0.00    +0.000 A 
ATOM     23  C   UNL     1       4.989   5.235  16.862  0.00  0.00    +0.000 C 
ATOM     24  O   UNL     1       4.478   5.600  15.821  0.00  0.00    +0.000 OA
ENDBRANCH  13  14
ENDBRANCH   1  13
TORSDOF 6
ENDMDL
MODEL 4
REMARK VINA RESULT:      -7.6      2.080      4.388
REMARK  Name = 
REMARK  6 active torsions:
REMARK  status: ('A' for Active; 'I' for Inactive)
REMARK    1  A    between atoms: C_2  and  C_3
REMARK    2  A    between atoms: C_2  and  O_17
REMARK    3  A    between atoms: C_3  and  C_4
REMARK    4  A    between atoms: C_4  and  C_5
REMARK    5  A    between atoms: C_5  and  N_6
REMARK    6  A    between atoms: O_17  and  C_18
REMARK                            x       y       z     vdW  Elec       q    Type
REMARK                         _______ _______ _______ _____ _____    ______ ____
ROOT
ATOM      1  C   UNL     1       4.824   4.698  15.698  0.00  0.00    +0.000 C 
ENDROOT
BRANCH   1   2
ATOM      2  C   UNL     1       5.852   5.824  15.832  0.00  0.00    +0.000 C 
BRANCH   2   4
ATOM      3  O   UNL     1       6.116   7.368  17.679  0.00  0.00    +0.000 OA
ATOM      4  C   UNL     1       5.386   6.843  16.850  0.00  0.00    +0.000 C 
BRANCH   4   5
ATOM      5  O   UNL     1       4.021   7.089  16.675  0.00  0.00    +0.000 OA
BRANCH   5   6
ATOM      6  C   UNL     1       3.207   7.410  17.784  0.00  0.00    +0.000 A 
ATOM      7  C   UNL     1       3.110   6.605  18.919  0.00  0.00    +0.000 A 
ATOM      8  C   UNL     1       2.270   6.986  19.968  0.00  0.00    +0.000 A 
ATOM      9  C   UNL     1       1.562   8.184  19.893  0.00  0.00    +0.000 A 
ATOM     10 CL   UNL     1       0.521   8.643  21.184  0.00  0.00    +0.000 Cl
ATOM     11  C   UNL     1       1.695   9.013  18.779  0.00  0.00    +0.000 A 
ATOM     12  C   UNL     1       2.523   8.627  17.720  0.00  0.00    +0.000 A 
ENDBRANCH   5   6
ENDBRANCH   4   5
ENDBRANCH   2   4
ENDBRANCH   1   2
BRANCH   1  13
ATOM     13  C   UNL     1       5.142   3.506  16.598  0.00  0.00    +0.000 C 
BRANCH  13  14
ATOM     14  N   UNL     1       4.185   3.389  17.684  0.00  0.00    +0.000 N 
ATOM     15  C   UNL     1       4.515   3.449  19.011  0.00  0.00    +0.000 C 
ATOM     16  O   UNL     1       5.608   3.604  19.522  0.00  0.00    +0.000 OA
ATOM     17  C   UNL     1       3.272   3.280  19.759  0.00  0.00    +0.000 A 
ATOM     18  C   UNL     1       3.033   3.304  21.121  0.00  0.00    +0.000 A 
ATOM     19  C   UNL     1       1.712   3.117  21.541  0.00  0.00    +0.000 A 
ATOM     20  C   UNL     1       0.678   2.906  20.606  0.00  0.00    +0.000 A 
ATOM     21  C   UNL     1       0.946   2.887  19.232  0.00  0.00    +0.000 A 
ATOM     22  C   UNL     1       2.255   3.083  18.842  0.00  0.00    +0.000 A 
ATOM     23  C   UNL     1       2.849   3.144  17.506  0.00  0.00    +0.000 C 
ATOM     24  O   UNL     1       2.228   3.001  16.471  0.00  0.00    +0.000 OA
ENDBRANCH  13  14
ENDBRANCH   1  13
TORSDOF 6
ENDMDL
MODEL 5
REMARK VINA RESULT:      -7.6      0.368      1.818
REMARK  Name = 
REMARK  6 active torsions:
REMARK  status: ('A' for Active; 'I' for Inactive)
REMARK    1  A    between atoms: C_2  and  C_3
REMARK    2  A    between atoms: C_2  and  O_17
REMARK    3  A    between atoms: C_3  and  C_4
REMARK    4  A    between atoms: C_4  and  C_5
REMARK    5  A    between atoms: C_5  and  N_6
REMARK    6  A    between atoms: O_17  and  C_18
REMARK                            x       y       z     vdW  Elec       q    Type
REMARK                         _______ _______ _______ _____ _____    ______ ____
ROOT
ATOM      1  C   UNL     1       1.993   2.842  18.550  0.00  0.00    +0.000 C 
ENDROOT
BRANCH   1   2
ATOM      2  C   UNL     1       1.813   4.358  18.436  0.00  0.00    +0.000 C 
BRANCH   2   4
ATOM      3  O   UNL     1       1.257   4.558  20.785  0.00  0.00    +0.000 OA
ATOM      4  C   UNL     1       1.849   4.996  19.808  0.00  0.00    +0.000 C 
BRANCH   4   5
ATOM      5  O   UNL     1       2.666   6.130  19.775  0.00  0.00    +0.000 OA
BRANCH   5   6
ATOM      6  C   UNL     1       2.102   7.409  19.569  0.00  0.00    +0.000 A 
ATOM      7  C   UNL     1       1.467   8.134  20.576  0.00  0.00    +0.000 A 
ATOM      8  C   UNL     1       0.922   9.388  20.288  0.00  0.00    +0.000 A 
ATOM      9  C   UNL     1       1.047   9.923  19.007  0.00  0.00    +0.000 A 
ATOM     10 CL   UNL     1       0.364  11.463  18.655  0.00  0.00    +0.000 Cl
ATOM     11  C   UNL     1       1.724   9.219  18.011  0.00  0.00    +0.000 A 
ATOM     12  C   UNL     1       2.257   7.957  18.293  0.00  0.00    +0.000 A 
ENDBRANCH   5   6
ENDBRANCH   4   5
ENDBRANCH   2   4
ENDBRANCH   1   2
BRANCH   1  13
ATOM     13  C   UNL     1       3.268   2.353  17.866  0.00  0.00    +0.000 C 
BRANCH  13  14
ATOM     14  N   UNL     1       4.309   3.365  17.893  0.00  0.00    +0.000 N 
ATOM     15  C   UNL     1       5.070   3.657  18.992  0.00  0.00    +0.000 C 
ATOM     16  O   UNL     1       5.035   3.161  20.102  0.00  0.00    +0.000 OA
ATOM     17  C   UNL     1       5.981   4.729  18.596  0.00  0.00    +0.000 A 
ATOM     18  C   UNL     1       6.985   5.362  19.307  0.00  0.00    +0.000 A 
ATOM     19  C   UNL     1       7.703   6.362  18.643  0.00  0.00    +0.000 A 
ATOM     20  C   UNL     1       7.402   6.706  17.309  0.00  0.00    +0.000 A 
ATOM     21  C   UNL     1       6.381   6.049  16.612  0.00  0.00    +0.000 A 
ATOM     22  C   UNL     1       5.693   5.060  17.285  0.00  0.00    +0.000 A 
ATOM     23  C   UNL     1       4.608   4.185  16.838  0.00  0.00    +0.000 C 
ATOM     24  O   UNL     1       4.108   4.222  15.730  0.00  0.00    +0.000 OA
ENDBRANCH  13  14
ENDBRANCH   1  13
TORSDOF 6
ENDMDL
MODEL 6
REMARK VINA RESULT:      -7.6      2.092      4.171
REMARK  Name = 
REMARK  6 active torsions:
REMARK  status: ('A' for Active; 'I' for Inactive)
REMARK    1  A    between atoms: C_2  and  C_3
REMARK    2  A    between atoms: C_2  and  O_17
REMARK    3  A    between atoms: C_3  and  C_4
REMARK    4  A    between atoms: C_4  and  C_5
REMARK    5  A    between atoms: C_5  and  N_6
REMARK    6  A    between atoms: O_17  and  C_18
REMARK                            x       y       z     vdW  Elec       q    Type
REMARK                         _______ _______ _______ _____ _____    ______ ____
ROOT
ATOM      1  C   UNL     1       5.971   4.644  16.682  0.00  0.00    +0.000 C 
ENDROOT
BRANCH   1   2
ATOM      2  C   UNL     1       5.349   5.788  15.879  0.00  0.00    +0.000 C 
BRANCH   2   4
ATOM      3  O   UNL     1       5.921   7.503  17.491  0.00  0.00    +0.000 OA
ATOM      4  C   UNL     1       5.078   6.975  16.779  0.00  0.00    +0.000 C 
BRANCH   4   5
ATOM      5  O   UNL     1       3.742   7.366  16.648  0.00  0.00    +0.000 OA
BRANCH   5   6
ATOM      6  C   UNL     1       2.979   7.691  17.792  0.00  0.00    +0.000 A 
ATOM      7  C   UNL     1       2.243   8.870  17.909  0.00  0.00    +0.000 A 
ATOM      8  C   UNL     1       1.525   9.124  19.080  0.00  0.00    +0.000 A 
ATOM      9  C   UNL     1       1.518   8.185  20.110  0.00  0.00    +0.000 A 
ATOM     10 CL   UNL     1       0.641   8.509  21.555  0.00  0.00    +0.000 Cl
ATOM     11  C   UNL     1       2.216   6.985  19.975  0.00  0.00    +0.000 A 
ATOM     12  C   UNL     1       2.949   6.734  18.810  0.00  0.00    +0.000 A 
ENDBRANCH   5   6
ENDBRANCH   4   5
ENDBRANCH   2   4
ENDBRANCH   1   2
BRANCH   1  13
ATOM     13  C   UNL     1       5.150   3.359  16.601  0.00  0.00    +0.000 C 
BRANCH  13  14
ATOM     14  N   UNL     1       4.156   3.294  17.658  0.00  0.00    +0.000 N 
ATOM     15  C   UNL     1       2.805   3.245  17.443  0.00  0.00    +0.000 C 
ATOM     16  O   UNL     1       2.197   3.244  16.390  0.00  0.00    +0.000 OA
ATOM     17  C   UNL     1       2.174   3.197  18.760  0.00  0.00    +0.000 A 
ATOM     18  C   UNL     1       0.841   3.095  19.113  0.00  0.00    +0.000 A 
ATOM     19  C   UNL     1       0.544   3.064  20.479  0.00  0.00    +0.000 A 
ATOM     20  C   UNL     1       1.568   3.141  21.446  0.00  0.00    +0.000 A 
ATOM     21  C   UNL     1       2.910   3.244  21.062  0.00  0.00    +0.000 A 
ATOM     22  C   UNL     1       3.179   3.263  19.708  0.00  0.00    +0.000 A 
ATOM     23  C   UNL     1       4.455   3.336  18.994  0.00  0.00    +0.000 C 
ATOM     24  O   UNL     1       5.540   3.414  19.534  0.00  0.00    +0.000 OA
ENDBRANCH  13  14
ENDBRANCH   1  13
TORSDOF 6
ENDMDL
MODEL 7
REMARK VINA RESULT:      -7.5      1.189      2.211
REMARK  Name = 
REMARK  6 active torsions:
REMARK  status: ('A' for Active; 'I' for Inactive)
REMARK    1  A    between atoms: C_2  and  C_3
REMARK    2  A    between atoms: C_2  and  O_17
REMARK    3  A    between atoms: C_3  and  C_4
REMARK    4  A    between atoms: C_4  and  C_5
REMARK    5  A    between atoms: C_5  and  N_6
REMARK    6  A    between atoms: O_17  and  C_18
REMARK                            x       y       z     vdW  Elec       q    Type
REMARK                         _______ _______ _______ _____ _____    ______ ____
ROOT
ATOM      1  C   UNL     1       1.682   2.365  19.837  0.00  0.00    +0.000 C 
ENDROOT
BRANCH   1   2
ATOM      2  C   UNL     1       1.379   3.860  19.709  0.00  0.00    +0.000 C 
BRANCH   2   4
ATOM      3  O   UNL     1       2.222   4.427  21.908  0.00  0.00    +0.000 OA
ATOM      4  C   UNL     1       2.200   4.650  20.706  0.00  0.00    +0.000 C 
BRANCH   4   5
ATOM      5  O   UNL     1       2.925   5.640  20.034  0.00  0.00    +0.000 OA
BRANCH   5   6
ATOM      6  C   UNL     1       2.328   6.887  19.745  0.00  0.00    +0.000 A 
ATOM      7  C   UNL     1       1.617   7.630  20.688  0.00  0.00    +0.000 A 
ATOM      8  C   UNL     1       1.044   8.849  20.319  0.00  0.00    +0.000 A 
ATOM      9  C   UNL     1       1.215   9.335  19.023  0.00  0.00    +0.000 A 
ATOM     10 CL   UNL     1       0.498  10.833  18.572  0.00  0.00    +0.000 Cl
ATOM     11  C   UNL     1       1.966   8.615  18.094  0.00  0.00    +0.000 A 
ATOM     12  C   UNL     1       2.527   7.386  18.456  0.00  0.00    +0.000 A 
ENDBRANCH   5   6
ENDBRANCH   4   5
ENDBRANCH   2   4
ENDBRANCH   1   2
BRANCH   1  13
ATOM     13  C   UNL     1       2.539   1.843  18.687  0.00  0.00    +0.000 C 
BRANCH  13  14
ATOM     14  N   UNL     1       3.515   2.830  18.258  0.00  0.00    +0.000 N 
ATOM     15  C   UNL     1       4.671   3.112  18.934  0.00  0.00    +0.000 C 
ATOM     16  O   UNL     1       5.094   2.626  19.965  0.00  0.00    +0.000 OA
ATOM     17  C   UNL     1       5.353   4.159  18.175  0.00  0.00    +0.000 A 
ATOM     18  C   UNL     1       6.573   4.773  18.390  0.00  0.00    +0.000 A 
ATOM     19  C   UNL     1       6.966   5.750  17.470  0.00  0.00    +0.000 A 
ATOM     20  C   UNL     1       6.141   6.091  16.378  0.00  0.00    +0.000 A 
ATOM     21  C   UNL     1       4.910   5.454  16.183  0.00  0.00    +0.000 A 
ATOM     22  C   UNL     1       4.548   4.487  17.099  0.00  0.00    +0.000 A 
ATOM     23  C   UNL     1       3.360   3.635  17.161  0.00  0.00    +0.000 C 
ATOM     24  O   UNL     1       2.443   3.675  16.364  0.00  0.00    +0.000 OA
ENDBRANCH  13  14
ENDBRANCH   1  13
TORSDOF 6
ENDMDL
MODEL 8
REMARK VINA RESULT:      -7.5      3.606      6.936
REMARK  Name = 
REMARK  6 active torsions:
REMARK  status: ('A' for Active; 'I' for Inactive)
REMARK    1  A    between atoms: C_2  and  C_3
REMARK    2  A    between atoms: C_2  and  O_17
REMARK    3  A    between atoms: C_3  and  C_4
REMARK    4  A    between atoms: C_4  and  C_5
REMARK    5  A    between atoms: C_5  and  N_6
REMARK    6  A    between atoms: O_17  and  C_18
REMARK                            x       y       z     vdW  Elec       q    Type
REMARK                         _______ _______ _______ _____ _____    ______ ____
ROOT
ATOM      1  C   UNL     1       5.671   6.867  17.275  0.00  0.00    +0.000 C 
ENDROOT
BRANCH   1   2
ATOM      2  C   UNL     1       6.342   5.652  17.920  0.00  0.00    +0.000 C 
BRANCH   2   4
ATOM      3  O   UNL     1       8.187   4.204  17.316  0.00  0.00    +0.000 OA
ATOM      4  C   UNL     1       7.405   5.089  17.000  0.00  0.00    +0.000 C 
BRANCH   4   5
ATOM      5  O   UNL     1       7.330   5.724  15.756  0.00  0.00    +0.000 OA
BRANCH   5   6
ATOM      6  C   UNL     1       6.984   4.988  14.600  0.00  0.00    +0.000 A 
ATOM      7  C   UNL     1       7.687   5.079  13.399  0.00  0.00    +0.000 A 
ATOM      8  C   UNL     1       7.272   4.328  12.297  0.00  0.00    +0.000 A 
ATOM      9  C   UNL     1       6.182   3.467  12.412  0.00  0.00    +0.000 A 
ATOM     10 CL   UNL     1       5.669   2.552  11.046  0.00  0.00    +0.000 Cl
ATOM     11  C   UNL     1       5.508   3.341  13.626  0.00  0.00    +0.000 A 
ATOM     12  C   UNL     1       5.911   4.102  14.727  0.00  0.00    +0.000 A 
ENDBRANCH   5   6
ENDBRANCH   4   5
ENDBRANCH   2   4
ENDBRANCH   1   2
BRANCH   1  13
ATOM     13  C   UNL     1       4.251   6.567  16.802  0.00  0.00    +0.000 C 
BRANCH  13  14
ATOM     14  N   UNL     1       3.548   5.705  17.737  0.00  0.00    +0.000 N 
ATOM     15  C   UNL     1       2.947   6.145  18.885  0.00  0.00    +0.000 C 
ATOM     16  O   UNL     1       2.879   7.274  19.330  0.00  0.00    +0.000 OA
ATOM     17  C   UNL     1       2.370   4.967  19.531  0.00  0.00    +0.000 A 
ATOM     18  C   UNL     1       1.620   4.855  20.687  0.00  0.00    +0.000 A 
ATOM     19  C   UNL     1       1.197   3.572  21.051  0.00  0.00    +0.000 A 
ATOM     20  C   UNL     1       1.534   2.449  20.268  0.00  0.00    +0.000 A 
ATOM     21  C   UNL     1       2.294   2.590  19.101  0.00  0.00    +0.000 A 
ATOM     22  C   UNL     1       2.692   3.867  18.757  0.00  0.00    +0.000 A 
ATOM     23  C   UNL     1       3.460   4.345  17.607  0.00  0.00    +0.000 C 
ATOM     24  O   UNL     1       3.906   3.628  16.733  0.00  0.00    +0.000 OA
ENDBRANCH  13  14
ENDBRANCH   1  13
TORSDOF 6
ENDMDL
MODEL 9
REMARK VINA RESULT:      -7.5      1.148      1.710
REMARK  Name = 
REMARK  6 active torsions:
REMARK  status: ('A' for Active; 'I' for Inactive)
REMARK    1  A    between atoms: C_2  and  C_3
REMARK    2  A    between atoms: C_2  and  O_17
REMARK    3  A    between atoms: C_3  and  C_4
REMARK    4  A    between atoms: C_4  and  C_5
REMARK    5  A    between atoms: C_5  and  N_6
REMARK    6  A    between atoms: O_17  and  C_18
REMARK                            x       y       z     vdW  Elec       q    Type
REMARK                         _______ _______ _______ _____ _____    ______ ____
ROOT
ATOM      1  C   UNL     1       1.567   2.513  19.768  0.00  0.00    +0.000 C 
ENDROOT
BRANCH   1   2
ATOM      2  C   UNL     1       1.397   4.026  19.613  0.00  0.00    +0.000 C 
BRANCH   2   4
ATOM      3  O   UNL     1       2.197   4.499  21.850  0.00  0.00    +0.000 OA
ATOM      4  C   UNL     1       2.219   4.756  20.655  0.00  0.00    +0.000 C 
BRANCH   4   5
ATOM      5  O   UNL     1       2.999   5.735  20.032  0.00  0.00    +0.000 OA
BRANCH   5   6
ATOM      6  C   UNL     1       2.416   6.953  19.617  0.00  0.00    +0.000 A 
ATOM      7  C   UNL     1       2.486   7.425  18.306  0.00  0.00    +0.000 A 
ATOM      8  C   UNL     1       1.895   8.648  17.978  0.00  0.00    +0.000 A 
ATOM      9  C   UNL     1       1.208   9.372  18.952  0.00  0.00    +0.000 A 
ATOM     10 CL   UNL     1       0.492  10.883  18.545  0.00  0.00    +0.000 Cl
ATOM     11  C   UNL     1       1.098   8.878  20.252  0.00  0.00    +0.000 A 
ATOM     12  C   UNL     1       1.702   7.662  20.587  0.00  0.00    +0.000 A 
ENDBRANCH   5   6
ENDBRANCH   4   5
ENDBRANCH   2   4
ENDBRANCH   1   2
BRANCH   1  13
ATOM     13  C   UNL     1       2.540   1.928  18.747  0.00  0.00    +0.000 C 
BRANCH  13  14
ATOM     14  N   UNL     1       3.511   2.916  18.309  0.00  0.00    +0.000 N 
ATOM     15  C   UNL     1       3.387   3.664  17.170  0.00  0.00    +0.000 C 
ATOM     16  O   UNL     1       2.496   3.657  16.342  0.00  0.00    +0.000 OA
ATOM     17  C   UNL     1       4.571   4.518  17.100  0.00  0.00    +0.000 A 
ATOM     18  C   UNL     1       4.925   5.490  16.182  0.00  0.00    +0.000 A 
ATOM     19  C   UNL     1       6.138   6.153  16.391  0.00  0.00    +0.000 A 
ATOM     20  C   UNL     1       6.960   5.831  17.490  0.00  0.00    +0.000 A 
ATOM     21  C   UNL     1       6.579   4.843  18.405  0.00  0.00    +0.000 A 
ATOM     22  C   UNL     1       5.373   4.209  18.184  0.00  0.00    +0.000 A 
ATOM     23  C   UNL     1       4.691   3.169  18.955  0.00  0.00    +0.000 C 
ATOM     24  O   UNL     1       5.133   2.665  19.969  0.00  0.00    +0.000 OA
ENDBRANCH  13  14
ENDBRANCH   1  13
TORSDOF 6
ENDMDL
