MODEL 1
REMARK VINA RESULT:      -7.4      0.000      0.000
REMARK  Name = 
REMARK  7 active torsions:
REMARK  status: ('A' for Active; 'I' for Inactive)
REMARK    1  A    between atoms: C_1  and  C_2
REMARK    2  A    between atoms: C_2  and  N_3
REMARK    3  A    between atoms: N_3  and  C_20
REMARK    4  A    between atoms: C_4  and  C_6
REMARK    5  A    between atoms: C_11  and  C_12
REMARK    6  A    between atoms: C_12  and  C_13
REMARK    7  A    between atoms: C_16  and  C_17
REMARK                            x       y       z     vdW  Elec       q    Type
REMARK                         _______ _______ _______ _____ _____    ______ ____
ROOT
ATOM      1  C   UNL     1       5.587   5.128  18.090  0.00  0.00    +0.000 A 
ATOM      2  C   UNL     1       6.425   4.984  19.206  0.00  0.00    +0.000 A 
ATOM      3  C   UNL     1       7.486   5.849  19.453  0.00  0.00    +0.000 A 
ATOM      4  C   UNL     1       7.829   6.792  18.498  0.00  0.00    +0.000 A 
ATOM      5  C   UNL     1       7.133   6.820  17.288  0.00  0.00    +0.000 A 
ATOM      6  C   UNL     1       6.013   5.989  17.053  0.00  0.00    +0.000 A 
ENDROOT
BRANCH   1   8
ATOM      7  N   UNL     1       3.097   4.851  18.595  0.00  0.00    +0.000 N 
ATOM      8  C   UNL     1       4.314   4.317  18.066  0.00  0.00    +0.000 C 
ATOM      9  O   UNL     1       4.366   3.181  17.594  0.00  0.00    +0.000 OA
BRANCH   7  10
ATOM     10  C   UNL     1       2.876   6.282  18.969  0.00  0.00    +0.000 C 
ATOM     11  C   UNL     1       1.860   6.472  20.115  0.00  0.00    +0.000 C 
ATOM     12  C   UNL     1       1.830   7.943  20.518  0.00  0.00    +0.000 C 
ATOM     13  O   UNL     1       1.468   8.761  19.406  0.00  0.00    +0.000 OA
ATOM     14  C   UNL     1       2.378   8.637  18.313  0.00  0.00    +0.000 C 
ATOM     15  C   UNL     1       2.431   7.195  17.819  0.00  0.00    +0.000 C 
ENDBRANCH   7  10
BRANCH   7  17
ATOM     16  C   UNL     1       2.049   2.990  19.947  0.00  0.00    +0.000 C 
ATOM     17  C   UNL     1       1.971   3.912  18.735  0.00  0.00    +0.000 C 
ENDBRANCH   7  17
ENDBRANCH   1   8
BRANCH   6  18
ATOM     18  C   UNL     1       5.377   6.065  15.676  0.00  0.00    +0.000 C 
BRANCH  18  19
ATOM     19  C   UNL     1       5.832   5.066  14.623  0.00  0.00    +0.000 A 
ATOM     20  C   UNL     1       5.001   4.089  14.055  0.00  0.00    +0.000 A 
ATOM     21  C   UNL     1       5.425   3.340  12.948  0.00  0.00    +0.000 A 
ATOM     22  C   UNL     1       6.693   3.537  12.393  0.00  0.00    +0.000 A 
ATOM     23  C   UNL     1       7.057   2.914  11.078  0.00  0.00    +0.000 C 
ATOM     24  C   UNL     1       7.564   4.434  13.015  0.00  0.00    +0.000 A 
ATOM     25  C   UNL     1       7.141   5.181  14.120  0.00  0.00    +0.000 A 
ENDBRANCH  18  19
ENDBRANCH   6  18
TORSDOF 5
ENDMDL
MODEL 2
REMARK VINA RESULT:      -7.3      1.983      7.052
REMARK  Name = 
REMARK  7 active torsions:
REMARK  status: ('A' for Active; 'I' for Inactive)
REMARK    1  A    between atoms: C_1  and  C_2
REMARK    2  A    between atoms: C_2  and  N_3
REMARK    3  A    between atoms: N_3  and  C_20
REMARK    4  A    between atoms: C_4  and  C_6
REMARK    5  A    between atoms: C_11  and  C_12
REMARK    6  A    between atoms: C_12  and  C_13
REMARK    7  A    between atoms: C_16  and  C_17
REMARK                            x       y       z     vdW  Elec       q    Type
REMARK                         _______ _______ _______ _____ _____    ______ ____
ROOT
ATOM      1  C   UNL     1       4.052   4.401  18.605  0.00  0.00    +0.000 A 
ATOM      2  C   UNL     1       3.728   3.112  19.055  0.00  0.00    +0.000 A 
ATOM      3  C   UNL     1       2.578   2.448  18.639  0.00  0.00    +0.000 A 
ATOM      4  C   UNL     1       1.641   3.127  17.876  0.00  0.00    +0.000 A 
ATOM      5  C   UNL     1       1.850   4.476  17.585  0.00  0.00    +0.000 A 
ATOM      6  C   UNL     1       3.044   5.142  17.948  0.00  0.00    +0.000 A 
ENDROOT
BRANCH   1   8
ATOM      7  N   UNL     1       6.426   4.983  17.860  0.00  0.00    +0.000 N 
ATOM      8  C   UNL     1       5.443   4.910  18.896  0.00  0.00    +0.000 C 
ATOM      9  O   UNL     1       5.702   5.241  20.053  0.00  0.00    +0.000 OA
BRANCH   7  10
ATOM     10  C   UNL     1       6.149   4.831  16.398  0.00  0.00    +0.000 C 
ATOM     11  C   UNL     1       5.596   3.442  16.015  0.00  0.00    +0.000 C 
ATOM     12  C   UNL     1       5.205   3.449  14.541  0.00  0.00    +0.000 C 
ATOM     13  O   UNL     1       6.331   3.768  13.723  0.00  0.00    +0.000 OA
ATOM     14  C   UNL     1       6.884   5.049  14.024  0.00  0.00    +0.000 C 
ATOM     15  C   UNL     1       7.344   5.108  15.477  0.00  0.00    +0.000 C 
ENDBRANCH   7  10
BRANCH   7  17
ATOM     16  C   UNL     1       8.083   6.736  18.617  0.00  0.00    +0.000 C 
ATOM     17  C   UNL     1       7.807   5.274  18.281  0.00  0.00    +0.000 C 
ENDBRANCH   7  17
ENDBRANCH   1   8
BRANCH   6  18
ATOM     18  C   UNL     1       3.129   6.625  17.631  0.00  0.00    +0.000 C 
BRANCH  18  19
ATOM     19  C   UNL     1       2.427   7.596  18.569  0.00  0.00    +0.000 A 
ATOM     20  C   UNL     1       1.851   8.807  18.159  0.00  0.00    +0.000 A 
ATOM     21  C   UNL     1       1.044   9.552  19.031  0.00  0.00    +0.000 A 
ATOM     22  C   UNL     1       0.807   9.113  20.338  0.00  0.00    +0.000 A 
ATOM     23  C   UNL     1      -0.235   9.776  21.190  0.00  0.00    +0.000 C 
ATOM     24  C   UNL     1       1.459   7.963  20.786  0.00  0.00    +0.000 A 
ATOM     25  C   UNL     1       2.264   7.220  19.915  0.00  0.00    +0.000 A 
ENDBRANCH  18  19
ENDBRANCH   6  18
TORSDOF 5
ENDMDL
MODEL 3
REMARK VINA RESULT:      -7.2      1.984      7.104
REMARK  Name = 
REMARK  7 active torsions:
REMARK  status: ('A' for Active; 'I' for Inactive)
REMARK    1  A    between atoms: C_1  and  C_2
REMARK    2  A    between atoms: C_2  and  N_3
REMARK    3  A    between atoms: N_3  and  C_20
REMARK    4  A    between atoms: C_4  and  C_6
REMARK    5  A    between atoms: C_11  and  C_12
REMARK    6  A    between atoms: C_12  and  C_13
REMARK    7  A    between atoms: C_16  and  C_17
REMARK                            x       y       z     vdW  Elec       q    Type
REMARK                         _______ _______ _______ _____ _____    ______ ____
ROOT
ATOM      1  C   UNL     1       4.055   4.533  18.603  0.00  0.00    +0.000 A 
ATOM      2  C   UNL     1       3.742   3.215  18.969  0.00  0.00    +0.000 A 
ATOM      3  C   UNL     1       2.586   2.578  18.529  0.00  0.00    +0.000 A 
ATOM      4  C   UNL     1       1.634   3.305  17.833  0.00  0.00    +0.000 A 
ATOM      5  C   UNL     1       1.834   4.671  17.631  0.00  0.00    +0.000 A 
ATOM      6  C   UNL     1       3.033   5.314  18.018  0.00  0.00    +0.000 A 
ENDROOT
BRANCH   1   8
ATOM      7  N   UNL     1       6.444   5.078  17.876  0.00  0.00    +0.000 N 
ATOM      8  C   UNL     1       5.450   5.026  18.903  0.00  0.00    +0.000 C 
ATOM      9  O   UNL     1       5.703   5.363  20.061  0.00  0.00    +0.000 OA
BRANCH   7  10
ATOM     10  C   UNL     1       6.179   4.917  16.413  0.00  0.00    +0.000 C 
ATOM     11  C   UNL     1       5.545   3.559  16.045  0.00  0.00    +0.000 C 
ATOM     12  C   UNL     1       5.175   3.564  14.565  0.00  0.00    +0.000 C 
ATOM     13  O   UNL     1       6.331   3.797  13.759  0.00  0.00    +0.000 OA
ATOM     14  C   UNL     1       6.959   5.047  14.047  0.00  0.00    +0.000 C 
ATOM     15  C   UNL     1       7.401   5.102  15.506  0.00  0.00    +0.000 C 
ENDBRANCH   7  10
BRANCH   7  17
ATOM     16  C   UNL     1       8.130   6.821  18.589  0.00  0.00    +0.000 C 
ATOM     17  C   UNL     1       7.825   5.353  18.308  0.00  0.00    +0.000 C 
ENDBRANCH   7  17
ENDBRANCH   1   8
BRANCH   6  18
ATOM     18  C   UNL     1       3.109   6.816  17.803  0.00  0.00    +0.000 C 
BRANCH  18  19
ATOM     19  C   UNL     1       2.213   7.705  18.652  0.00  0.00    +0.000 A 
ATOM     20  C   UNL     1       1.973   7.501  20.019  0.00  0.00    +0.000 A 
ATOM     21  C   UNL     1       1.307   8.469  20.784  0.00  0.00    +0.000 A 
ATOM     22  C   UNL     1       0.851   9.655  20.200  0.00  0.00    +0.000 A 
ATOM     23  C   UNL     1       0.355  10.786  21.052  0.00  0.00    +0.000 C 
ATOM     24  C   UNL     1       0.995   9.820  18.821  0.00  0.00    +0.000 A 
ATOM     25  C   UNL     1       1.660   8.853  18.057  0.00  0.00    +0.000 A 
ENDBRANCH  18  19
ENDBRANCH   6  18
TORSDOF 5
ENDMDL
MODEL 4
REMARK VINA RESULT:      -7.0      2.005      6.888
REMARK  Name = 
REMARK  7 active torsions:
REMARK  status: ('A' for Active; 'I' for Inactive)
REMARK    1  A    between atoms: C_1  and  C_2
REMARK    2  A    between atoms: C_2  and  N_3
REMARK    3  A    between atoms: N_3  and  C_20
REMARK    4  A    between atoms: C_4  and  C_6
REMARK    5  A    between atoms: C_11  and  C_12
REMARK    6  A    between atoms: C_12  and  C_13
REMARK    7  A    between atoms: C_16  and  C_17
REMARK                            x       y       z     vdW  Elec       q    Type
REMARK                         _______ _______ _______ _____ _____    ______ ____
ROOT
ATOM      1  C   UNL     1       3.372   4.432  18.582  0.00  0.00    +0.000 A 
ATOM      2  C   UNL     1       3.470   3.314  19.425  0.00  0.00    +0.000 A 
ATOM      3  C   UNL     1       2.803   3.245  20.644  0.00  0.00    +0.000 A 
ATOM      4  C   UNL     1       2.142   4.365  21.121  0.00  0.00    +0.000 A 
ATOM      5  C   UNL     1       2.202   5.552  20.391  0.00  0.00    +0.000 A 
ATOM      6  C   UNL     1       2.821   5.617  19.121  0.00  0.00    +0.000 A 
ENDROOT
BRANCH   1   8
ATOM      7  N   UNL     1       5.050   5.033  16.750  0.00  0.00    +0.000 N 
ATOM      8  C   UNL     1       3.903   4.292  17.176  0.00  0.00    +0.000 C 
ATOM      9  O   UNL     1       3.305   3.534  16.410  0.00  0.00    +0.000 OA
BRANCH   7  10
ATOM     10  C   UNL     1       5.972   5.787  17.654  0.00  0.00    +0.000 C 
ATOM     11  C   UNL     1       6.803   6.866  16.929  0.00  0.00    +0.000 C 
ATOM     12  C   UNL     1       7.585   7.672  17.962  0.00  0.00    +0.000 C 
ATOM     13  O   UNL     1       8.446   6.819  18.717  0.00  0.00    +0.000 OA
ATOM     14  C   UNL     1       7.733   5.802  19.421  0.00  0.00    +0.000 C 
ATOM     15  C   UNL     1       6.957   4.920  18.448  0.00  0.00    +0.000 C 
ENDBRANCH   7  10
BRANCH   7  17
ATOM     16  C   UNL     1       6.274   3.871  14.868  0.00  0.00    +0.000 C 
ATOM     17  C   UNL     1       5.354   5.005  15.309  0.00  0.00    +0.000 C 
ENDBRANCH   7  17
ENDBRANCH   1   8
BRANCH   6  18
ATOM     18  C   UNL     1       2.878   6.979  18.451  0.00  0.00    +0.000 C 
BRANCH  18  19
ATOM     19  C   UNL     1       1.893   8.043  18.912  0.00  0.00    +0.000 A 
ATOM     20  C   UNL     1       1.594   8.306  20.257  0.00  0.00    +0.000 A 
ATOM     21  C   UNL     1       0.839   9.431  20.619  0.00  0.00    +0.000 A 
ATOM     22  C   UNL     1       0.352  10.310  19.646  0.00  0.00    +0.000 A 
ATOM     23  C   UNL     1      -0.247  11.628  20.038  0.00  0.00    +0.000 C 
ATOM     24  C   UNL     1       0.559  10.000  18.300  0.00  0.00    +0.000 A 
ATOM     25  C   UNL     1       1.312   8.877  17.939  0.00  0.00    +0.000 A 
ENDBRANCH  18  19
ENDBRANCH   6  18
TORSDOF 5
ENDMDL
MODEL 5
REMARK VINA RESULT:      -7.0      2.104      6.688
REMARK  Name = 
REMARK  7 active torsions:
REMARK  status: ('A' for Active; 'I' for Inactive)
REMARK    1  A    between atoms: C_1  and  C_2
REMARK    2  A    between atoms: C_2  and  N_3
REMARK    3  A    between atoms: N_3  and  C_20
REMARK    4  A    between atoms: C_4  and  C_6
REMARK    5  A    between atoms: C_11  and  C_12
REMARK    6  A    between atoms: C_12  and  C_13
REMARK    7  A    between atoms: C_16  and  C_17
REMARK                            x       y       z     vdW  Elec       q    Type
REMARK                         _______ _______ _______ _____ _____    ______ ____
ROOT
ATOM      1  C   UNL     1       3.797   3.697  19.006  0.00  0.00    +0.000 A 
ATOM      2  C   UNL     1       3.592   2.482  18.334  0.00  0.00    +0.000 A 
ATOM      3  C   UNL     1       2.353   2.121  17.813  0.00  0.00    +0.000 A 
ATOM      4  C   UNL     1       1.247   2.907  18.091  0.00  0.00    +0.000 A 
ATOM      5  C   UNL     1       1.391   4.015  18.928  0.00  0.00    +0.000 A 
ATOM      6  C   UNL     1       2.655   4.426  19.409  0.00  0.00    +0.000 A 
ENDROOT
BRANCH   1   8
ATOM      7  N   UNL     1       6.065   4.580  18.226  0.00  0.00    +0.000 N 
ATOM      8  C   UNL     1       5.222   4.108  19.281  0.00  0.00    +0.000 C 
ATOM      9  O   UNL     1       5.636   4.007  20.437  0.00  0.00    +0.000 OA
BRANCH   7  10
ATOM     10  C   UNL     1       5.598   4.957  16.855  0.00  0.00    +0.000 C 
ATOM     11  C   UNL     1       6.389   4.270  15.722  0.00  0.00    +0.000 C 
ATOM     12  C   UNL     1       5.734   4.600  14.385  0.00  0.00    +0.000 C 
ATOM     13  O   UNL     1       5.706   6.012  14.173  0.00  0.00    +0.000 OA
ATOM     14  C   UNL     1       4.978   6.705  15.187  0.00  0.00    +0.000 C 
ATOM     15  C   UNL     1       5.601   6.461  16.558  0.00  0.00    +0.000 C 
ENDBRANCH   7  10
BRANCH   7  17
ATOM     16  C   UNL     1       7.894   6.133  19.018  0.00  0.00    +0.000 C 
ATOM     17  C   UNL     1       7.494   4.740  18.544  0.00  0.00    +0.000 C 
ENDBRANCH   7  17
ENDBRANCH   1   8
BRANCH   6  18
ATOM     18  C   UNL     1       2.678   5.609  20.362  0.00  0.00    +0.000 C 
BRANCH  18  19
ATOM     19  C   UNL     1       2.307   6.977  19.810  0.00  0.00    +0.000 A 
ATOM     20  C   UNL     1       2.535   7.378  18.485  0.00  0.00    +0.000 A 
ATOM     21  C   UNL     1       1.986   8.569  17.990  0.00  0.00    +0.000 A 
ATOM     22  C   UNL     1       1.210   9.395  18.809  0.00  0.00    +0.000 A 
ATOM     23  C   UNL     1       0.432  10.538  18.226  0.00  0.00    +0.000 C 
ATOM     24  C   UNL     1       1.064   9.056  20.156  0.00  0.00    +0.000 A 
ATOM     25  C   UNL     1       1.612   7.866  20.650  0.00  0.00    +0.000 A 
ENDBRANCH  18  19
ENDBRANCH   6  18
TORSDOF 5
ENDMDL
MODEL 6
REMARK VINA RESULT:      -7.0      0.297      1.002
REMARK  Name = 
REMARK  7 active torsions:
REMARK  status: ('A' for Active; 'I' for Inactive)
REMARK    1  A    between atoms: C_1  and  C_2
REMARK    2  A    between atoms: C_2  and  N_3
REMARK    3  A    between atoms: N_3  and  C_20
REMARK    4  A    between atoms: C_4  and  C_6
REMARK    5  A    between atoms: C_11  and  C_12
REMARK    6  A    between atoms: C_12  and  C_13
REMARK    7  A    between atoms: C_16  and  C_17
REMARK                            x       y       z     vdW  Elec       q    Type
REMARK                         _______ _______ _______ _____ _____    ______ ____
ROOT
ATOM      1  C   UNL     1       5.546   4.967  18.042  0.00  0.00    +0.000 A 
ATOM      2  C   UNL     1       6.490   4.848  19.072  0.00  0.00    +0.000 A 
ATOM      3  C   UNL     1       7.548   5.741  19.216  0.00  0.00    +0.000 A 
ATOM      4  C   UNL     1       7.772   6.691  18.234  0.00  0.00    +0.000 A 
ATOM      5  C   UNL     1       6.962   6.699  17.097  0.00  0.00    +0.000 A 
ATOM      6  C   UNL     1       5.847   5.838  16.970  0.00  0.00    +0.000 A 
ENDROOT
BRANCH   1   8
ATOM      7  N   UNL     1       3.114   4.636  18.755  0.00  0.00    +0.000 N 
ATOM      8  C   UNL     1       4.299   4.123  18.140  0.00  0.00    +0.000 C 
ATOM      9  O   UNL     1       4.345   2.977  17.689  0.00  0.00    +0.000 OA
BRANCH   7  10
ATOM     10  C   UNL     1       2.884   6.070  19.115  0.00  0.00    +0.000 C 
ATOM     11  C   UNL     1       1.884   6.262  20.275  0.00  0.00    +0.000 C 
ATOM     12  C   UNL     1       1.844   7.737  20.660  0.00  0.00    +0.000 C 
ATOM     13  O   UNL     1       1.456   8.539  19.544  0.00  0.00    +0.000 OA
ATOM     14  C   UNL     1       2.350   8.411  18.438  0.00  0.00    +0.000 C 
ATOM     15  C   UNL     1       2.411   6.963  17.962  0.00  0.00    +0.000 C 
ENDBRANCH   7  10
BRANCH   7  17
ATOM     16  C   UNL     1       2.227   2.790  20.235  0.00  0.00    +0.000 C 
ATOM     17  C   UNL     1       2.030   3.671  19.006  0.00  0.00    +0.000 C 
ENDBRANCH   7  17
ENDBRANCH   1   8
BRANCH   6  18
ATOM     18  C   UNL     1       5.079   5.895  15.660  0.00  0.00    +0.000 C 
BRANCH  18  19
ATOM     19  C   UNL     1       5.677   5.191  14.451  0.00  0.00    +0.000 A 
ATOM     20  C   UNL     1       7.027   5.278  14.080  0.00  0.00    +0.000 A 
ATOM     21  C   UNL     1       7.553   4.446  13.082  0.00  0.00    +0.000 A 
ATOM     22  C   UNL     1       6.741   3.518  12.421  0.00  0.00    +0.000 A 
ATOM     23  C   UNL     1       7.344   2.472  11.530  0.00  0.00    +0.000 C 
ATOM     24  C   UNL     1       5.376   3.496  12.713  0.00  0.00    +0.000 A 
ATOM     25  C   UNL     1       4.851   4.328  13.709  0.00  0.00    +0.000 A 
ENDBRANCH  18  19
ENDBRANCH   6  18
TORSDOF 5
ENDMDL
MODEL 7
REMARK VINA RESULT:      -6.9      2.027      6.966
REMARK  Name = 
REMARK  7 active torsions:
REMARK  status: ('A' for Active; 'I' for Inactive)
REMARK    1  A    between atoms: C_1  and  C_2
REMARK    2  A    between atoms: C_2  and  N_3
REMARK    3  A    between atoms: N_3  and  C_20
REMARK    4  A    between atoms: C_4  and  C_6
REMARK    5  A    between atoms: C_11  and  C_12
REMARK    6  A    between atoms: C_12  and  C_13
REMARK    7  A    between atoms: C_16  and  C_17
REMARK                            x       y       z     vdW  Elec       q    Type
REMARK                         _______ _______ _______ _____ _____    ______ ____
ROOT
ATOM      1  C   UNL     1       3.269   4.398  18.599  0.00  0.00    +0.000 A 
ATOM      2  C   UNL     1       3.553   3.403  19.546  0.00  0.00    +0.000 A 
ATOM      3  C   UNL     1       2.912   3.348  20.780  0.00  0.00    +0.000 A 
ATOM      4  C   UNL     1       2.076   4.386  21.156  0.00  0.00    +0.000 A 
ATOM      5  C   UNL     1       1.935   5.488  20.310  0.00  0.00    +0.000 A 
ATOM      6  C   UNL     1       2.531   5.524  19.029  0.00  0.00    +0.000 A 
ENDROOT
BRANCH   1   8
ATOM      7  N   UNL     1       4.959   4.932  16.758  0.00  0.00    +0.000 N 
ATOM      8  C   UNL     1       3.811   4.205  17.204  0.00  0.00    +0.000 C 
ATOM      9  O   UNL     1       3.221   3.416  16.463  0.00  0.00    +0.000 OA
BRANCH   7  10
ATOM     10  C   UNL     1       5.872   5.723  17.639  0.00  0.00    +0.000 C 
ATOM     11  C   UNL     1       6.677   6.803  16.886  0.00  0.00    +0.000 C 
ATOM     12  C   UNL     1       7.450   7.646  17.895  0.00  0.00    +0.000 C 
ATOM     13  O   UNL     1       8.333   6.827  18.662  0.00  0.00    +0.000 OA
ATOM     14  C   UNL     1       7.645   5.811  19.393  0.00  0.00    +0.000 C 
ATOM     15  C   UNL     1       6.879   4.893  18.445  0.00  0.00    +0.000 C 
ENDBRANCH   7  10
BRANCH   7  17
ATOM     16  C   UNL     1       6.312   3.795  14.951  0.00  0.00    +0.000 C 
ATOM     17  C   UNL     1       5.275   4.850  15.321  0.00  0.00    +0.000 C 
ENDBRANCH   7  17
ENDBRANCH   1   8
BRANCH   6  18
ATOM     18  C   UNL     1       2.359   6.802  18.225  0.00  0.00    +0.000 C 
BRANCH  18  19
ATOM     19  C   UNL     1       1.875   8.045  18.956  0.00  0.00    +0.000 A 
ATOM     20  C   UNL     1       1.490   9.232  18.317  0.00  0.00    +0.000 A 
ATOM     21  C   UNL     1       0.861  10.262  19.031  0.00  0.00    +0.000 A 
ATOM     22  C   UNL     1       0.617  10.138  20.402  0.00  0.00    +0.000 A 
ATOM     23  C   UNL     1      -0.258  11.125  21.116  0.00  0.00    +0.000 C 
ATOM     24  C   UNL     1       1.089   9.003  21.066  0.00  0.00    +0.000 A 
ATOM     25  C   UNL     1       1.716   7.975  20.352  0.00  0.00    +0.000 A 
ENDBRANCH  18  19
ENDBRANCH   6  18
TORSDOF 5
ENDMDL
MODEL 8
REMARK VINA RESULT:      -6.9      2.073      6.693
REMARK  Name = 
REMARK  7 active torsions:
REMARK  status: ('A' for Active; 'I' for Inactive)
REMARK    1  A    between atoms: C_1  and  C_2
REMARK    2  A    between atoms: C_2  and  N_3
REMARK    3  A    between atoms: N_3  and  C_20
REMARK    4  A    between atoms: C_4  and  C_6
REMARK    5  A    between atoms: C_11  and  C_12
REMARK    6  A    between atoms: C_12  and  C_13
REMARK    7  A    between atoms: C_16  and  C_17
REMARK                            x       y       z     vdW  Elec       q    Type
REMARK                         _______ _______ _______ _____ _____    ______ ____
ROOT
ATOM      1  C   UNL     1       4.050   3.798  18.945  0.00  0.00    +0.000 A 
ATOM      2  C   UNL     1       3.921   2.574  18.272  0.00  0.00    +0.000 A 
ATOM      3  C   UNL     1       2.712   2.149  17.730  0.00  0.00    +0.000 A 
ATOM      4  C   UNL     1       1.561   2.876  17.986  0.00  0.00    +0.000 A 
ATOM      5  C   UNL     1       1.633   3.991  18.823  0.00  0.00    +0.000 A 
ATOM      6  C   UNL     1       2.865   4.467  19.326  0.00  0.00    +0.000 A 
ENDROOT
BRANCH   1   8
ATOM      7  N   UNL     1       6.336   4.654  18.187  0.00  0.00    +0.000 N 
ATOM      8  C   UNL     1       5.447   4.283  19.244  0.00  0.00    +0.000 C 
ATOM      9  O   UNL     1       5.798   4.331  20.425  0.00  0.00    +0.000 OA
BRANCH   7  10
ATOM     10  C   UNL     1       5.937   4.854  16.759  0.00  0.00    +0.000 C 
ATOM     11  C   UNL     1       7.018   4.416  15.748  0.00  0.00    +0.000 C 
ATOM     12  C   UNL     1       6.452   4.515  14.336  0.00  0.00    +0.000 C 
ATOM     13  O   UNL     1       6.034   5.852  14.054  0.00  0.00    +0.000 OA
ATOM     14  C   UNL     1       5.024   6.312  14.953  0.00  0.00    +0.000 C 
ATOM     15  C   UNL     1       5.532   6.287  16.391  0.00  0.00    +0.000 C 
ENDBRANCH   7  10
BRANCH   7  17
ATOM     16  C   UNL     1       8.083   6.348  18.869  0.00  0.00    +0.000 C 
ATOM     17  C   UNL     1       7.740   4.895  18.559  0.00  0.00    +0.000 C 
ENDBRANCH   7  17
ENDBRANCH   1   8
BRANCH   6  18
ATOM     18  C   UNL     1       2.810   5.651  20.277  0.00  0.00    +0.000 C 
BRANCH  18  19
ATOM     19  C   UNL     1       2.230   6.958  19.756  0.00  0.00    +0.000 A 
ATOM     20  C   UNL     1       1.455   7.836  20.528  0.00  0.00    +0.000 A 
ATOM     21  C   UNL     1       1.128   9.113  20.052  0.00  0.00    +0.000 A 
ATOM     22  C   UNL     1       1.554   9.539  18.790  0.00  0.00    +0.000 A 
ATOM     23  C   UNL     1       1.411  10.974  18.378  0.00  0.00    +0.000 C 
ATOM     24  C   UNL     1       2.239   8.635  17.975  0.00  0.00    +0.000 A 
ATOM     25  C   UNL     1       2.565   7.360  18.450  0.00  0.00    +0.000 A 
ENDBRANCH  18  19
ENDBRANCH   6  18
TORSDOF 5
ENDMDL
MODEL 9
REMARK VINA RESULT:      -6.7      2.209      6.881
REMARK  Name = 
REMARK  7 active torsions:
REMARK  status: ('A' for Active; 'I' for Inactive)
REMARK    1  A    between atoms: C_1  and  C_2
REMARK    2  A    between atoms: C_2  and  N_3
REMARK    3  A    between atoms: N_3  and  C_20
REMARK    4  A    between atoms: C_4  and  C_6
REMARK    5  A    between atoms: C_11  and  C_12
REMARK    6  A    between atoms: C_12  and  C_13
REMARK    7  A    between atoms: C_16  and  C_17
REMARK                            x       y       z     vdW  Elec       q    Type
REMARK                         _______ _______ _______ _____ _____    ______ ____
ROOT
ATOM      1  C   UNL     1       2.985   5.424  18.649  0.00  0.00    +0.000 A 
ATOM      2  C   UNL     1       2.963   4.555  19.750  0.00  0.00    +0.000 A 
ATOM      3  C   UNL     1       2.248   4.844  20.909  0.00  0.00    +0.000 A 
ATOM      4  C   UNL     1       1.660   6.090  21.050  0.00  0.00    +0.000 A 
ATOM      5  C   UNL     1       1.840   7.045  20.047  0.00  0.00    +0.000 A 
ATOM      6  C   UNL     1       2.509   6.741  18.840  0.00  0.00    +0.000 A 
ENDROOT
BRANCH   1   8
ATOM      7  N   UNL     1       4.862   5.277  16.921  0.00  0.00    +0.000 N 
ATOM      8  C   UNL     1       3.555   4.894  17.356  0.00  0.00    +0.000 C 
ATOM      9  O   UNL     1       2.850   4.137  16.685  0.00  0.00    +0.000 OA
BRANCH   7  10
ATOM     10  C   UNL     1       5.874   5.990  17.761  0.00  0.00    +0.000 C 
ATOM     11  C   UNL     1       6.816   6.905  16.951  0.00  0.00    +0.000 C 
ATOM     12  C   UNL     1       7.695   7.696  17.914  0.00  0.00    +0.000 C 
ATOM     13  O   UNL     1       8.460   6.814  18.736  0.00  0.00    +0.000 OA
ATOM     14  C   UNL     1       7.642   5.946  19.520  0.00  0.00    +0.000 C 
ATOM     15  C   UNL     1       6.760   5.083  18.623  0.00  0.00    +0.000 C 
ENDBRANCH   7  10
BRANCH   7  17
ATOM     16  C   UNL     1       6.079   3.626  15.444  0.00  0.00    +0.000 C 
ATOM     17  C   UNL     1       5.240   4.894  15.550  0.00  0.00    +0.000 C 
ENDBRANCH   7  17
ENDBRANCH   1   8
BRANCH   6  18
ATOM     18  C   UNL     1       2.697   7.879  17.852  0.00  0.00    +0.000 C 
BRANCH  18  19
ATOM     19  C   UNL     1       1.757   9.072  17.949  0.00  0.00    +0.000 A 
ATOM     20  C   UNL     1       0.371   8.997  17.752  0.00  0.00    +0.000 A 
ATOM     21  C   UNL     1      -0.458  10.085  18.058  0.00  0.00    +0.000 A 
ATOM     22  C   UNL     1       0.079  11.278  18.552  0.00  0.00    +0.000 A 
ATOM     23  C   UNL     1      -0.817  12.351  19.098  0.00  0.00    +0.000 C 
ATOM     24  C   UNL     1       1.466  11.396  18.654  0.00  0.00    +0.000 A 
ATOM     25  C   UNL     1       2.293  10.309  18.349  0.00  0.00    +0.000 A 
ENDBRANCH  18  19
ENDBRANCH   6  18
TORSDOF 5
ENDMDL
