MODEL 1
REMARK VINA RESULT:      -8.8      0.000      0.000
REMARK  Name = 
REMARK  10 active torsions:
REMARK  status: ('A' for Active; 'I' for Inactive)
REMARK    1  A    between atoms: C_1  and  C_2
REMARK    2  A    between atoms: C_3  and  C_4
REMARK    3  A    between atoms: C_7  and  C_8
REMARK    4  A    between atoms: C_9  and  O_10
REMARK    5  A    between atoms: C_13  and  C_14
REMARK    6  A    between atoms: C_13  and  C_15
REMARK    7  A    between atoms: C_15  and  O_16
REMARK    8  A    between atoms: O_16  and  C_17
REMARK    9  A    between atoms: C_22  and  S_23
REMARK   10  A    between atoms: S_23  and  C_26
REMARK                            x       y       z     vdW  Elec       q    Type
REMARK                         _______ _______ _______ _____ _____    ______ ____
ROOT
ATOM      1  C   UNL     1       1.961   7.787  18.065  0.00  0.00    +0.000 C 
ENDROOT
BRANCH   1  13
ATOM      2  C   UNL     1      -4.233  11.786  17.343  0.00  0.00    +0.000 C 
ATOM      3  C   UNL     1      -2.974  11.389  18.075  0.00  0.00    +0.000 A 
ATOM      4  C   UNL     1      -2.066  10.403  17.625  0.00  0.00    +0.000 A 
ATOM      5  C   UNL     1      -2.279   9.598  16.366  0.00  0.00    +0.000 C 
ATOM      6  C   UNL     1      -0.906  10.133  18.394  0.00  0.00    +0.000 A 
ATOM      7  C   UNL     1      -0.681  10.784  19.628  0.00  0.00    +0.000 A 
ATOM      8  C   UNL     1      -1.573  11.786  20.068  0.00  0.00    +0.000 A 
ATOM      9  C   UNL     1      -1.335  12.542  21.351  0.00  0.00    +0.000 C 
ATOM     10  C   UNL     1      -2.701  12.068  19.282  0.00  0.00    +0.000 A 
ATOM     11  C   UNL     1       0.516  10.429  20.461  0.00  0.00    +0.000 C 
ATOM     12  C   UNL     1       1.187   9.164  19.987  0.00  0.00    +0.000 C 
ATOM     13  C   UNL     1       1.292   9.136  18.461  0.00  0.00    +0.000 C 
ATOM     14  C   UNL     1       2.146  10.288  17.894  0.00  0.00    +0.000 C 
ATOM     15  O   UNL     1      -0.027   9.199  17.875  0.00  0.00    +0.000 OA
BRANCH  10  16
ATOM     16  O   UNL     1      -3.611  13.030  19.660  0.00  0.00    +0.000 OA
ATOM     17  H   UNL     1      -3.531  13.206  20.611  0.00  0.00    +0.000 HD
ENDBRANCH  10  16
ENDBRANCH   1  13
BRANCH   1  18
ATOM     18  O   UNL     1       2.885   7.374  19.087  0.00  0.00    +0.000 OA
BRANCH  18  19
ATOM     19  C   UNL     1       2.633   6.182  19.668  0.00  0.00    +0.000 A 
ATOM     20  N   UNL     1       1.817   6.101  20.722  0.00  0.00    +0.000 NA
ATOM     21  O   UNL     1       1.780   4.746  21.057  0.00  0.00    +0.000 OA
ATOM     22  N   UNL     1       2.629   4.048  20.131  0.00  0.00    +0.000 N 
ATOM     23  O   UNL     1       2.646   2.803  20.239  0.00  0.00    +0.000 OA
ATOM     24  C   UNL     1       3.126   4.937  19.292  0.00  0.00    +0.000 A 
BRANCH  24  25
ATOM     25  S   UNL     1       4.186   4.509  18.070  0.00  0.00    +0.000 S 
ATOM     26  O   UNL     1       4.606   3.157  18.375  0.00  0.00    +0.000 OA
ATOM     27  O   UNL     1       3.471   4.811  16.852  0.00  0.00    +0.000 OA
BRANCH  25  28
ATOM     28  C   UNL     1       5.610   5.556  18.189  0.00  0.00    +0.000 A 
ATOM     29  C   UNL     1       6.615   5.246  19.113  0.00  0.00    +0.000 A 
ATOM     30  C   UNL     1       7.775   6.023  19.161  0.00  0.00    +0.000 A 
ATOM     31  C   UNL     1       7.931   7.104  18.292  0.00  0.00    +0.000 A 
ATOM     32  C   UNL     1       6.934   7.403  17.363  0.00  0.00    +0.000 A 
ATOM     33  C   UNL     1       5.775   6.622  17.297  0.00  0.00    +0.000 A 
ENDBRANCH  25  28
ENDBRANCH  24  25
ENDBRANCH  18  19
ENDBRANCH   1  18
TORSDOF 6
ENDMDL
MODEL 2
REMARK VINA RESULT:      -8.7      2.092      3.492
REMARK  Name = 
REMARK  10 active torsions:
REMARK  status: ('A' for Active; 'I' for Inactive)
REMARK    1  A    between atoms: C_1  and  C_2
REMARK    2  A    between atoms: C_3  and  C_4
REMARK    3  A    between atoms: C_7  and  C_8
REMARK    4  A    between atoms: C_9  and  O_10
REMARK    5  A    between atoms: C_13  and  C_14
REMARK    6  A    between atoms: C_13  and  C_15
REMARK    7  A    between atoms: C_15  and  O_16
REMARK    8  A    between atoms: O_16  and  C_17
REMARK    9  A    between atoms: C_22  and  S_23
REMARK   10  A    between atoms: S_23  and  C_26
REMARK                            x       y       z     vdW  Elec       q    Type
REMARK                         _______ _______ _______ _____ _____    ______ ____
ROOT
ATOM      1  C   UNL     1       2.068   7.681  17.764  0.00  0.00    +0.000 C 
ENDROOT
BRANCH   1  13
ATOM      2  C   UNL     1      -4.042  11.866  17.555  0.00  0.00    +0.000 C 
ATOM      3  C   UNL     1      -2.774  11.381  18.216  0.00  0.00    +0.000 A 
ATOM      4  C   UNL     1      -1.903  10.415  17.659  0.00  0.00    +0.000 A 
ATOM      5  C   UNL     1      -2.169   9.725  16.344  0.00  0.00    +0.000 C 
ATOM      6  C   UNL     1      -0.730  10.056  18.369  0.00  0.00    +0.000 A 
ATOM      7  C   UNL     1      -0.456  10.596  19.646  0.00  0.00    +0.000 A 
ATOM      8  C   UNL     1      -1.311  11.576  20.194  0.00  0.00    +0.000 A 
ATOM      9  C   UNL     1      -1.020  12.217  21.529  0.00  0.00    +0.000 C 
ATOM     10  C   UNL     1      -2.452  11.949  19.467  0.00  0.00    +0.000 A 
ATOM     11  C   UNL     1       0.753  10.144  20.413  0.00  0.00    +0.000 C 
ATOM     12  C   UNL     1       1.380   8.909  19.816  0.00  0.00    +0.000 C 
ATOM     13  C   UNL     1       1.443   9.007  18.291  0.00  0.00    +0.000 C 
ATOM     14  C   UNL     1       2.311  10.183  17.798  0.00  0.00    +0.000 C 
ATOM     15  O   UNL     1       0.112   9.149  17.749  0.00  0.00    +0.000 OA
BRANCH  10  16
ATOM     16  O   UNL     1      -3.327  12.896  19.950  0.00  0.00    +0.000 OA
ATOM     17  H   UNL     1      -4.150  12.880  19.438  0.00  0.00    +0.000 HD
ENDBRANCH  10  16
ENDBRANCH   1  13
BRANCH   1  18
ATOM     18  O   UNL     1       3.472   7.639  18.072  0.00  0.00    +0.000 OA
BRANCH  18  19
ATOM     19  C   UNL     1       4.251   6.962  17.203  0.00  0.00    +0.000 A 
ATOM     20  N   UNL     1       4.454   7.429  15.968  0.00  0.00    +0.000 NA
ATOM     21  O   UNL     1       5.296   6.499  15.356  0.00  0.00    +0.000 OA
ATOM     22  N   UNL     1       5.567   5.462  16.314  0.00  0.00    +0.000 N 
ATOM     23  O   UNL     1       6.379   4.584  15.952  0.00  0.00    +0.000 OA
ATOM     24  C   UNL     1       4.932   5.770  17.429  0.00  0.00    +0.000 A 
BRANCH  24  25
ATOM     25  S   UNL     1       4.986   4.787  18.781  0.00  0.00    +0.000 S 
ATOM     26  O   UNL     1       5.641   3.569  18.351  0.00  0.00    +0.000 OA
ATOM     27  O   UNL     1       5.564   5.620  19.810  0.00  0.00    +0.000 OA
BRANCH  25  28
ATOM     28  C   UNL     1       3.321   4.376  19.226  0.00  0.00    +0.000 A 
ATOM     29  C   UNL     1       2.672   3.329  18.561  0.00  0.00    +0.000 A 
ATOM     30  C   UNL     1       1.386   2.949  18.957  0.00  0.00    +0.000 A 
ATOM     31  C   UNL     1       0.754   3.611  20.010  0.00  0.00    +0.000 A 
ATOM     32  C   UNL     1       1.408   4.645  20.680  0.00  0.00    +0.000 A 
ATOM     33  C   UNL     1       2.700   5.023  20.301  0.00  0.00    +0.000 A 
ENDBRANCH  25  28
ENDBRANCH  24  25
ENDBRANCH  18  19
ENDBRANCH   1  18
TORSDOF 6
ENDMDL
MODEL 3
REMARK VINA RESULT:      -8.6      2.078      3.522
REMARK  Name = 
REMARK  10 active torsions:
REMARK  status: ('A' for Active; 'I' for Inactive)
REMARK    1  A    between atoms: C_1  and  C_2
REMARK    2  A    between atoms: C_3  and  C_4
REMARK    3  A    between atoms: C_7  and  C_8
REMARK    4  A    between atoms: C_9  and  O_10
REMARK    5  A    between atoms: C_13  and  C_14
REMARK    6  A    between atoms: C_13  and  C_15
REMARK    7  A    between atoms: C_15  and  O_16
REMARK    8  A    between atoms: O_16  and  C_17
REMARK    9  A    between atoms: C_22  and  S_23
REMARK   10  A    between atoms: S_23  and  C_26
REMARK                            x       y       z     vdW  Elec       q    Type
REMARK                         _______ _______ _______ _____ _____    ______ ____
ROOT
ATOM      1  C   UNL     1       2.224   7.728  17.794  0.00  0.00    +0.000 C 
ENDROOT
BRANCH   1  13
ATOM      2  C   UNL     1      -4.006  11.718  17.398  0.00  0.00    +0.000 C 
ATOM      3  C   UNL     1      -2.738  11.280  18.092  0.00  0.00    +0.000 A 
ATOM      4  C   UNL     1      -1.826  10.336  17.567  0.00  0.00    +0.000 A 
ATOM      5  C   UNL     1      -2.042   9.621  16.256  0.00  0.00    +0.000 C 
ATOM      6  C   UNL     1      -0.658  10.022  18.307  0.00  0.00    +0.000 A 
ATOM      7  C   UNL     1      -0.429  10.586  19.583  0.00  0.00    +0.000 A 
ATOM      8  C   UNL     1      -1.325  11.547  20.099  0.00  0.00    +0.000 A 
ATOM      9  C   UNL     1      -1.083  12.213  21.431  0.00  0.00    +0.000 C 
ATOM     10  C   UNL     1      -2.462  11.875  19.342  0.00  0.00    +0.000 A 
ATOM     11  C   UNL     1       0.777  10.183  20.381  0.00  0.00    +0.000 C 
ATOM     12  C   UNL     1       1.454   8.960  19.814  0.00  0.00    +0.000 C 
ATOM     13  C   UNL     1       1.548   9.040  18.290  0.00  0.00    +0.000 C 
ATOM     14  C   UNL     1       2.389  10.236  17.800  0.00  0.00    +0.000 C 
ATOM     15  O   UNL     1       0.224   9.134  17.718  0.00  0.00    +0.000 OA
BRANCH  10  16
ATOM     16  O   UNL     1      -3.375  12.800  19.794  0.00  0.00    +0.000 OA
ATOM     17  H   UNL     1      -3.112  13.128  20.668  0.00  0.00    +0.000 HD
ENDBRANCH  10  16
ENDBRANCH   1  13
BRANCH   1  18
ATOM     18  O   UNL     1       3.656   7.861  17.842  0.00  0.00    +0.000 OA
BRANCH  18  19
ATOM     19  C   UNL     1       4.359   6.970  17.111  0.00  0.00    +0.000 A 
ATOM     20  N   UNL     1       4.671   7.233  15.839  0.00  0.00    +0.000 NA
ATOM     21  O   UNL     1       5.391   6.121  15.399  0.00  0.00    +0.000 OA
ATOM     22  N   UNL     1       5.477   5.198  16.498  0.00  0.00    +0.000 N 
ATOM     23  O   UNL     1       6.166   4.174  16.297  0.00  0.00    +0.000 OA
ATOM     24  C   UNL     1       4.854   5.739  17.527  0.00  0.00    +0.000 A 
BRANCH  24  25
ATOM     25  S   UNL     1       4.718   4.951  18.996  0.00  0.00    +0.000 S 
ATOM     26  O   UNL     1       5.877   4.086  19.083  0.00  0.00    +0.000 OA
ATOM     27  O   UNL     1       4.506   6.011  19.955  0.00  0.00    +0.000 OA
BRANCH  25  28
ATOM     28  C   UNL     1       3.280   3.919  18.934  0.00  0.00    +0.000 A 
ATOM     29  C   UNL     1       2.182   4.222  19.749  0.00  0.00    +0.000 A 
ATOM     30  C   UNL     1       1.016   3.458  19.652  0.00  0.00    +0.000 A 
ATOM     31  C   UNL     1       0.947   2.398  18.747  0.00  0.00    +0.000 A 
ATOM     32  C   UNL     1       2.037   2.106  17.926  0.00  0.00    +0.000 A 
ATOM     33  C   UNL     1       3.204   2.875  18.006  0.00  0.00    +0.000 A 
ENDBRANCH  25  28
ENDBRANCH  24  25
ENDBRANCH  18  19
ENDBRANCH   1  18
TORSDOF 6
ENDMDL
MODEL 4
REMARK VINA RESULT:      -8.5      1.372      1.870
REMARK  Name = 
REMARK  10 active torsions:
REMARK  status: ('A' for Active; 'I' for Inactive)
REMARK    1  A    between atoms: C_1  and  C_2
REMARK    2  A    between atoms: C_3  and  C_4
REMARK    3  A    between atoms: C_7  and  C_8
REMARK    4  A    between atoms: C_9  and  O_10
REMARK    5  A    between atoms: C_13  and  C_14
REMARK    6  A    between atoms: C_13  and  C_15
REMARK    7  A    between atoms: C_15  and  O_16
REMARK    8  A    between atoms: O_16  and  C_17
REMARK    9  A    between atoms: C_22  and  S_23
REMARK   10  A    between atoms: S_23  and  C_26
REMARK                            x       y       z     vdW  Elec       q    Type
REMARK                         _______ _______ _______ _____ _____    ______ ____
ROOT
ATOM      1  C   UNL     1       2.167   7.738  18.187  0.00  0.00    +0.000 C 
ENDROOT
BRANCH   1  13
ATOM      2  C   UNL     1      -4.036  11.713  17.401  0.00  0.00    +0.000 C 
ATOM      3  C   UNL     1      -2.779  11.327  18.142  0.00  0.00    +0.000 A 
ATOM      4  C   UNL     1      -1.866  10.339  17.705  0.00  0.00    +0.000 A 
ATOM      5  C   UNL     1      -2.071   9.522  16.453  0.00  0.00    +0.000 C 
ATOM      6  C   UNL     1      -0.708  10.080  18.481  0.00  0.00    +0.000 A 
ATOM      7  C   UNL     1      -0.490  10.744  19.710  0.00  0.00    +0.000 A 
ATOM      8  C   UNL     1      -1.386  11.747  20.137  0.00  0.00    +0.000 A 
ATOM      9  C   UNL     1      -1.155  12.516  21.414  0.00  0.00    +0.000 C 
ATOM     10  C   UNL     1      -2.513  12.018  19.343  0.00  0.00    +0.000 A 
ATOM     11  C   UNL     1       0.705  10.400  20.552  0.00  0.00    +0.000 C 
ATOM     12  C   UNL     1       1.381   9.132  20.093  0.00  0.00    +0.000 C 
ATOM     13  C   UNL     1       1.492   9.090  18.568  0.00  0.00    +0.000 C 
ATOM     14  C   UNL     1       2.345  10.239  17.993  0.00  0.00    +0.000 C 
ATOM     15  O   UNL     1       0.176   9.144  17.975  0.00  0.00    +0.000 OA
BRANCH  10  16
ATOM     16  O   UNL     1      -3.426  12.981  19.709  0.00  0.00    +0.000 OA
ATOM     17  H   UNL     1      -4.150  12.578  20.212  0.00  0.00    +0.000 HD
ENDBRANCH  10  16
ENDBRANCH   1  13
BRANCH   1  18
ATOM     18  O   UNL     1       2.652   7.077  19.369  0.00  0.00    +0.000 OA
BRANCH  18  19
ATOM     19  C   UNL     1       2.372   5.761  19.470  0.00  0.00    +0.000 A 
ATOM     20  N   UNL     1       1.125   5.350  19.717  0.00  0.00    +0.000 NA
ATOM     21  O   UNL     1       1.196   3.956  19.750  0.00  0.00    +0.000 OA
ATOM     22  N   UNL     1       2.564   3.586  19.508  0.00  0.00    +0.000 N 
ATOM     23  O   UNL     1       2.790   2.360  19.421  0.00  0.00    +0.000 OA
ATOM     24  C   UNL     1       3.255   4.696  19.330  0.00  0.00    +0.000 A 
BRANCH  24  25
ATOM     25  S   UNL     1       4.903   4.679  19.041  0.00  0.00    +0.000 S 
ATOM     26  O   UNL     1       5.423   5.869  19.682  0.00  0.00    +0.000 OA
ATOM     27  O   UNL     1       5.328   3.363  19.458  0.00  0.00    +0.000 OA
BRANCH  25  28
ATOM     28  C   UNL     1       5.155   4.852  17.297  0.00  0.00    +0.000 A 
ATOM     29  C   UNL     1       5.053   6.119  16.710  0.00  0.00    +0.000 A 
ATOM     30  C   UNL     1       5.324   6.276  15.349  0.00  0.00    +0.000 A 
ATOM     31  C   UNL     1       5.695   5.174  14.577  0.00  0.00    +0.000 A 
ATOM     32  C   UNL     1       5.809   3.914  15.165  0.00  0.00    +0.000 A 
ATOM     33  C   UNL     1       5.553   3.750  16.531  0.00  0.00    +0.000 A 
ENDBRANCH  25  28
ENDBRANCH  24  25
ENDBRANCH  18  19
ENDBRANCH   1  18
TORSDOF 6
ENDMDL
MODEL 5
REMARK VINA RESULT:      -8.3      2.291      3.502
REMARK  Name = 
REMARK  10 active torsions:
REMARK  status: ('A' for Active; 'I' for Inactive)
REMARK    1  A    between atoms: C_1  and  C_2
REMARK    2  A    between atoms: C_3  and  C_4
REMARK    3  A    between atoms: C_7  and  C_8
REMARK    4  A    between atoms: C_9  and  O_10
REMARK    5  A    between atoms: C_13  and  C_14
REMARK    6  A    between atoms: C_13  and  C_15
REMARK    7  A    between atoms: C_15  and  O_16
REMARK    8  A    between atoms: O_16  and  C_17
REMARK    9  A    between atoms: C_22  and  S_23
REMARK   10  A    between atoms: S_23  and  C_26
REMARK                            x       y       z     vdW  Elec       q    Type
REMARK                         _______ _______ _______ _____ _____    ______ ____
ROOT
ATOM      1  C   UNL     1       2.007   8.162  17.452  0.00  0.00    +0.000 C 
ENDROOT
BRANCH   1  13
ATOM      2  C   UNL     1      -4.079  12.232  18.587  0.00  0.00    +0.000 C 
ATOM      3  C   UNL     1      -2.770  11.629  19.035  0.00  0.00    +0.000 A 
ATOM      4  C   UNL     1      -1.947  10.814  18.223  0.00  0.00    +0.000 A 
ATOM      5  C   UNL     1      -2.312  10.419  16.812  0.00  0.00    +0.000 C 
ATOM      6  C   UNL     1      -0.727  10.323  18.753  0.00  0.00    +0.000 A 
ATOM      7  C   UNL     1      -0.358  10.579  20.093  0.00  0.00    +0.000 A 
ATOM      8  C   UNL     1      -1.165  11.411  20.898  0.00  0.00    +0.000 A 
ATOM      9  C   UNL     1      -0.775  11.754  22.314  0.00  0.00    +0.000 C 
ATOM     10  C   UNL     1      -2.355  11.920  20.352  0.00  0.00    +0.000 A 
ATOM     11  C   UNL     1       0.901   9.987  20.655  0.00  0.00    +0.000 C 
ATOM     12  C   UNL     1       1.476   8.915  19.764  0.00  0.00    +0.000 C 
ATOM     13  C   UNL     1       1.429   9.338  18.294  0.00  0.00    +0.000 C 
ATOM     14  C   UNL     1       2.264  10.601  18.004  0.00  0.00    +0.000 C 
ATOM     15  O   UNL     1       0.062   9.579  17.894  0.00  0.00    +0.000 OA
BRANCH  10  16
ATOM     16  O   UNL     1      -3.187  12.732  21.089  0.00  0.00    +0.000 OA
ATOM     17  H   UNL     1      -3.274  13.597  20.658  0.00  0.00    +0.000 HD
ENDBRANCH  10  16
ENDBRANCH   1  13
BRANCH   1  18
ATOM     18  O   UNL     1       2.698   7.235  18.306  0.00  0.00    +0.000 OA
BRANCH  18  19
ATOM     19  C   UNL     1       3.637   6.467  17.713  0.00  0.00    +0.000 A 
ATOM     20  N   UNL     1       4.822   6.984  17.378  0.00  0.00    +0.000 NA
ATOM     21  O   UNL     1       5.534   5.930  16.803  0.00  0.00    +0.000 OA
ATOM     22  N   UNL     1       4.685   4.770  16.825  0.00  0.00    +0.000 N 
ATOM     23  O   UNL     1       5.202   3.707  16.419  0.00  0.00    +0.000 OA
ATOM     24  C   UNL     1       3.545   5.117  17.392  0.00  0.00    +0.000 A 
BRANCH  24  25
ATOM     25  S   UNL     1       2.283   4.036  17.581  0.00  0.00    +0.000 S 
ATOM     26  O   UNL     1       1.075   4.804  17.358  0.00  0.00    +0.000 OA
ATOM     27  O   UNL     1       2.627   2.925  16.725  0.00  0.00    +0.000 OA
BRANCH  25  28
ATOM     28  C   UNL     1       2.273   3.495  19.268  0.00  0.00    +0.000 A 
ATOM     29  C   UNL     1       1.093   3.594  20.015  0.00  0.00    +0.000 A 
ATOM     30  C   UNL     1       1.057   3.101  21.322  0.00  0.00    +0.000 A 
ATOM     31  C   UNL     1       2.193   2.513  21.880  0.00  0.00    +0.000 A 
ATOM     32  C   UNL     1       3.365   2.404  21.130  0.00  0.00    +0.000 A 
ATOM     33  C   UNL     1       3.406   2.882  19.816  0.00  0.00    +0.000 A 
ENDBRANCH  25  28
ENDBRANCH  24  25
ENDBRANCH  18  19
ENDBRANCH   1  18
TORSDOF 6
ENDMDL
MODEL 6
REMARK VINA RESULT:      -8.3      1.784      2.448
REMARK  Name = 
REMARK  10 active torsions:
REMARK  status: ('A' for Active; 'I' for Inactive)
REMARK    1  A    between atoms: C_1  and  C_2
REMARK    2  A    between atoms: C_3  and  C_4
REMARK    3  A    between atoms: C_7  and  C_8
REMARK    4  A    between atoms: C_9  and  O_10
REMARK    5  A    between atoms: C_13  and  C_14
REMARK    6  A    between atoms: C_13  and  C_15
REMARK    7  A    between atoms: C_15  and  O_16
REMARK    8  A    between atoms: O_16  and  C_17
REMARK    9  A    between atoms: C_22  and  S_23
REMARK   10  A    between atoms: S_23  and  C_26
REMARK                            x       y       z     vdW  Elec       q    Type
REMARK                         _______ _______ _______ _____ _____    ______ ____
ROOT
ATOM      1  C   UNL     1       2.254   7.656  17.991  0.00  0.00    +0.000 C 
ENDROOT
BRANCH   1  13
ATOM      2  C   UNL     1      -1.324  11.505  23.214  0.00  0.00    +0.000 C 
ATOM      3  C   UNL     1      -0.519  11.405  21.941  0.00  0.00    +0.000 A 
ATOM      4  C   UNL     1      -0.064  10.190  21.378  0.00  0.00    +0.000 A 
ATOM      5  C   UNL     1      -0.302   8.844  22.017  0.00  0.00    +0.000 C 
ATOM      6  C   UNL     1       0.667  10.225  20.164  0.00  0.00    +0.000 A 
ATOM      7  C   UNL     1       1.003  11.453  19.550  0.00  0.00    +0.000 A 
ATOM      8  C   UNL     1       0.531  12.666  20.097  0.00  0.00    +0.000 A 
ATOM      9  C   UNL     1       0.821  13.992  19.438  0.00  0.00    +0.000 C 
ATOM     10  C   UNL     1      -0.221  12.617  21.281  0.00  0.00    +0.000 A 
ATOM     11  C   UNL     1       1.843  11.470  18.305  0.00  0.00    +0.000 C 
ATOM     12  C   UNL     1       2.486  10.134  18.032  0.00  0.00    +0.000 C 
ATOM     13  C   UNL     1       1.496   8.990  18.262  0.00  0.00    +0.000 C 
ATOM     14  C   UNL     1       0.273   9.054  17.325  0.00  0.00    +0.000 C 
ATOM     15  O   UNL     1       1.037   9.003  19.631  0.00  0.00    +0.000 OA
BRANCH  10  16
ATOM     16  O   UNL     1      -0.705  13.765  21.866  0.00  0.00    +0.000 OA
ATOM     17  H   UNL     1      -0.249  13.927  22.707  0.00  0.00    +0.000 HD
ENDBRANCH  10  16
ENDBRANCH   1  13
BRANCH   1  18
ATOM     18  O   UNL     1       2.982   7.254  19.165  0.00  0.00    +0.000 OA
BRANCH  18  19
ATOM     19  C   UNL     1       2.629   6.069  19.705  0.00  0.00    +0.000 A 
ATOM     20  N   UNL     1       1.766   6.019  20.724  0.00  0.00    +0.000 NA
ATOM     21  O   UNL     1       1.627   4.662  21.022  0.00  0.00    +0.000 OA
ATOM     22  N   UNL     1       2.465   3.930  20.112  0.00  0.00    +0.000 N 
ATOM     23  O   UNL     1       2.396   2.684  20.189  0.00  0.00    +0.000 OA
ATOM     24  C   UNL     1       3.053   4.803  19.317  0.00  0.00    +0.000 A 
BRANCH  24  25
ATOM     25  S   UNL     1       4.131   4.334  18.127  0.00  0.00    +0.000 S 
ATOM     26  O   UNL     1       4.550   2.995  18.487  0.00  0.00    +0.000 OA
ATOM     27  O   UNL     1       3.433   4.588  16.888  0.00  0.00    +0.000 OA
BRANCH  25  28
ATOM     28  C   UNL     1       5.551   5.388  18.227  0.00  0.00    +0.000 A 
ATOM     29  C   UNL     1       6.529   5.132  19.195  0.00  0.00    +0.000 A 
ATOM     30  C   UNL     1       7.688   5.913  19.233  0.00  0.00    +0.000 A 
ATOM     31  C   UNL     1       7.868   6.943  18.309  0.00  0.00    +0.000 A 
ATOM     32  C   UNL     1       6.898   7.188  17.336  0.00  0.00    +0.000 A 
ATOM     33  C   UNL     1       5.741   6.403  17.282  0.00  0.00    +0.000 A 
ENDBRANCH  25  28
ENDBRANCH  24  25
ENDBRANCH  18  19
ENDBRANCH   1  18
TORSDOF 6
ENDMDL
MODEL 7
REMARK VINA RESULT:      -8.3      2.051      2.700
REMARK  Name = 
REMARK  10 active torsions:
REMARK  status: ('A' for Active; 'I' for Inactive)
REMARK    1  A    between atoms: C_1  and  C_2
REMARK    2  A    between atoms: C_3  and  C_4
REMARK    3  A    between atoms: C_7  and  C_8
REMARK    4  A    between atoms: C_9  and  O_10
REMARK    5  A    between atoms: C_13  and  C_14
REMARK    6  A    between atoms: C_13  and  C_15
REMARK    7  A    between atoms: C_15  and  O_16
REMARK    8  A    between atoms: O_16  and  C_17
REMARK    9  A    between atoms: C_22  and  S_23
REMARK   10  A    between atoms: S_23  and  C_26
REMARK                            x       y       z     vdW  Elec       q    Type
REMARK                         _______ _______ _______ _____ _____    ______ ____
ROOT
ATOM      1  C   UNL     1       2.825   7.622  18.382  0.00  0.00    +0.000 C 
ENDROOT
BRANCH   1  13
ATOM      2  C   UNL     1      -1.540  11.425  23.005  0.00  0.00    +0.000 C 
ATOM      3  C   UNL     1      -0.697  11.300  21.760  0.00  0.00    +0.000 A 
ATOM      4  C   UNL     1      -0.011  10.125  21.374  0.00  0.00    +0.000 A 
ATOM      5  C   UNL     1      -0.014   8.860  22.198  0.00  0.00    +0.000 C 
ATOM      6  C   UNL     1       0.734  10.127  20.168  0.00  0.00    +0.000 A 
ATOM      7  C   UNL     1       0.855  11.299  19.387  0.00  0.00    +0.000 A 
ATOM      8  C   UNL     1       0.153  12.467  19.757  0.00  0.00    +0.000 A 
ATOM      9  C   UNL     1       0.212  13.719  18.917  0.00  0.00    +0.000 C 
ATOM     10  C   UNL     1      -0.609  12.443  20.936  0.00  0.00    +0.000 A 
ATOM     11  C   UNL     1       1.711  11.299  18.154  0.00  0.00    +0.000 C 
ATOM     12  C   UNL     1       2.596  10.081  18.073  0.00  0.00    +0.000 C 
ATOM     13  C   UNL     1       1.828   8.816  18.461  0.00  0.00    +0.000 C 
ATOM     14  C   UNL     1       0.640   8.521  17.523  0.00  0.00    +0.000 C 
ATOM     15  O   UNL     1       1.337   8.933  19.814  0.00  0.00    +0.000 OA
BRANCH  10  16
ATOM     16  O   UNL     1      -1.312  13.551  21.352  0.00  0.00    +0.000 OA
ATOM     17  H   UNL     1      -0.861  14.359  21.061  0.00  0.00    +0.000 HD
ENDBRANCH  10  16
ENDBRANCH   1  13
BRANCH   1  18
ATOM     18  O   UNL     1       2.105   6.383  18.272  0.00  0.00    +0.000 OA
BRANCH  18  19
ATOM     19  C   UNL     1       2.264   5.510  19.289  0.00  0.00    +0.000 A 
ATOM     20  N   UNL     1       1.965   5.867  20.541  0.00  0.00    +0.000 NA
ATOM     21  O   UNL     1       2.239   4.742  21.321  0.00  0.00    +0.000 OA
ATOM     22  N   UNL     1       2.718   3.711  20.440  0.00  0.00    +0.000 N 
ATOM     23  O   UNL     1       2.935   2.600  20.970  0.00  0.00    +0.000 OA
ATOM     24  C   UNL     1       2.714   4.197  19.214  0.00  0.00    +0.000 A 
BRANCH  24  25
ATOM     25  S   UNL     1       3.228   3.296  17.901  0.00  0.00    +0.000 S 
ATOM     26  O   UNL     1       3.519   1.976  18.424  0.00  0.00    +0.000 OA
ATOM     27  O   UNL     1       2.202   3.492  16.904  0.00  0.00    +0.000 OA
BRANCH  25  28
ATOM     28  C   UNL     1       4.750   3.993  17.322  0.00  0.00    +0.000 A 
ATOM     29  C   UNL     1       5.723   4.385  18.248  0.00  0.00    +0.000 A 
ATOM     30  C   UNL     1       6.955   4.866  17.798  0.00  0.00    +0.000 A 
ATOM     31  C   UNL     1       7.214   4.955  16.430  0.00  0.00    +0.000 A 
ATOM     32  C   UNL     1       6.249   4.551  15.507  0.00  0.00    +0.000 A 
ATOM     33  C   UNL     1       5.017   4.055  15.949  0.00  0.00    +0.000 A 
ENDBRANCH  25  28
ENDBRANCH  24  25
ENDBRANCH  18  19
ENDBRANCH   1  18
TORSDOF 6
ENDMDL
MODEL 8
REMARK VINA RESULT:      -8.2      1.658      2.156
REMARK  Name = 
REMARK  10 active torsions:
REMARK  status: ('A' for Active; 'I' for Inactive)
REMARK    1  A    between atoms: C_1  and  C_2
REMARK    2  A    between atoms: C_3  and  C_4
REMARK    3  A    between atoms: C_7  and  C_8
REMARK    4  A    between atoms: C_9  and  O_10
REMARK    5  A    between atoms: C_13  and  C_14
REMARK    6  A    between atoms: C_13  and  C_15
REMARK    7  A    between atoms: C_15  and  O_16
REMARK    8  A    between atoms: O_16  and  C_17
REMARK    9  A    between atoms: C_22  and  S_23
REMARK   10  A    between atoms: S_23  and  C_26
REMARK                            x       y       z     vdW  Elec       q    Type
REMARK                         _______ _______ _______ _____ _____    ______ ____
ROOT
ATOM      1  C   UNL     1       2.077   7.927  17.902  0.00  0.00    +0.000 C 
ENDROOT
BRANCH   1  13
ATOM      2  C   UNL     1      -4.231  11.764  17.291  0.00  0.00    +0.000 C 
ATOM      3  C   UNL     1      -2.972  11.365  18.023  0.00  0.00    +0.000 A 
ATOM      4  C   UNL     1      -2.025  10.436  17.535  0.00  0.00    +0.000 A 
ATOM      5  C   UNL     1      -2.190   9.699  16.228  0.00  0.00    +0.000 C 
ATOM      6  C   UNL     1      -0.870  10.159  18.309  0.00  0.00    +0.000 A 
ATOM      7  C   UNL     1      -0.687  10.745  19.582  0.00  0.00    +0.000 A 
ATOM      8  C   UNL     1      -1.619  11.691  20.062  0.00  0.00    +0.000 A 
ATOM      9  C   UNL     1      -1.428  12.379  21.391  0.00  0.00    +0.000 C 
ATOM     10  C   UNL     1      -2.742  11.982  19.272  0.00  0.00    +0.000 A 
ATOM     11  C   UNL     1       0.506  10.380  20.417  0.00  0.00    +0.000 C 
ATOM     12  C   UNL     1       1.226   9.166  19.884  0.00  0.00    +0.000 C 
ATOM     13  C   UNL     1       1.358   9.230  18.361  0.00  0.00    +0.000 C 
ATOM     14  C   UNL     1       2.184  10.439  17.877  0.00  0.00    +0.000 C 
ATOM     15  O   UNL     1       0.048   9.285  17.754  0.00  0.00    +0.000 OA
BRANCH  10  16
ATOM     16  O   UNL     1      -3.689  12.891  19.687  0.00  0.00    +0.000 OA
ATOM     17  H   UNL     1      -4.071  13.346  18.921  0.00  0.00    +0.000 HD
ENDBRANCH  10  16
ENDBRANCH   1  13
BRANCH   1  18
ATOM     18  O   UNL     1       2.896   7.411  18.966  0.00  0.00    +0.000 OA
BRANCH  18  19
ATOM     19  C   UNL     1       2.989   6.067  19.046  0.00  0.00    +0.000 A 
ATOM     20  N   UNL     1       1.936   5.337  19.423  0.00  0.00    +0.000 NA
ATOM     21  O   UNL     1       2.376   4.012  19.391  0.00  0.00    +0.000 OA
ATOM     22  N   UNL     1       3.752   4.023  18.972  0.00  0.00    +0.000 N 
ATOM     23  O   UNL     1       4.281   2.902  18.809  0.00  0.00    +0.000 OA
ATOM     24  C   UNL     1       4.097   5.279  18.758  0.00  0.00    +0.000 A 
BRANCH  24  25
ATOM     25  S   UNL     1       5.641   5.704  18.275  0.00  0.00    +0.000 S 
ATOM     26  O   UNL     1       5.639   7.151  18.195  0.00  0.00    +0.000 OA
ATOM     27  O   UNL     1       6.511   5.011  19.196  0.00  0.00    +0.000 OA
BRANCH  25  28
ATOM     28  C   UNL     1       5.896   5.074  16.639  0.00  0.00    +0.000 A 
ATOM     29  C   UNL     1       4.817   4.520  15.941  0.00  0.00    +0.000 A 
ATOM     30  C   UNL     1       4.993   4.089  14.623  0.00  0.00    +0.000 A 
ATOM     31  C   UNL     1       6.239   4.211  14.007  0.00  0.00    +0.000 A 
ATOM     32  C   UNL     1       7.310   4.777  14.700  0.00  0.00    +0.000 A 
ATOM     33  C   UNL     1       7.140   5.224  16.015  0.00  0.00    +0.000 A 
ENDBRANCH  25  28
ENDBRANCH  24  25
ENDBRANCH  18  19
ENDBRANCH   1  18
TORSDOF 6
ENDMDL
MODEL 9
REMARK VINA RESULT:      -8.2      2.510      4.200
REMARK  Name = 
REMARK  10 active torsions:
REMARK  status: ('A' for Active; 'I' for Inactive)
REMARK    1  A    between atoms: C_1  and  C_2
REMARK    2  A    between atoms: C_3  and  C_4
REMARK    3  A    between atoms: C_7  and  C_8
REMARK    4  A    between atoms: C_9  and  O_10
REMARK    5  A    between atoms: C_13  and  C_14
REMARK    6  A    between atoms: C_13  and  C_15
REMARK    7  A    between atoms: C_15  and  O_16
REMARK    8  A    between atoms: O_16  and  C_17
REMARK    9  A    between atoms: C_22  and  S_23
REMARK   10  A    between atoms: S_23  and  C_26
REMARK                            x       y       z     vdW  Elec       q    Type
REMARK                         _______ _______ _______ _____ _____    ______ ____
ROOT
ATOM      1  C   UNL     1       2.350   8.554  17.539  0.00  0.00    +0.000 C 
ENDROOT
BRANCH   1  13
ATOM      2  C   UNL     1       0.891  15.503  19.656  0.00  0.00    +0.000 C 
ATOM      3  C   UNL     1       0.480  14.083  19.349  0.00  0.00    +0.000 A 
ATOM      4  C   UNL     1       1.368  13.070  18.917  0.00  0.00    +0.000 A 
ATOM      5  C   UNL     1       2.837  13.311  18.672  0.00  0.00    +0.000 C 
ATOM      6  C   UNL     1       0.863  11.767  18.681  0.00  0.00    +0.000 A 
ATOM      7  C   UNL     1      -0.516  11.485  18.806  0.00  0.00    +0.000 A 
ATOM      8  C   UNL     1      -1.401  12.486  19.260  0.00  0.00    +0.000 A 
ATOM      9  C   UNL     1      -2.870  12.206  19.461  0.00  0.00    +0.000 C 
ATOM     10  C   UNL     1      -0.884  13.765  19.523  0.00  0.00    +0.000 A 
ATOM     11  C   UNL     1      -1.040  10.116  18.478  0.00  0.00    +0.000 C 
ATOM     12  C   UNL     1      -0.022   9.275  17.748  0.00  0.00    +0.000 C 
ATOM     13  C   UNL     1       1.365   9.425  18.374  0.00  0.00    +0.000 C 
ATOM     14  C   UNL     1       1.420   8.950  19.841  0.00  0.00    +0.000 C 
ATOM     15  O   UNL     1       1.788  10.805  18.314  0.00  0.00    +0.000 OA
BRANCH  10  16
ATOM     16  O   UNL     1      -1.697  14.785  19.963  0.00  0.00    +0.000 OA
ATOM     17  H   UNL     1      -1.585  15.566  19.400  0.00  0.00    +0.000 HD
ENDBRANCH  10  16
ENDBRANCH   1  13
BRANCH   1  18
ATOM     18  O   UNL     1       2.563   7.288  18.187  0.00  0.00    +0.000 OA
BRANCH  18  19
ATOM     19  C   UNL     1       3.552   6.521  17.682  0.00  0.00    +0.000 A 
ATOM     20  N   UNL     1       4.742   7.054  17.391  0.00  0.00    +0.000 NA
ATOM     21  O   UNL     1       5.511   5.996  16.905  0.00  0.00    +0.000 OA
ATOM     22  N   UNL     1       4.690   4.816  16.931  0.00  0.00    +0.000 N 
ATOM     23  O   UNL     1       5.256   3.751  16.602  0.00  0.00    +0.000 OA
ATOM     24  C   UNL     1       3.512   5.157  17.417  0.00  0.00    +0.000 A 
BRANCH  24  25
ATOM     25  S   UNL     1       2.267   4.051  17.584  0.00  0.00    +0.000 S 
ATOM     26  O   UNL     1       1.048   4.800  17.357  0.00  0.00    +0.000 OA
ATOM     27  O   UNL     1       2.641   2.955  16.721  0.00  0.00    +0.000 OA
BRANCH  25  28
ATOM     28  C   UNL     1       2.252   3.495  19.266  0.00  0.00    +0.000 A 
ATOM     29  C   UNL     1       1.056   3.535  19.992  0.00  0.00    +0.000 A 
ATOM     30  C   UNL     1       1.018   3.028  21.293  0.00  0.00    +0.000 A 
ATOM     31  C   UNL     1       2.168   2.485  21.867  0.00  0.00    +0.000 A 
ATOM     32  C   UNL     1       3.356   2.434  21.138  0.00  0.00    +0.000 A 
ATOM     33  C   UNL     1       3.401   2.926  19.829  0.00  0.00    +0.000 A 
ENDBRANCH  25  28
ENDBRANCH  24  25
ENDBRANCH  18  19
ENDBRANCH   1  18
TORSDOF 6
ENDMDL
