MODEL 1
REMARK VINA RESULT:      -6.9      0.000      0.000
REMARK  Name = 
REMARK  9 active torsions:
REMARK  status: ('A' for Active; 'I' for Inactive)
REMARK    1  A    between atoms: C_1  and  O_2
REMARK    2  A    between atoms: O_2  and  C_3
REMARK    3  A    between atoms: C_3  and  C_5
REMARK    4  A    between atoms: C_5  and  C_6
REMARK    5  A    between atoms: C_6  and  C_7
REMARK    6  A    between atoms: N_9  and  C_10
REMARK    7  A    between atoms: C_16  and  C_17
REMARK    8  A    between atoms: C_21  and  C_22
REMARK    9  A    between atoms: C_24  and  C_25
REMARK                            x       y       z     vdW  Elec       q    Type
REMARK                         _______ _______ _______ _____ _____    ______ ____
ROOT
ATOM      1  C   UNL     1       6.347   4.868  16.926  0.00  0.00    +0.000 A 
ATOM      2  C   UNL     1       7.326   4.330  16.074  0.00  0.00    +0.000 A 
ATOM      3  C   UNL     1       7.044   3.987  14.753  0.00  0.00    +0.000 A 
ATOM      4  C   UNL     1       5.780   4.233  14.251  0.00  0.00    +0.000 A 
ATOM      5 BR   UNL     1       5.367   3.766  12.470  0.00  0.00    +0.000 Br
ATOM      6  C   UNL     1       4.836   4.882  15.038  0.00  0.00    +0.000 A 
ATOM      7  C   UNL     1       5.145   5.313  16.342  0.00  0.00    +0.000 A 
ENDROOT
BRANCH   7   8
ATOM      8  C   UNL     1       4.142   6.193  17.035  0.00  0.00    +0.000 C 
ATOM      9  O   UNL     1       4.223   7.405  16.874  0.00  0.00    +0.000 OA
ATOM     10  N   UNL     1       3.163   5.577  17.838  0.00  0.00    +0.000 N 
ATOM     11  C   UNL     1       2.341   6.356  18.770  0.00  0.00    +0.000 C 
ATOM     12  C   UNL     1       2.260   5.667  20.157  0.00  0.00    +0.000 C 
ATOM     13  C   UNL     1       1.217   6.338  21.054  0.00  0.00    +0.000 C 
ATOM     14  C   UNL     1       1.962   4.152  20.063  0.00  0.00    +0.000 C 
ATOM     15  C   UNL     1       2.865   3.470  19.028  0.00  0.00    +0.000 C 
ATOM     16  C   UNL     1       2.577   1.982  18.881  0.00  0.00    +0.000 C 
ATOM     17  C   UNL     1       2.716   4.193  17.687  0.00  0.00    +0.000 C 
ENDBRANCH   7   8
BRANCH   1  20
ATOM     18  C   UNL     1       7.386   5.774  19.039  0.00  0.00    +0.000 C 
ATOM     19  O   UNL     1       7.474   5.658  20.263  0.00  0.00    +0.000 OA
ATOM     20  N   UNL     1       6.568   4.913  18.325  0.00  0.00    +0.000 N 
ATOM     21  H   UNL     1       6.349   4.065  18.850  0.00  0.00    +0.000 HD
BRANCH  18  22
ATOM     22  C   UNL     1       8.188   6.849  18.304  0.00  0.00    +0.000 C 
BRANCH  22  23
ATOM     23  C   UNL     1       7.392   8.069  17.883  0.00  0.00    +0.000 C 
BRANCH  23  24
ATOM     24  C   UNL     1       8.213   9.322  18.039  0.00  0.00    +0.000 C 
ATOM     25  O   UNL     1       8.081  10.341  17.374  0.00  0.00    +0.000 OA
BRANCH  24  27
ATOM     26  C   UNL     1       9.415  10.389  19.727  0.00  0.00    +0.000 C 
ATOM     27  O   UNL     1       9.077   9.164  19.083  0.00  0.00    +0.000 OA
ENDBRANCH  24  27
ENDBRANCH  23  24
ENDBRANCH  22  23
ENDBRANCH  18  22
ENDBRANCH   1  20
TORSDOF 6
ENDMDL
MODEL 2
REMARK VINA RESULT:      -6.1      3.564      7.142
REMARK  Name = 
REMARK  9 active torsions:
REMARK  status: ('A' for Active; 'I' for Inactive)
REMARK    1  A    between atoms: C_1  and  O_2
REMARK    2  A    between atoms: O_2  and  C_3
REMARK    3  A    between atoms: C_3  and  C_5
REMARK    4  A    between atoms: C_5  and  C_6
REMARK    5  A    between atoms: C_6  and  C_7
REMARK    6  A    between atoms: N_9  and  C_10
REMARK    7  A    between atoms: C_16  and  C_17
REMARK    8  A    between atoms: C_21  and  C_22
REMARK    9  A    between atoms: C_24  and  C_25
REMARK                            x       y       z     vdW  Elec       q    Type
REMARK                         _______ _______ _______ _____ _____    ______ ____
ROOT
ATOM      1  C   UNL     1       2.371   6.691  20.051  0.00  0.00    +0.000 A 
ATOM      2  C   UNL     1       1.687   7.630  20.840  0.00  0.00    +0.000 A 
ATOM      3  C   UNL     1       1.337   8.887  20.351  0.00  0.00    +0.000 A 
ATOM      4  C   UNL     1       1.626   9.199  19.036  0.00  0.00    +0.000 A 
ATOM      5 BR   UNL     1       1.177  10.900  18.352  0.00  0.00    +0.000 Br
ATOM      6  C   UNL     1       2.187   8.240  18.202  0.00  0.00    +0.000 A 
ATOM      7  C   UNL     1       2.457   6.939  18.667  0.00  0.00    +0.000 A 
ENDROOT
BRANCH   7   8
ATOM      8  C   UNL     1       2.858   5.909  17.647  0.00  0.00    +0.000 C 
ATOM      9  O   UNL     1       2.063   5.016  17.378  0.00  0.00    +0.000 OA
ATOM     10  N   UNL     1       4.130   6.023  17.053  0.00  0.00    +0.000 N 
ATOM     11  C   UNL     1       4.713   4.922  16.281  0.00  0.00    +0.000 C 
ATOM     12  C   UNL     1       6.192   4.679  16.678  0.00  0.00    +0.000 C 
ATOM     13  C   UNL     1       6.876   3.703  15.718  0.00  0.00    +0.000 C 
ATOM     14  C   UNL     1       7.018   5.984  16.764  0.00  0.00    +0.000 C 
ATOM     15  C   UNL     1       6.276   7.060  17.567  0.00  0.00    +0.000 C 
ATOM     16  C   UNL     1       7.043   8.374  17.643  0.00  0.00    +0.000 C 
ATOM     17  C   UNL     1       4.890   7.270  16.953  0.00  0.00    +0.000 C 
ENDBRANCH   7   8
BRANCH   1  20
ATOM     18  C   UNL     1       2.429   4.318  20.906  0.00  0.00    +0.000 C 
ATOM     19  O   UNL     1       3.107   3.451  21.463  0.00  0.00    +0.000 OA
ATOM     20  N   UNL     1       2.983   5.564  20.655  0.00  0.00    +0.000 N 
ATOM     21  H   UNL     1       3.806   5.744  21.231  0.00  0.00    +0.000 HD
BRANCH  18  22
ATOM     22  C   UNL     1       0.980   4.033  20.510  0.00  0.00    +0.000 C 
BRANCH  22  23
ATOM     23  C   UNL     1       0.645   2.568  20.311  0.00  0.00    +0.000 C 
BRANCH  23  24
ATOM     24  C   UNL     1       1.087   2.098  18.950  0.00  0.00    +0.000 C 
ATOM     25  O   UNL     1       0.498   2.320  17.900  0.00  0.00    +0.000 OA
BRANCH  24  27
ATOM     26  C   UNL     1       3.260   1.893  18.133  0.00  0.00    +0.000 C 
ATOM     27  O   UNL     1       2.280   1.448  19.067  0.00  0.00    +0.000 OA
ENDBRANCH  24  27
ENDBRANCH  23  24
ENDBRANCH  22  23
ENDBRANCH  18  22
ENDBRANCH   1  20
TORSDOF 6
ENDMDL
MODEL 3
REMARK VINA RESULT:      -6.1      1.604      2.284
REMARK  Name = 
REMARK  9 active torsions:
REMARK  status: ('A' for Active; 'I' for Inactive)
REMARK    1  A    between atoms: C_1  and  O_2
REMARK    2  A    between atoms: O_2  and  C_3
REMARK    3  A    between atoms: C_3  and  C_5
REMARK    4  A    between atoms: C_5  and  C_6
REMARK    5  A    between atoms: C_6  and  C_7
REMARK    6  A    between atoms: N_9  and  C_10
REMARK    7  A    between atoms: C_16  and  C_17
REMARK    8  A    between atoms: C_21  and  C_22
REMARK    9  A    between atoms: C_24  and  C_25
REMARK                            x       y       z     vdW  Elec       q    Type
REMARK                         _______ _______ _______ _____ _____    ______ ____
ROOT
ATOM      1  C   UNL     1       6.744   4.307  16.580  0.00  0.00    +0.000 A 
ATOM      2  C   UNL     1       7.279   5.015  15.492  0.00  0.00    +0.000 A 
ATOM      3  C   UNL     1       6.804   4.840  14.194  0.00  0.00    +0.000 A 
ATOM      4  C   UNL     1       5.742   3.982  13.979  0.00  0.00    +0.000 A 
ATOM      5 BR   UNL     1       5.087   3.715  12.230  0.00  0.00    +0.000 Br
ATOM      6  C   UNL     1       5.115   3.370  15.058  0.00  0.00    +0.000 A 
ATOM      7  C   UNL     1       5.533   3.616  16.379  0.00  0.00    +0.000 A 
ENDROOT
BRANCH   7   8
ATOM      8  C   UNL     1       4.668   3.087  17.489  0.00  0.00    +0.000 C 
ATOM      9  O   UNL     1       4.646   1.876  17.682  0.00  0.00    +0.000 OA
ATOM     10  N   UNL     1       3.922   4.010  18.248  0.00  0.00    +0.000 N 
ATOM     11  C   UNL     1       2.846   3.570  19.140  0.00  0.00    +0.000 C 
ATOM     12  C   UNL     1       1.578   4.445  18.962  0.00  0.00    +0.000 C 
ATOM     13  C   UNL     1       0.541   4.154  20.050  0.00  0.00    +0.000 C 
ATOM     14  C   UNL     1       1.887   5.960  18.936  0.00  0.00    +0.000 C 
ATOM     15  C   UNL     1       3.054   6.274  17.992  0.00  0.00    +0.000 C 
ATOM     16  C   UNL     1       3.413   7.754  17.966  0.00  0.00    +0.000 C 
ATOM     17  C   UNL     1       4.262   5.425  18.398  0.00  0.00    +0.000 C 
ENDBRANCH   7   8
BRANCH   1  20
ATOM     18  C   UNL     1       7.909   5.330  18.571  0.00  0.00    +0.000 C 
ATOM     19  O   UNL     1       8.515   5.110  19.622  0.00  0.00    +0.000 OA
ATOM     20  N   UNL     1       7.439   4.268  17.815  0.00  0.00    +0.000 N 
ATOM     21  H   UNL     1       7.908   3.391  18.048  0.00  0.00    +0.000 HD
BRANCH  18  22
ATOM     22  C   UNL     1       7.689   6.764  18.089  0.00  0.00    +0.000 C 
BRANCH  22  23
ATOM     23  C   UNL     1       8.529   7.814  18.791  0.00  0.00    +0.000 C 
BRANCH  23  24
ATOM     24  C   UNL     1       8.267   9.181  18.216  0.00  0.00    +0.000 C 
ATOM     25  O   UNL     1       7.408   9.446  17.385  0.00  0.00    +0.000 OA
BRANCH  24  27
ATOM     26  C   UNL     1       9.222  11.304  18.093  0.00  0.00    +0.000 C 
ATOM     27  O   UNL     1       9.092  10.085  18.818  0.00  0.00    +0.000 OA
ENDBRANCH  24  27
ENDBRANCH  23  24
ENDBRANCH  22  23
ENDBRANCH  18  22
ENDBRANCH   1  20
TORSDOF 6
ENDMDL
MODEL 4
REMARK VINA RESULT:      -6.1      3.430      5.559
REMARK  Name = 
REMARK  9 active torsions:
REMARK  status: ('A' for Active; 'I' for Inactive)
REMARK    1  A    between atoms: C_1  and  O_2
REMARK    2  A    between atoms: O_2  and  C_3
REMARK    3  A    between atoms: C_3  and  C_5
REMARK    4  A    between atoms: C_5  and  C_6
REMARK    5  A    between atoms: C_6  and  C_7
REMARK    6  A    between atoms: N_9  and  C_10
REMARK    7  A    between atoms: C_16  and  C_17
REMARK    8  A    between atoms: C_21  and  C_22
REMARK    9  A    between atoms: C_24  and  C_25
REMARK                            x       y       z     vdW  Elec       q    Type
REMARK                         _______ _______ _______ _____ _____    ______ ____
ROOT
ATOM      1  C   UNL     1       4.519   5.987  18.662  0.00  0.00    +0.000 A 
ATOM      2  C   UNL     1       4.755   4.674  19.102  0.00  0.00    +0.000 A 
ATOM      3  C   UNL     1       3.783   3.937  19.775  0.00  0.00    +0.000 A 
ATOM      4  C   UNL     1       2.533   4.494  19.969  0.00  0.00    +0.000 A 
ATOM      5 BR   UNL     1       1.202   3.523  20.889  0.00  0.00    +0.000 Br
ATOM      6  C   UNL     1       2.238   5.740  19.429  0.00  0.00    +0.000 A 
ATOM      7  C   UNL     1       3.188   6.449  18.670  0.00  0.00    +0.000 A 
ENDROOT
BRANCH   7   8
ATOM      8  C   UNL     1       2.716   7.680  17.947  0.00  0.00    +0.000 C 
ATOM      9  O   UNL     1       3.115   7.871  16.803  0.00  0.00    +0.000 OA
ATOM     10  N   UNL     1       1.841   8.552  18.622  0.00  0.00    +0.000 N 
ATOM     11  C   UNL     1       1.567   9.900  18.116  0.00  0.00    +0.000 C 
ATOM     12  C   UNL     1       1.646  10.953  19.252  0.00  0.00    +0.000 C 
ATOM     13  C   UNL     1       1.127  12.316  18.787  0.00  0.00    +0.000 C 
ATOM     14  C   UNL     1       0.891  10.522  20.530  0.00  0.00    +0.000 C 
ATOM     15  C   UNL     1       1.242   9.082  20.925  0.00  0.00    +0.000 C 
ATOM     16  C   UNL     1       0.489   8.608  22.161  0.00  0.00    +0.000 C 
ATOM     17  C   UNL     1       0.974   8.160  19.733  0.00  0.00    +0.000 C 
ENDBRANCH   7   8
BRANCH   1  20
ATOM     18  C   UNL     1       6.230   6.877  17.035  0.00  0.00    +0.000 C 
ATOM     19  O   UNL     1       7.178   7.647  16.873  0.00  0.00    +0.000 OA
ATOM     20  N   UNL     1       5.602   6.812  18.269  0.00  0.00    +0.000 N 
ATOM     21  H   UNL     1       6.183   7.191  19.018  0.00  0.00    +0.000 HD
BRANCH  18  22
ATOM     22  C   UNL     1       5.755   5.981  15.890  0.00  0.00    +0.000 C 
BRANCH  22  23
ATOM     23  C   UNL     1       6.603   4.749  15.645  0.00  0.00    +0.000 C 
BRANCH  23  24
ATOM     24  C   UNL     1       7.010   4.660  14.197  0.00  0.00    +0.000 C 
ATOM     25  O   UNL     1       7.864   5.351  13.659  0.00  0.00    +0.000 OA
BRANCH  24  27
ATOM     26  C   UNL     1       6.476   3.609  12.186  0.00  0.00    +0.000 C 
ATOM     27  O   UNL     1       6.325   3.641  13.602  0.00  0.00    +0.000 OA
ENDBRANCH  24  27
ENDBRANCH  23  24
ENDBRANCH  22  23
ENDBRANCH  18  22
ENDBRANCH   1  20
TORSDOF 6
ENDMDL
MODEL 5
REMARK VINA RESULT:      -6.0      6.292      9.351
REMARK  Name = 
REMARK  9 active torsions:
REMARK  status: ('A' for Active; 'I' for Inactive)
REMARK    1  A    between atoms: C_1  and  O_2
REMARK    2  A    between atoms: O_2  and  C_3
REMARK    3  A    between atoms: C_3  and  C_5
REMARK    4  A    between atoms: C_5  and  C_6
REMARK    5  A    between atoms: C_6  and  C_7
REMARK    6  A    between atoms: N_9  and  C_10
REMARK    7  A    between atoms: C_16  and  C_17
REMARK    8  A    between atoms: C_21  and  C_22
REMARK    9  A    between atoms: C_24  and  C_25
REMARK                            x       y       z     vdW  Elec       q    Type
REMARK                         _______ _______ _______ _____ _____    ______ ____
ROOT
ATOM      1  C   UNL     1       0.886   9.685  18.670  0.00  0.00    +0.000 A 
ATOM      2  C   UNL     1       1.476   9.014  17.586  0.00  0.00    +0.000 A 
ATOM      3  C   UNL     1       2.294   7.901  17.765  0.00  0.00    +0.000 A 
ATOM      4  C   UNL     1       2.489   7.411  19.043  0.00  0.00    +0.000 A 
ATOM      5 BR   UNL     1       3.603   5.913  19.316  0.00  0.00    +0.000 Br
ATOM      6  C   UNL     1       1.813   7.981  20.115  0.00  0.00    +0.000 A 
ATOM      7  C   UNL     1       0.915   9.048  19.926  0.00  0.00    +0.000 A 
ENDROOT
BRANCH   7   8
ATOM      8  C   UNL     1       0.070   9.457  21.101  0.00  0.00    +0.000 C 
ATOM      9  O   UNL     1      -0.737   8.648  21.547  0.00  0.00    +0.000 OA
ATOM     10  N   UNL     1       0.247  10.750  21.628  0.00  0.00    +0.000 N 
ATOM     11  C   UNL     1      -0.718  11.331  22.566  0.00  0.00    +0.000 C 
ATOM     12  C   UNL     1      -1.073  12.789  22.176  0.00  0.00    +0.000 C 
ATOM     13  C   UNL     1      -1.884  13.480  23.274  0.00  0.00    +0.000 C 
ATOM     14  C   UNL     1       0.169  13.644  21.836  0.00  0.00    +0.000 C 
ATOM     15  C   UNL     1       1.109  12.904  20.877  0.00  0.00    +0.000 C 
ATOM     16  C   UNL     1       2.364  13.701  20.546  0.00  0.00    +0.000 C 
ATOM     17  C   UNL     1       1.468  11.544  21.483  0.00  0.00    +0.000 C 
ENDBRANCH   7   8
BRANCH   1  20
ATOM     18  C   UNL     1      -0.998  11.315  18.274  0.00  0.00    +0.000 C 
ATOM     19  O   UNL     1      -1.307  12.499  18.120  0.00  0.00    +0.000 OA
ATOM     20  N   UNL     1       0.328  10.976  18.491  0.00  0.00    +0.000 N 
ATOM     21  H   UNL     1       0.969  11.714  18.198  0.00  0.00    +0.000 HD
BRANCH  18  22
ATOM     22  C   UNL     1      -2.065  10.222  18.210  0.00  0.00    +0.000 C 
BRANCH  22  23
ATOM     23  C   UNL     1      -2.574   9.901  16.818  0.00  0.00    +0.000 C 
BRANCH  23  24
ATOM     24  C   UNL     1      -3.765  10.757  16.475  0.00  0.00    +0.000 C 
ATOM     25  O   UNL     1      -4.392  11.447  17.267  0.00  0.00    +0.000 OA
BRANCH  24  27
ATOM     26  C   UNL     1      -2.943  10.043  14.414  0.00  0.00    +0.000 C 
ATOM     27  O   UNL     1      -3.989  10.691  15.131  0.00  0.00    +0.000 OA
ENDBRANCH  24  27
ENDBRANCH  23  24
ENDBRANCH  22  23
ENDBRANCH  18  22
ENDBRANCH   1  20
TORSDOF 6
ENDMDL
MODEL 6
REMARK VINA RESULT:      -5.9      6.317      9.464
REMARK  Name = 
REMARK  9 active torsions:
REMARK  status: ('A' for Active; 'I' for Inactive)
REMARK    1  A    between atoms: C_1  and  O_2
REMARK    2  A    between atoms: O_2  and  C_3
REMARK    3  A    between atoms: C_3  and  C_5
REMARK    4  A    between atoms: C_5  and  C_6
REMARK    5  A    between atoms: C_6  and  C_7
REMARK    6  A    between atoms: N_9  and  C_10
REMARK    7  A    between atoms: C_16  and  C_17
REMARK    8  A    between atoms: C_21  and  C_22
REMARK    9  A    between atoms: C_24  and  C_25
REMARK                            x       y       z     vdW  Elec       q    Type
REMARK                         _______ _______ _______ _____ _____    ______ ____
ROOT
ATOM      1  C   UNL     1       0.784   9.521  18.833  0.00  0.00    +0.000 A 
ATOM      2  C   UNL     1       1.442   8.944  17.734  0.00  0.00    +0.000 A 
ATOM      3  C   UNL     1       2.319   7.871  17.881  0.00  0.00    +0.000 A 
ATOM      4  C   UNL     1       2.508   7.327  19.137  0.00  0.00    +0.000 A 
ATOM      5 BR   UNL     1       3.701   5.883  19.367  0.00  0.00    +0.000 Br
ATOM      6  C   UNL     1       1.770   7.800  20.216  0.00  0.00    +0.000 A 
ATOM      7  C   UNL     1       0.816   8.821  20.054  0.00  0.00    +0.000 A 
ENDROOT
BRANCH   7   8
ATOM      8  C   UNL     1      -0.084   9.118  21.222  0.00  0.00    +0.000 C 
ATOM      9  O   UNL     1      -0.821   8.227  21.630  0.00  0.00    +0.000 OA
ATOM     10  N   UNL     1      -0.036  10.407  21.787  0.00  0.00    +0.000 N 
ATOM     11  C   UNL     1      -1.067  10.870  22.721  0.00  0.00    +0.000 C 
ATOM     12  C   UNL     1      -1.548  12.299  22.362  0.00  0.00    +0.000 C 
ATOM     13  C   UNL     1      -2.438  12.882  23.461  0.00  0.00    +0.000 C 
ATOM     14  C   UNL     1      -0.383  13.274  22.069  0.00  0.00    +0.000 C 
ATOM     15  C   UNL     1       0.638  12.650  21.110  0.00  0.00    +0.000 C 
ATOM     16  C   UNL     1       1.820  13.568  20.826  0.00  0.00    +0.000 C 
ATOM     17  C   UNL     1       1.109  11.313  21.688  0.00  0.00    +0.000 C 
ENDBRANCH   7   8
BRANCH   1  20
ATOM     18  C   UNL     1      -1.067  11.081  18.121  0.00  0.00    +0.000 C 
ATOM     19  O   UNL     1      -1.455  12.250  18.079  0.00  0.00    +0.000 OA
ATOM     20  N   UNL     1       0.155  10.785  18.703  0.00  0.00    +0.000 N 
ATOM     21  H   UNL     1       0.760  11.605  18.770  0.00  0.00    +0.000 HD
BRANCH  18  22
ATOM     22  C   UNL     1      -1.916   9.960  17.520  0.00  0.00    +0.000 C 
BRANCH  22  23
ATOM     23  C   UNL     1      -3.414  10.185  17.584  0.00  0.00    +0.000 C 
BRANCH  23  24
ATOM     24  C   UNL     1      -3.896  10.928  16.365  0.00  0.00    +0.000 C 
ATOM     25  O   UNL     1      -3.533  10.713  15.216  0.00  0.00    +0.000 OA
BRANCH  24  27
ATOM     26  C   UNL     1      -5.699  11.355  17.779  0.00  0.00    +0.000 C 
ATOM     27  O   UNL     1      -4.849  11.830  16.739  0.00  0.00    +0.000 OA
ENDBRANCH  24  27
ENDBRANCH  23  24
ENDBRANCH  22  23
ENDBRANCH  18  22
ENDBRANCH   1  20
TORSDOF 6
ENDMDL
MODEL 7
REMARK VINA RESULT:      -5.8      8.037     10.857
REMARK  Name = 
REMARK  9 active torsions:
REMARK  status: ('A' for Active; 'I' for Inactive)
REMARK    1  A    between atoms: C_1  and  O_2
REMARK    2  A    between atoms: O_2  and  C_3
REMARK    3  A    between atoms: C_3  and  C_5
REMARK    4  A    between atoms: C_5  and  C_6
REMARK    5  A    between atoms: C_6  and  C_7
REMARK    6  A    between atoms: N_9  and  C_10
REMARK    7  A    between atoms: C_16  and  C_17
REMARK    8  A    between atoms: C_21  and  C_22
REMARK    9  A    between atoms: C_24  and  C_25
REMARK                            x       y       z     vdW  Elec       q    Type
REMARK                         _______ _______ _______ _____ _____    ______ ____
ROOT
ATOM      1  C   UNL     1      -0.815  11.819  18.824  0.00  0.00    +0.000 A 
ATOM      2  C   UNL     1      -2.113  11.657  18.313  0.00  0.00    +0.000 A 
ATOM      3  C   UNL     1      -3.241  12.038  19.036  0.00  0.00    +0.000 A 
ATOM      4  C   UNL     1      -3.076  12.640  20.270  0.00  0.00    +0.000 A 
ATOM      5 BR   UNL     1      -4.587  13.153  21.277  0.00  0.00    +0.000 Br
ATOM      6  C   UNL     1      -1.799  12.924  20.737  0.00  0.00    +0.000 A 
ATOM      7  C   UNL     1      -0.658  12.625  19.969  0.00  0.00    +0.000 A 
ENDROOT
BRANCH   7   8
ATOM      8  C   UNL     1       0.661  13.161  20.451  0.00  0.00    +0.000 C 
ATOM      9  O   UNL     1       1.375  12.428  21.127  0.00  0.00    +0.000 OA
ATOM     10  N   UNL     1       1.008  14.481  20.104  0.00  0.00    +0.000 N 
ATOM     11  C   UNL     1       2.118  15.176  20.762  0.00  0.00    +0.000 C 
ATOM     12  C   UNL     1       1.714  16.616  21.173  0.00  0.00    +0.000 C 
ATOM     13  C   UNL     1       2.927  17.426  21.637  0.00  0.00    +0.000 C 
ATOM     14  C   UNL     1       0.980  17.383  20.048  0.00  0.00    +0.000 C 
ATOM     15  C   UNL     1      -0.129  16.528  19.424  0.00  0.00    +0.000 C 
ATOM     16  C   UNL     1      -0.852  17.236  18.286  0.00  0.00    +0.000 C 
ATOM     17  C   UNL     1       0.473  15.202  18.949  0.00  0.00    +0.000 C 
ENDBRANCH   7   8
BRANCH   1  20
ATOM     18  C   UNL     1       0.869   9.953  18.595  0.00  0.00    +0.000 C 
ATOM     19  O   UNL     1       1.832   9.522  17.958  0.00  0.00    +0.000 OA
ATOM     20  N   UNL     1       0.278  11.148  18.218  0.00  0.00    +0.000 N 
ATOM     21  H   UNL     1       0.891  11.714  17.629  0.00  0.00    +0.000 HD
BRANCH  18  22
ATOM     22  C   UNL     1       0.336   9.188  19.807  0.00  0.00    +0.000 C 
BRANCH  22  23
ATOM     23  C   UNL     1       1.391   8.739  20.798  0.00  0.00    +0.000 C 
BRANCH  23  24
ATOM     24  C   UNL     1       1.011   9.137  22.201  0.00  0.00    +0.000 C 
ATOM     25  O   UNL     1       1.799   9.420  23.093  0.00  0.00    +0.000 OA
BRANCH  24  27
ATOM     26  C   UNL     1      -0.809  10.228  23.165  0.00  0.00    +0.000 C 
ATOM     27  O   UNL     1      -0.348   9.198  22.295  0.00  0.00    +0.000 OA
ENDBRANCH  24  27
ENDBRANCH  23  24
ENDBRANCH  22  23
ENDBRANCH  18  22
ENDBRANCH   1  20
TORSDOF 6
ENDMDL
MODEL 8
REMARK VINA RESULT:      -5.7      7.598     10.564
REMARK  Name = 
REMARK  9 active torsions:
REMARK  status: ('A' for Active; 'I' for Inactive)
REMARK    1  A    between atoms: C_1  and  O_2
REMARK    2  A    between atoms: O_2  and  C_3
REMARK    3  A    between atoms: C_3  and  C_5
REMARK    4  A    between atoms: C_5  and  C_6
REMARK    5  A    between atoms: C_6  and  C_7
REMARK    6  A    between atoms: N_9  and  C_10
REMARK    7  A    between atoms: C_16  and  C_17
REMARK    8  A    between atoms: C_21  and  C_22
REMARK    9  A    between atoms: C_24  and  C_25
REMARK                            x       y       z     vdW  Elec       q    Type
REMARK                         _______ _______ _______ _____ _____    ______ ____
ROOT
ATOM      1  C   UNL     1      10.131  12.632  20.148  0.00  0.00    +0.000 A 
ATOM      2  C   UNL     1       9.805  11.436  20.807  0.00  0.00    +0.000 A 
ATOM      3  C   UNL     1       9.230  10.359  20.136  0.00  0.00    +0.000 A 
ATOM      4  C   UNL     1       9.021  10.451  18.774  0.00  0.00    +0.000 A 
ATOM      5 BR   UNL     1       8.230   9.013  17.842  0.00  0.00    +0.000 Br
ATOM      6  C   UNL     1       9.453  11.576  18.081  0.00  0.00    +0.000 A 
ATOM      7  C   UNL     1      10.118  12.627  18.739  0.00  0.00    +0.000 A 
ENDROOT
BRANCH   7   8
ATOM      8  C   UNL     1      10.740  13.696  17.884  0.00  0.00    +0.000 C 
ATOM      9  O   UNL     1      11.831  13.470  17.371  0.00  0.00    +0.000 OA
ATOM     10  N   UNL     1      10.037  14.905  17.717  0.00  0.00    +0.000 N 
ATOM     11  C   UNL     1      10.685  16.092  17.153  0.00  0.00    +0.000 C 
ATOM     12  C   UNL     1      10.362  17.358  17.988  0.00  0.00    +0.000 C 
ATOM     13  C   UNL     1      10.829  18.631  17.278  0.00  0.00    +0.000 C 
ATOM     14  C   UNL     1       8.862  17.484  18.341  0.00  0.00    +0.000 C 
ATOM     15  C   UNL     1       8.305  16.162  18.884  0.00  0.00    +0.000 C 
ATOM     16  C   UNL     1       6.819  16.236  19.210  0.00  0.00    +0.000 C 
ATOM     17  C   UNL     1       8.589  15.050  17.871  0.00  0.00    +0.000 C 
ENDBRANCH   7   8
BRANCH   1  20
ATOM     18  C   UNL     1       9.570  14.520  21.725  0.00  0.00    +0.000 C 
ATOM     19  O   UNL     1       9.985  15.536  22.288  0.00  0.00    +0.000 OA
ATOM     20  N   UNL     1      10.417  13.803  20.895  0.00  0.00    +0.000 N 
ATOM     21  H   UNL     1      11.219  14.356  20.589  0.00  0.00    +0.000 HD
BRANCH  18  22
ATOM     22  C   UNL     1       8.126  14.061  21.922  0.00  0.00    +0.000 C 
BRANCH  22  23
ATOM     23  C   UNL     1       7.462  14.555  23.192  0.00  0.00    +0.000 C 
BRANCH  23  24
ATOM     24  C   UNL     1       6.473  13.542  23.707  0.00  0.00    +0.000 C 
ATOM     25  O   UNL     1       5.412  13.253  23.171  0.00  0.00    +0.000 OA
BRANCH  24  27
ATOM     26  C   UNL     1       7.397  11.605  24.616  0.00  0.00    +0.000 C 
ATOM     27  O   UNL     1       6.981  12.951  24.826  0.00  0.00    +0.000 OA
ENDBRANCH  24  27
ENDBRANCH  23  24
ENDBRANCH  22  23
ENDBRANCH  18  22
ENDBRANCH   1  20
TORSDOF 6
ENDMDL
MODEL 9
REMARK VINA RESULT:      -5.7      4.210      7.570
REMARK  Name = 
REMARK  9 active torsions:
REMARK  status: ('A' for Active; 'I' for Inactive)
REMARK    1  A    between atoms: C_1  and  O_2
REMARK    2  A    between atoms: O_2  and  C_3
REMARK    3  A    between atoms: C_3  and  C_5
REMARK    4  A    between atoms: C_5  and  C_6
REMARK    5  A    between atoms: C_6  and  C_7
REMARK    6  A    between atoms: N_9  and  C_10
REMARK    7  A    between atoms: C_16  and  C_17
REMARK    8  A    between atoms: C_21  and  C_22
REMARK    9  A    between atoms: C_24  and  C_25
REMARK                            x       y       z     vdW  Elec       q    Type
REMARK                         _______ _______ _______ _____ _____    ______ ____
ROOT
ATOM      1  C   UNL     1       1.950   8.285  19.595  0.00  0.00    +0.000 A 
ATOM      2  C   UNL     1       1.407   7.925  20.840  0.00  0.00    +0.000 A 
ATOM      3  C   UNL     1       1.136   6.599  21.170  0.00  0.00    +0.000 A 
ATOM      4  C   UNL     1       1.459   5.604  20.267  0.00  0.00    +0.000 A 
ATOM      5 BR   UNL     1       1.089   3.801  20.682  0.00  0.00    +0.000 Br
ATOM      6  C   UNL     1       2.113   5.926  19.084  0.00  0.00    +0.000 A 
ATOM      7  C   UNL     1       2.472   7.255  18.788  0.00  0.00    +0.000 A 
ENDROOT
BRANCH   7   8
ATOM      8  C   UNL     1       3.363   7.482  17.599  0.00  0.00    +0.000 C 
ATOM      9  O   UNL     1       3.138   8.449  16.879  0.00  0.00    +0.000 OA
ATOM     10  N   UNL     1       4.412   6.569  17.371  0.00  0.00    +0.000 N 
ATOM     11  C   UNL     1       5.136   6.542  16.096  0.00  0.00    +0.000 C 
ATOM     12  C   UNL     1       5.302   5.091  15.576  0.00  0.00    +0.000 C 
ATOM     13  C   UNL     1       6.258   5.031  14.383  0.00  0.00    +0.000 C 
ATOM     14  C   UNL     1       5.778   4.107  16.670  0.00  0.00    +0.000 C 
ATOM     15  C   UNL     1       4.961   4.267  17.957  0.00  0.00    +0.000 C 
ATOM     16  C   UNL     1       5.425   3.339  19.072  0.00  0.00    +0.000 C 
ATOM     17  C   UNL     1       5.020   5.731  18.404  0.00  0.00    +0.000 C 
ENDBRANCH   7   8
BRANCH   1  20
ATOM     18  C   UNL     1       0.835  10.383  18.747  0.00  0.00    +0.000 C 
ATOM     19  O   UNL     1       0.999  11.552  18.391  0.00  0.00    +0.000 OA
ATOM     20  N   UNL     1       1.924   9.637  19.170  0.00  0.00    +0.000 N 
ATOM     21  H   UNL     1       2.811  10.035  18.857  0.00  0.00    +0.000 HD
BRANCH  18  22
ATOM     22  C   UNL     1      -0.555   9.748  18.706  0.00  0.00    +0.000 C 
BRANCH  22  23
ATOM     23  C   UNL     1      -1.672  10.676  18.271  0.00  0.00    +0.000 C 
BRANCH  23  24
ATOM     24  C   UNL     1      -2.631   9.965  17.352  0.00  0.00    +0.000 C 
ATOM     25  O   UNL     1      -3.637   9.366  17.705  0.00  0.00    +0.000 OA
BRANCH  24  27
ATOM     26  C   UNL     1      -3.251  10.715  15.233  0.00  0.00    +0.000 C 
ATOM     27  O   UNL     1      -2.235  10.155  16.060  0.00  0.00    +0.000 OA
ENDBRANCH  24  27
ENDBRANCH  23  24
ENDBRANCH  22  23
ENDBRANCH  18  22
ENDBRANCH   1  20
TORSDOF 6
ENDMDL
