MODEL 1
REMARK VINA RESULT:      -7.8      0.000      0.000
REMARK  Name = 
REMARK  4 active torsions:
REMARK  status: ('A' for Active; 'I' for Inactive)
REMARK    1  A    between atoms: N_6  and  C_7
REMARK    2  A    between atoms: C_11  and  N_12
REMARK    3  A    between atoms: C_19  and  C_20
REMARK    4  A    between atoms: C_20  and  O_21
REMARK                            x       y       z     vdW  Elec       q    Type
REMARK                         _______ _______ _______ _____ _____    ______ ____
ROOT
ATOM      1  C   UNL     1       4.005   4.603  18.930  0.00  0.00    +0.000 A 
ATOM      2  C   UNL     1       3.356   3.379  19.122  0.00  0.00    +0.000 A 
ATOM      3  C   UNL     1       2.182   3.294  19.863  0.00  0.00    +0.000 A 
ATOM      4  C   UNL     1       1.628   4.436  20.429  0.00  0.00    +0.000 A 
ATOM      5  C   UNL     1       2.234   5.679  20.261  0.00  0.00    +0.000 A 
ATOM      6  C   UNL     1       3.413   5.754  19.492  0.00  0.00    +0.000 A 
ENDROOT
BRANCH   5   7
ATOM      7  N   UNL     1       1.736   6.870  20.849  0.00  0.00    +0.000 N 
ATOM      8  C   UNL     1       1.554   8.076  20.205  0.00  0.00    +0.000 C 
ATOM      9  O   UNL     1       1.840   8.287  19.029  0.00  0.00    +0.000 OA
ATOM     10  N   UNL     1       0.973   9.076  20.957  0.00  0.00    +0.000 N 
ATOM     11  C   UNL     1       0.817   9.145  22.398  0.00  0.00    +0.000 C 
ATOM     12  C   UNL     1      -0.198  10.254  22.590  0.00  0.00    +0.000 C 
ATOM     13  C   UNL     1       0.154  11.253  21.497  0.00  0.00    +0.000 C 
ATOM     14  C   UNL     1       0.753  10.402  20.362  0.00  0.00    +0.000 C 
ATOM     15  H   UNL     1       1.357   6.784  21.776  0.00  0.00    +0.000 HD
BRANCH  14  16
ATOM     16  C   UNL     1      -0.124  10.427  19.096  0.00  0.00    +0.000 C 
BRANCH  16  17
ATOM     17  O   UNL     1       0.676  10.679  17.939  0.00  0.00    +0.000 OA
ATOM     18  H   UNL     1       0.817   9.817  17.505  0.00  0.00    +0.000 HD
ENDBRANCH  16  17
ENDBRANCH  14  16
ENDBRANCH   5   7
BRANCH   1  24
ATOM     19  O   UNL     1       6.798   5.322  19.894  0.00  0.00    +0.000 OA
ATOM     20  C   UNL     1       6.483   5.069  18.743  0.00  0.00    +0.000 C 
ATOM     21  C   UNL     1       7.441   5.228  17.589  0.00  0.00    +0.000 C 
ATOM     22  C   UNL     1       6.793   4.429  16.481  0.00  0.00    +0.000 C 
ATOM     23  C   UNL     1       5.313   4.546  16.779  0.00  0.00    +0.000 C 
ATOM     24  N   UNL     1       5.237   4.675  18.215  0.00  0.00    +0.000 N 
ENDBRANCH   1  24
TORSDOF 4
ENDMDL
MODEL 2
REMARK VINA RESULT:      -7.5      0.977      1.285
REMARK  Name = 
REMARK  4 active torsions:
REMARK  status: ('A' for Active; 'I' for Inactive)
REMARK    1  A    between atoms: N_6  and  C_7
REMARK    2  A    between atoms: C_11  and  N_12
REMARK    3  A    between atoms: C_19  and  C_20
REMARK    4  A    between atoms: C_20  and  O_21
REMARK                            x       y       z     vdW  Elec       q    Type
REMARK                         _______ _______ _______ _____ _____    ______ ____
ROOT
ATOM      1  C   UNL     1       4.019   4.875  19.130  0.00  0.00    +0.000 A 
ATOM      2  C   UNL     1       3.369   3.641  19.242  0.00  0.00    +0.000 A 
ATOM      3  C   UNL     1       2.151   3.526  19.905  0.00  0.00    +0.000 A 
ATOM      4  C   UNL     1       1.554   4.647  20.472  0.00  0.00    +0.000 A 
ATOM      5  C   UNL     1       2.161   5.898  20.381  0.00  0.00    +0.000 A 
ATOM      6  C   UNL     1       3.385   6.004  19.690  0.00  0.00    +0.000 A 
ENDROOT
BRANCH   5   7
ATOM      7  N   UNL     1       1.618   7.067  20.974  0.00  0.00    +0.000 N 
ATOM      8  C   UNL     1       1.407   8.273  20.341  0.00  0.00    +0.000 C 
ATOM      9  O   UNL     1       1.701   8.505  19.171  0.00  0.00    +0.000 OA
ATOM     10  N   UNL     1       0.785   9.247  21.094  0.00  0.00    +0.000 N 
ATOM     11  C   UNL     1       0.609   9.296  22.534  0.00  0.00    +0.000 C 
ATOM     12  C   UNL     1      -0.443  10.371  22.724  0.00  0.00    +0.000 C 
ATOM     13  C   UNL     1      -0.108  11.391  21.645  0.00  0.00    +0.000 C 
ATOM     14  C   UNL     1       0.531  10.571  20.510  0.00  0.00    +0.000 C 
ATOM     15  H   UNL     1       1.230   6.960  21.896  0.00  0.00    +0.000 HD
BRANCH  14  16
ATOM     16  C   UNL     1      -0.329  10.582  19.233  0.00  0.00    +0.000 C 
BRANCH  16  17
ATOM     17  O   UNL     1       0.440  11.028  18.114  0.00  0.00    +0.000 OA
ATOM     18  H   UNL     1       1.329  10.642  18.218  0.00  0.00    +0.000 HD
ENDBRANCH  16  17
ENDBRANCH  14  16
ENDBRANCH   5   7
BRANCH   1  24
ATOM     19  O   UNL     1       4.881   4.110  16.315  0.00  0.00    +0.000 OA
ATOM     20  C   UNL     1       5.608   4.547  17.191  0.00  0.00    +0.000 C 
ATOM     21  C   UNL     1       7.107   4.629  17.031  0.00  0.00    +0.000 C 
ATOM     22  C   UNL     1       7.525   5.584  18.127  0.00  0.00    +0.000 C 
ATOM     23  C   UNL     1       6.489   5.357  19.209  0.00  0.00    +0.000 C 
ATOM     24  N   UNL     1       5.293   4.977  18.496  0.00  0.00    +0.000 N 
ENDBRANCH   1  24
TORSDOF 4
ENDMDL
MODEL 3
REMARK VINA RESULT:      -7.1      4.252      5.862
REMARK  Name = 
REMARK  4 active torsions:
REMARK  status: ('A' for Active; 'I' for Inactive)
REMARK    1  A    between atoms: N_6  and  C_7
REMARK    2  A    between atoms: C_11  and  N_12
REMARK    3  A    between atoms: C_19  and  C_20
REMARK    4  A    between atoms: C_20  and  O_21
REMARK                            x       y       z     vdW  Elec       q    Type
REMARK                         _______ _______ _______ _____ _____    ______ ____
ROOT
ATOM      1  C   UNL     1       6.680   5.186  15.734  0.00  0.00    +0.000 A 
ATOM      2  C   UNL     1       7.463   6.285  16.105  0.00  0.00    +0.000 A 
ATOM      3  C   UNL     1       7.404   6.810  17.392  0.00  0.00    +0.000 A 
ATOM      4  C   UNL     1       6.558   6.245  18.340  0.00  0.00    +0.000 A 
ATOM      5  C   UNL     1       5.764   5.147  18.020  0.00  0.00    +0.000 A 
ATOM      6  C   UNL     1       5.847   4.613  16.718  0.00  0.00    +0.000 A 
ENDROOT
BRANCH   5   7
ATOM      7  N   UNL     1       4.854   4.555  18.934  0.00  0.00    +0.000 N 
ATOM      8  C   UNL     1       3.486   4.484  18.782  0.00  0.00    +0.000 C 
ATOM      9  O   UNL     1       2.864   4.965  17.839  0.00  0.00    +0.000 OA
ATOM     10  N   UNL     1       2.809   3.782  19.759  0.00  0.00    +0.000 N 
ATOM     11  C   UNL     1       3.281   3.385  21.072  0.00  0.00    +0.000 C 
ATOM     12  C   UNL     1       2.264   2.350  21.513  0.00  0.00    +0.000 C 
ATOM     13  C   UNL     1       0.951   2.882  20.958  0.00  0.00    +0.000 C 
ATOM     14  C   UNL     1       1.346   3.665  19.693  0.00  0.00    +0.000 C 
ATOM     15  H   UNL     1       5.260   4.025  19.685  0.00  0.00    +0.000 HD
BRANCH  14  16
ATOM     16  C   UNL     1       0.787   3.016  18.412  0.00  0.00    +0.000 C 
BRANCH  16  17
ATOM     17  O   UNL     1       1.642   1.958  17.973  0.00  0.00    +0.000 OA
ATOM     18  H   UNL     1       1.111   1.403  17.374  0.00  0.00    +0.000 HD
ENDBRANCH  16  17
ENDBRANCH  14  16
ENDBRANCH   5   7
BRANCH   1  24
ATOM     19  O   UNL     1       8.600   5.774  13.450  0.00  0.00    +0.000 OA
ATOM     20  C   UNL     1       7.615   5.059  13.388  0.00  0.00    +0.000 C 
ATOM     21  C   UNL     1       7.124   4.470  12.089  0.00  0.00    +0.000 C 
ATOM     22  C   UNL     1       6.193   3.364  12.534  0.00  0.00    +0.000 C 
ATOM     23  C   UNL     1       5.647   3.870  13.853  0.00  0.00    +0.000 C 
ATOM     24  N   UNL     1       6.705   4.686  14.398  0.00  0.00    +0.000 N 
ENDBRANCH   1  24
TORSDOF 4
ENDMDL
MODEL 4
REMARK VINA RESULT:      -7.1      3.286      5.663
REMARK  Name = 
REMARK  4 active torsions:
REMARK  status: ('A' for Active; 'I' for Inactive)
REMARK    1  A    between atoms: N_6  and  C_7
REMARK    2  A    between atoms: C_11  and  N_12
REMARK    3  A    between atoms: C_19  and  C_20
REMARK    4  A    between atoms: C_20  and  O_21
REMARK                            x       y       z     vdW  Elec       q    Type
REMARK                         _______ _______ _______ _____ _____    ______ ____
ROOT
ATOM      1  C   UNL     1       6.775   5.051  15.496  0.00  0.00    +0.000 A 
ATOM      2  C   UNL     1       7.516   6.140  15.967  0.00  0.00    +0.000 A 
ATOM      3  C   UNL     1       7.408   6.569  17.286  0.00  0.00    +0.000 A 
ATOM      4  C   UNL     1       6.553   5.916  18.166  0.00  0.00    +0.000 A 
ATOM      5  C   UNL     1       5.798   4.824  17.745  0.00  0.00    +0.000 A 
ATOM      6  C   UNL     1       5.931   4.387  16.411  0.00  0.00    +0.000 A 
ENDROOT
BRANCH   5   7
ATOM      7  N   UNL     1       4.880   4.144  18.588  0.00  0.00    +0.000 N 
ATOM      8  C   UNL     1       4.009   4.734  19.479  0.00  0.00    +0.000 C 
ATOM      9  O   UNL     1       3.941   5.943  19.689  0.00  0.00    +0.000 OA
ATOM     10  N   UNL     1       3.146   3.878  20.131  0.00  0.00    +0.000 N 
ATOM     11  C   UNL     1       3.231   2.435  20.253  0.00  0.00    +0.000 C 
ATOM     12  C   UNL     1       1.847   2.040  20.731  0.00  0.00    +0.000 C 
ATOM     13  C   UNL     1       1.454   3.178  21.663  0.00  0.00    +0.000 C 
ATOM     14  C   UNL     1       2.190   4.412  21.112  0.00  0.00    +0.000 C 
ATOM     15  H   UNL     1       4.764   3.160  18.417  0.00  0.00    +0.000 HD
BRANCH  14  16
ATOM     16  C   UNL     1       1.215   5.478  20.579  0.00  0.00    +0.000 C 
BRANCH  16  17
ATOM     17  O   UNL     1       1.616   6.782  21.006  0.00  0.00    +0.000 OA
ATOM     18  H   UNL     1       0.802   7.252  21.264  0.00  0.00    +0.000 HD
ENDBRANCH  16  17
ENDBRANCH  14  16
ENDBRANCH   5   7
BRANCH   1  24
ATOM     19  O   UNL     1       8.692   5.909  13.297  0.00  0.00    +0.000 OA
ATOM     20  C   UNL     1       7.752   5.144  13.166  0.00  0.00    +0.000 C 
ATOM     21  C   UNL     1       7.316   4.622  11.819  0.00  0.00    +0.000 C 
ATOM     22  C   UNL     1       6.445   3.436  12.167  0.00  0.00    +0.000 C 
ATOM     23  C   UNL     1       5.850   3.814  13.508  0.00  0.00    +0.000 C 
ATOM     24  N   UNL     1       6.850   4.650  14.129  0.00  0.00    +0.000 N 
ENDBRANCH   1  24
TORSDOF 4
ENDMDL
MODEL 5
REMARK VINA RESULT:      -7.1      2.895      4.447
REMARK  Name = 
REMARK  4 active torsions:
REMARK  status: ('A' for Active; 'I' for Inactive)
REMARK    1  A    between atoms: N_6  and  C_7
REMARK    2  A    between atoms: C_11  and  N_12
REMARK    3  A    between atoms: C_19  and  C_20
REMARK    4  A    between atoms: C_20  and  O_21
REMARK                            x       y       z     vdW  Elec       q    Type
REMARK                         _______ _______ _______ _____ _____    ______ ____
ROOT
ATOM      1  C   UNL     1       6.422   5.001  15.489  0.00  0.00    +0.000 A 
ATOM      2  C   UNL     1       7.265   4.549  16.509  0.00  0.00    +0.000 A 
ATOM      3  C   UNL     1       7.113   4.991  17.820  0.00  0.00    +0.000 A 
ATOM      4  C   UNL     1       6.110   5.898  18.140  0.00  0.00    +0.000 A 
ATOM      5  C   UNL     1       5.242   6.374  17.160  0.00  0.00    +0.000 A 
ATOM      6  C   UNL     1       5.394   5.903  15.840  0.00  0.00    +0.000 A 
ENDROOT
BRANCH   5   7
ATOM      7  N   UNL     1       4.227   7.330  17.421  0.00  0.00    +0.000 N 
ATOM      8  C   UNL     1       3.219   7.207  18.353  0.00  0.00    +0.000 C 
ATOM      9  O   UNL     1       3.044   6.220  19.063  0.00  0.00    +0.000 OA
ATOM     10  N   UNL     1       2.394   8.303  18.495  0.00  0.00    +0.000 N 
ATOM     11  C   UNL     1       2.236   9.433  17.597  0.00  0.00    +0.000 C 
ATOM     12  C   UNL     1       1.507  10.457  18.445  0.00  0.00    +0.000 C 
ATOM     13  C   UNL     1       0.563   9.613  19.289  0.00  0.00    +0.000 C 
ATOM     14  C   UNL     1       1.280   8.261  19.452  0.00  0.00    +0.000 C 
ATOM     15  H   UNL     1       4.339   8.229  16.984  0.00  0.00    +0.000 HD
BRANCH  14  16
ATOM     16  C   UNL     1       1.671   7.985  20.916  0.00  0.00    +0.000 C 
BRANCH  16  17
ATOM     17  O   UNL     1       1.484   6.604  21.233  0.00  0.00    +0.000 OA
ATOM     18  H   UNL     1       2.238   6.126  20.842  0.00  0.00    +0.000 HD
ENDBRANCH  16  17
ENDBRANCH  14  16
ENDBRANCH   5   7
BRANCH   1  24
ATOM     19  O   UNL     1       8.526   5.835  13.459  0.00  0.00    +0.000 OA
ATOM     20  C   UNL     1       7.599   5.070  13.254  0.00  0.00    +0.000 C 
ATOM     21  C   UNL     1       7.283   4.534  11.879  0.00  0.00    +0.000 C 
ATOM     22  C   UNL     1       6.383   3.352  12.161  0.00  0.00    +0.000 C 
ATOM     23  C   UNL     1       5.673   3.745  13.440  0.00  0.00    +0.000 C 
ATOM     24  N   UNL     1       6.616   4.585  14.139  0.00  0.00    +0.000 N 
ENDBRANCH   1  24
TORSDOF 4
ENDMDL
MODEL 6
REMARK VINA RESULT:      -7.0      1.004      1.044
REMARK  Name = 
REMARK  4 active torsions:
REMARK  status: ('A' for Active; 'I' for Inactive)
REMARK    1  A    between atoms: N_6  and  C_7
REMARK    2  A    between atoms: C_11  and  N_12
REMARK    3  A    between atoms: C_19  and  C_20
REMARK    4  A    between atoms: C_20  and  O_21
REMARK                            x       y       z     vdW  Elec       q    Type
REMARK                         _______ _______ _______ _____ _____    ______ ____
ROOT
ATOM      1  C   UNL     1       4.061   4.367  17.793  0.00  0.00    +0.000 A 
ATOM      2  C   UNL     1       3.366   3.160  17.925  0.00  0.00    +0.000 A 
ATOM      3  C   UNL     1       2.240   3.061  18.735  0.00  0.00    +0.000 A 
ATOM      4  C   UNL     1       1.781   4.172  19.434  0.00  0.00    +0.000 A 
ATOM      5  C   UNL     1       2.436   5.397  19.332  0.00  0.00    +0.000 A 
ATOM      6  C   UNL     1       3.565   5.488  18.492  0.00  0.00    +0.000 A 
ENDROOT
BRANCH   5   7
ATOM      7  N   UNL     1       2.037   6.552  20.052  0.00  0.00    +0.000 N 
ATOM      8  C   UNL     1       1.787   7.796  19.514  0.00  0.00    +0.000 C 
ATOM      9  O   UNL     1       1.917   8.079  18.325  0.00  0.00    +0.000 OA
ATOM     10  N   UNL     1       1.325   8.751  20.396  0.00  0.00    +0.000 N 
ATOM     11  C   UNL     1       1.364   8.731  21.846  0.00  0.00    +0.000 C 
ATOM     12  C   UNL     1       0.398   9.831  22.239  0.00  0.00    +0.000 C 
ATOM     13  C   UNL     1       0.616  10.894  21.172  0.00  0.00    +0.000 C 
ATOM     14  C   UNL     1       1.046  10.112  19.918  0.00  0.00    +0.000 C 
ATOM     15  H   UNL     1       1.783   6.411  21.015  0.00  0.00    +0.000 HD
BRANCH  14  16
ATOM     16  C   UNL     1       0.009  10.221  18.784  0.00  0.00    +0.000 C 
BRANCH  16  17
ATOM     17  O   UNL     1       0.081  11.505  18.162  0.00  0.00    +0.000 OA
ATOM     18  H   UNL     1       0.197  11.345  17.207  0.00  0.00    +0.000 HD
ENDBRANCH  16  17
ENDBRANCH  14  16
ENDBRANCH   5   7
BRANCH   1  24
ATOM     19  O   UNL     1       6.978   4.536  18.635  0.00  0.00    +0.000 OA
ATOM     20  C   UNL     1       6.562   4.574  17.490  0.00  0.00    +0.000 C 
ATOM     21  C   UNL     1       7.460   4.866  16.313  0.00  0.00    +0.000 C 
ATOM     22  C   UNL     1       6.646   4.402  15.126  0.00  0.00    +0.000 C 
ATOM     23  C   UNL     1       5.215   4.623  15.570  0.00  0.00    +0.000 C 
ATOM     24  N   UNL     1       5.245   4.449  17.003  0.00  0.00    +0.000 N 
ENDBRANCH   1  24
TORSDOF 4
ENDMDL
MODEL 7
REMARK VINA RESULT:      -6.9      1.268      1.281
REMARK  Name = 
REMARK  4 active torsions:
REMARK  status: ('A' for Active; 'I' for Inactive)
REMARK    1  A    between atoms: N_6  and  C_7
REMARK    2  A    between atoms: C_11  and  N_12
REMARK    3  A    between atoms: C_19  and  C_20
REMARK    4  A    between atoms: C_20  and  O_21
REMARK                            x       y       z     vdW  Elec       q    Type
REMARK                         _______ _______ _______ _____ _____    ______ ____
ROOT
ATOM      1  C   UNL     1       3.620   4.713  18.646  0.00  0.00    +0.000 A 
ATOM      2  C   UNL     1       3.461   3.480  19.287  0.00  0.00    +0.000 A 
ATOM      3  C   UNL     1       2.731   3.371  20.467  0.00  0.00    +0.000 A 
ATOM      4  C   UNL     1       2.141   4.495  21.031  0.00  0.00    +0.000 A 
ATOM      5  C   UNL     1       2.267   5.744  20.427  0.00  0.00    +0.000 A 
ATOM      6  C   UNL     1       2.993   5.838  19.222  0.00  0.00    +0.000 A 
ENDROOT
BRANCH   5   7
ATOM      7  N   UNL     1       1.721   6.931  20.979  0.00  0.00    +0.000 N 
ATOM      8  C   UNL     1       1.538   8.124  20.313  0.00  0.00    +0.000 C 
ATOM      9  O   UNL     1       1.865   8.327  19.146  0.00  0.00    +0.000 OA
ATOM     10  N   UNL     1       0.907   9.121  21.028  0.00  0.00    +0.000 N 
ATOM     11  C   UNL     1       0.694   9.204  22.461  0.00  0.00    +0.000 C 
ATOM     12  C   UNL     1      -0.352  10.293  22.598  0.00  0.00    +0.000 C 
ATOM     13  C   UNL     1       0.021  11.286  21.507  0.00  0.00    +0.000 C 
ATOM     14  C   UNL     1       0.681  10.434  20.408  0.00  0.00    +0.000 C 
ATOM     15  H   UNL     1       1.308   6.849  21.892  0.00  0.00    +0.000 HD
BRANCH  14  16
ATOM     16  C   UNL     1      -0.146  10.423  19.108  0.00  0.00    +0.000 C 
BRANCH  16  17
ATOM     17  O   UNL     1       0.698  10.646  17.976  0.00  0.00    +0.000 OA
ATOM     18  H   UNL     1       0.438   9.990  17.304  0.00  0.00    +0.000 HD
ENDBRANCH  16  17
ENDBRANCH  14  16
ENDBRANCH   5   7
BRANCH   1  24
ATOM     19  O   UNL     1       4.761   7.177  17.277  0.00  0.00    +0.000 OA
ATOM     20  C   UNL     1       4.858   6.029  16.878  0.00  0.00    +0.000 C 
ATOM     21  C   UNL     1       5.452   5.689  15.533  0.00  0.00    +0.000 C 
ATOM     22  C   UNL     1       5.752   4.211  15.646  0.00  0.00    +0.000 C 
ATOM     23  C   UNL     1       4.692   3.706  16.602  0.00  0.00    +0.000 C 
ATOM     24  N   UNL     1       4.415   4.828  17.467  0.00  0.00    +0.000 N 
ENDBRANCH   1  24
TORSDOF 4
ENDMDL
MODEL 8
REMARK VINA RESULT:      -6.9      1.977      3.123
REMARK  Name = 
REMARK  4 active torsions:
REMARK  status: ('A' for Active; 'I' for Inactive)
REMARK    1  A    between atoms: N_6  and  C_7
REMARK    2  A    between atoms: C_11  and  N_12
REMARK    3  A    between atoms: C_19  and  C_20
REMARK    4  A    between atoms: C_20  and  O_21
REMARK                            x       y       z     vdW  Elec       q    Type
REMARK                         _______ _______ _______ _____ _____    ______ ____
ROOT
ATOM      1  C   UNL     1       3.117   5.219  18.336  0.00  0.00    +0.000 A 
ATOM      2  C   UNL     1       3.975   5.637  17.313  0.00  0.00    +0.000 A 
ATOM      3  C   UNL     1       4.138   6.986  17.015  0.00  0.00    +0.000 A 
ATOM      4  C   UNL     1       3.445   7.950  17.737  0.00  0.00    +0.000 A 
ATOM      5  C   UNL     1       2.583   7.584  18.769  0.00  0.00    +0.000 A 
ATOM      6  C   UNL     1       2.442   6.215  19.073  0.00  0.00    +0.000 A 
ENDROOT
BRANCH   5   7
ATOM      7  N   UNL     1       1.820   8.522  19.512  0.00  0.00    +0.000 N 
ATOM      8  C   UNL     1       0.957   9.460  18.989  0.00  0.00    +0.000 C 
ATOM      9  O   UNL     1       0.762   9.633  17.788  0.00  0.00    +0.000 OA
ATOM     10  N   UNL     1       0.254  10.210  19.909  0.00  0.00    +0.000 N 
ATOM     11  C   UNL     1       0.519  10.374  21.326  0.00  0.00    +0.000 C 
ATOM     12  C   UNL     1      -0.767  10.977  21.857  0.00  0.00    +0.000 C 
ATOM     13  C   UNL     1      -1.219  11.898  20.733  0.00  0.00    +0.000 C 
ATOM     14  C   UNL     1      -0.679  11.246  19.447  0.00  0.00    +0.000 C 
ATOM     15  H   UNL     1       1.809   8.395  20.510  0.00  0.00    +0.000 HD
BRANCH  14  16
ATOM     16  C   UNL     1      -1.813  10.759  18.525  0.00  0.00    +0.000 C 
BRANCH  16  17
ATOM     17  O   UNL     1      -1.584  11.187  17.181  0.00  0.00    +0.000 OA
ATOM     18  H   UNL     1      -2.024  12.051  17.086  0.00  0.00    +0.000 HD
ENDBRANCH  16  17
ENDBRANCH  14  16
ENDBRANCH   5   7
BRANCH   1  24
ATOM     19  O   UNL     1       5.005   3.143  19.508  0.00  0.00    +0.000 OA
ATOM     20  C   UNL     1       3.874   2.933  19.105  0.00  0.00    +0.000 C 
ATOM     21  C   UNL     1       3.300   1.541  18.999  0.00  0.00    +0.000 C 
ATOM     22  C   UNL     1       1.812   1.784  18.879  0.00  0.00    +0.000 C 
ATOM     23  C   UNL     1       1.726   3.126  18.182  0.00  0.00    +0.000 C 
ATOM     24  N   UNL     1       2.913   3.832  18.602  0.00  0.00    +0.000 N 
ENDBRANCH   1  24
TORSDOF 4
ENDMDL
MODEL 9
REMARK VINA RESULT:      -6.9      1.558      2.095
REMARK  Name = 
REMARK  4 active torsions:
REMARK  status: ('A' for Active; 'I' for Inactive)
REMARK    1  A    between atoms: N_6  and  C_7
REMARK    2  A    between atoms: C_11  and  N_12
REMARK    3  A    between atoms: C_19  and  C_20
REMARK    4  A    between atoms: C_20  and  O_21
REMARK                            x       y       z     vdW  Elec       q    Type
REMARK                         _______ _______ _______ _____ _____    ______ ____
ROOT
ATOM      1  C   UNL     1       4.123   4.973  18.502  0.00  0.00    +0.000 A 
ATOM      2  C   UNL     1       3.668   4.001  19.399  0.00  0.00    +0.000 A 
ATOM      3  C   UNL     1       2.681   4.291  20.336  0.00  0.00    +0.000 A 
ATOM      4  C   UNL     1       2.125   5.563  20.395  0.00  0.00    +0.000 A 
ATOM      5  C   UNL     1       2.541   6.563  19.520  0.00  0.00    +0.000 A 
ATOM      6  C   UNL     1       3.528   6.251  18.562  0.00  0.00    +0.000 A 
ENDROOT
BRANCH   5   7
ATOM      7  N   UNL     1       2.038   7.889  19.561  0.00  0.00    +0.000 N 
ATOM      8  C   UNL     1       1.086   8.367  20.436  0.00  0.00    +0.000 C 
ATOM      9  O   UNL     1       0.514   7.686  21.282  0.00  0.00    +0.000 OA
ATOM     10  N   UNL     1       0.814   9.717  20.348  0.00  0.00    +0.000 N 
ATOM     11  C   UNL     1       1.146  10.635  19.274  0.00  0.00    +0.000 C 
ATOM     12  C   UNL     1       0.938  12.000  19.900  0.00  0.00    +0.000 C 
ATOM     13  C   UNL     1      -0.267  11.796  20.808  0.00  0.00    +0.000 C 
ATOM     14  C   UNL     1      -0.198  10.317  21.229  0.00  0.00    +0.000 C 
ATOM     15  H   UNL     1       2.520   8.566  18.993  0.00  0.00    +0.000 HD
BRANCH  14  16
ATOM     16  C   UNL     1       0.055  10.156  22.740  0.00  0.00    +0.000 C 
BRANCH  16  17
ATOM     17  O   UNL     1      -0.880   9.238  23.309  0.00  0.00    +0.000 OA
ATOM     18  H   UNL     1      -1.626   9.177  22.683  0.00  0.00    +0.000 HD
ENDBRANCH  16  17
ENDBRANCH  14  16
ENDBRANCH   5   7
BRANCH   1  24
ATOM     19  O   UNL     1       7.120   4.718  18.950  0.00  0.00    +0.000 OA
ATOM     20  C   UNL     1       6.549   4.636  17.876  0.00  0.00    +0.000 C 
ATOM     21  C   UNL     1       7.297   4.539  16.569  0.00  0.00    +0.000 C 
ATOM     22  C   UNL     1       6.247   4.042  15.600  0.00  0.00    +0.000 C 
ATOM     23  C   UNL     1       4.956   4.609  16.154  0.00  0.00    +0.000 C 
ATOM     24  N   UNL     1       5.172   4.685  17.579  0.00  0.00    +0.000 N 
ENDBRANCH   1  24
TORSDOF 4
ENDMDL
