MODEL 1
REMARK VINA RESULT:      -6.5      0.000      0.000
REMARK  Name = 
REMARK  8 active torsions:
REMARK  status: ('A' for Active; 'I' for Inactive)
REMARK    1  A    between atoms: C_1  and  C_2
REMARK    2  A    between atoms: C_2  and  N_3
REMARK    3  A    between atoms: N_3  and  C_4
REMARK    4  A    between atoms: C_4  and  C_5
REMARK    5  A    between atoms: C_8  and  C_9
REMARK    6  A    between atoms: N_12  and  C_13
REMARK    7  A    between atoms: N_12  and  C_15
REMARK    8  A    between atoms: C_13  and  C_14
REMARK                            x       y       z     vdW  Elec       q    Type
REMARK                         _______ _______ _______ _____ _____    ______ ____
ROOT
ATOM      1  N   UNL     1      -2.695  10.988  17.790  0.00  0.00    +0.000 N 
ATOM      2  C   UNL     1      -1.698  11.250  18.756  0.00  0.00    +0.000 A 
ATOM      3  C   UNL     1      -1.498  12.562  19.146  0.00  0.00    +0.000 A 
ATOM      4  C   UNL     1      -0.556  12.796  20.116  0.00  0.00    +0.000 A 
ATOM      5  C   UNL     1      -0.256  14.172  20.610  0.00  0.00    +0.000 C 
ATOM      6  N   UNL     1       0.133  11.797  20.682  0.00  0.00    +0.000 NA
ATOM      7  C   UNL     1      -0.075  10.539  20.266  0.00  0.00    +0.000 A 
ATOM      8  N   UNL     1       0.678   9.510  20.837  0.00  0.00    +0.000 N 
ATOM      9  N   UNL     1      -0.967  10.253  19.291  0.00  0.00    +0.000 NA
ENDROOT
BRANCH   8  10
ATOM     10  C   UNL     1       1.278   8.421  20.129  0.00  0.00    +0.000 A 
ATOM     11  C   UNL     1       1.346   7.147  20.740  0.00  0.00    +0.000 A 
ATOM     12  C   UNL     1       2.045   6.076  20.169  0.00  0.00    +0.000 A 
ATOM     13  C   UNL     1       2.671   6.248  18.944  0.00  0.00    +0.000 A 
ATOM     14  I   UNL     1       3.779   4.694  18.120  0.00  0.00    +0.000 I 
ATOM     15  C   UNL     1       2.584   7.465  18.282  0.00  0.00    +0.000 A 
ATOM     16  C   UNL     1       1.902   8.550  18.865  0.00  0.00    +0.000 A 
ATOM     17 BR   UNL     1       2.055  10.188  17.899  0.00  0.00    +0.000 Br
ENDBRANCH   8  10
BRANCH   1  19
ATOM     18  C   UNL     1      -2.710  10.023  15.452  0.00  0.00    +0.000 C 
ATOM     19  C   UNL     1      -2.466   9.819  16.936  0.00  0.00    +0.000 C 
ENDBRANCH   1  19
BRANCH   1  20
ATOM     20  C   UNL     1      -4.042  11.350  18.263  0.00  0.00    +0.000 C 
ATOM     21  C   UNL     1      -5.015  11.791  17.182  0.00  0.00    +0.000 C 
ENDBRANCH   1  20
BRANCH   8  22
ATOM     22  C   UNL     1       1.056   9.553  22.271  0.00  0.00    +0.000 C 
ATOM     23  C   UNL     1      -0.017   9.472  23.345  0.00  0.00    +0.000 C 
ENDBRANCH   8  22
TORSDOF 4
ENDMDL
MODEL 2
REMARK VINA RESULT:      -6.4      4.788      8.193
REMARK  Name = 
REMARK  8 active torsions:
REMARK  status: ('A' for Active; 'I' for Inactive)
REMARK    1  A    between atoms: C_1  and  C_2
REMARK    2  A    between atoms: C_2  and  N_3
REMARK    3  A    between atoms: N_3  and  C_4
REMARK    4  A    between atoms: C_4  and  C_5
REMARK    5  A    between atoms: C_8  and  C_9
REMARK    6  A    between atoms: N_12  and  C_13
REMARK    7  A    between atoms: N_12  and  C_15
REMARK    8  A    between atoms: C_13  and  C_14
REMARK                            x       y       z     vdW  Elec       q    Type
REMARK                         _______ _______ _______ _____ _____    ______ ____
ROOT
ATOM      1  N   UNL     1      -0.840  11.499  18.587  0.00  0.00    +0.000 N 
ATOM      2  C   UNL     1      -2.104  11.343  17.973  0.00  0.00    +0.000 A 
ATOM      3  C   UNL     1      -2.142  10.879  16.670  0.00  0.00    +0.000 A 
ATOM      4  C   UNL     1      -3.377  10.691  16.103  0.00  0.00    +0.000 A 
ATOM      5  C   UNL     1      -3.537  10.199  14.703  0.00  0.00    +0.000 C 
ATOM      6  N   UNL     1      -4.507  10.928  16.784  0.00  0.00    +0.000 NA
ATOM      7  C   UNL     1      -4.430  11.394  18.039  0.00  0.00    +0.000 A 
ATOM      8  N   UNL     1      -5.615  11.673  18.724  0.00  0.00    +0.000 N 
ATOM      9  N   UNL     1      -3.240  11.628  18.637  0.00  0.00    +0.000 NA
ENDROOT
BRANCH   8  10
ATOM     10  C   UNL     1      -5.859  12.824  19.537  0.00  0.00    +0.000 A 
ATOM     11  C   UNL     1      -5.640  12.750  20.933  0.00  0.00    +0.000 A 
ATOM     12  C   UNL     1      -5.994  13.786  21.806  0.00  0.00    +0.000 A 
ATOM     13  C   UNL     1      -6.550  14.948  21.293  0.00  0.00    +0.000 A 
ATOM     14  I   UNL     1      -7.154  16.463  22.580  0.00  0.00    +0.000 I 
ATOM     15  C   UNL     1      -6.732  15.087  19.923  0.00  0.00    +0.000 A 
ATOM     16  C   UNL     1      -6.399  14.038  19.047  0.00  0.00    +0.000 A 
ATOM     17 BR   UNL     1      -6.898  14.339  17.230  0.00  0.00    +0.000 Br
ENDBRANCH   8  10
BRANCH   1  19
ATOM     18  C   UNL     1      -0.421  13.939  19.106  0.00  0.00    +0.000 C 
ATOM     19  C   UNL     1      -0.752  12.545  19.609  0.00  0.00    +0.000 C 
ENDBRANCH   1  19
BRANCH   1  20
ATOM     20  C   UNL     1      -0.121  10.221  18.721  0.00  0.00    +0.000 C 
ATOM     21  C   UNL     1       1.346  10.255  18.328  0.00  0.00    +0.000 C 
ENDBRANCH   1  20
BRANCH   8  22
ATOM     22  C   UNL     1      -6.820  10.830  18.529  0.00  0.00    +0.000 C 
ATOM     23  C   UNL     1      -7.001   9.559  19.344  0.00  0.00    +0.000 C 
ENDBRANCH   8  22
TORSDOF 4
ENDMDL
MODEL 3
REMARK VINA RESULT:      -6.4      3.722      6.013
REMARK  Name = 
REMARK  8 active torsions:
REMARK  status: ('A' for Active; 'I' for Inactive)
REMARK    1  A    between atoms: C_1  and  C_2
REMARK    2  A    between atoms: C_2  and  N_3
REMARK    3  A    between atoms: N_3  and  C_4
REMARK    4  A    between atoms: C_4  and  C_5
REMARK    5  A    between atoms: C_8  and  C_9
REMARK    6  A    between atoms: N_12  and  C_13
REMARK    7  A    between atoms: N_12  and  C_15
REMARK    8  A    between atoms: C_13  and  C_14
REMARK                            x       y       z     vdW  Elec       q    Type
REMARK                         _______ _______ _______ _____ _____    ______ ____
ROOT
ATOM      1  N   UNL     1      -2.748  10.888  17.416  0.00  0.00    +0.000 N 
ATOM      2  C   UNL     1      -1.470  10.868  18.019  0.00  0.00    +0.000 A 
ATOM      3  C   UNL     1      -0.611   9.835  17.690  0.00  0.00    +0.000 A 
ATOM      4  C   UNL     1       0.641   9.852  18.250  0.00  0.00    +0.000 A 
ATOM      5  C   UNL     1       1.647   8.786  17.969  0.00  0.00    +0.000 C 
ATOM      6  N   UNL     1       1.031  10.839  19.069  0.00  0.00    +0.000 NA
ATOM      7  C   UNL     1       0.165  11.814  19.378  0.00  0.00    +0.000 A 
ATOM      8  N   UNL     1       0.571  12.816  20.263  0.00  0.00    +0.000 N 
ATOM      9  N   UNL     1      -1.092  11.830  18.881  0.00  0.00    +0.000 NA
ENDROOT
BRANCH   8  10
ATOM     10  C   UNL     1      -0.213  13.358  21.329  0.00  0.00    +0.000 A 
ATOM     11  C   UNL     1      -0.377  14.760  21.430  0.00  0.00    +0.000 A 
ATOM     12  C   UNL     1      -1.007  15.367  22.524  0.00  0.00    +0.000 A 
ATOM     13  C   UNL     1      -1.524  14.574  23.537  0.00  0.00    +0.000 A 
ATOM     14  I   UNL     1      -2.390  15.460  25.205  0.00  0.00    +0.000 I 
ATOM     15  C   UNL     1      -1.435  13.191  23.453  0.00  0.00    +0.000 A 
ATOM     16  C   UNL     1      -0.781  12.580  22.367  0.00  0.00    +0.000 A 
ATOM     17 BR   UNL     1      -0.592  10.688  22.523  0.00  0.00    +0.000 Br
ENDBRANCH   8  10
BRANCH   1  19
ATOM     18  C   UNL     1      -5.232  11.256  17.720  0.00  0.00    +0.000 C 
ATOM     19  C   UNL     1      -3.815  11.513  18.201  0.00  0.00    +0.000 C 
ENDBRANCH   1  19
BRANCH   1  20
ATOM     20  C   UNL     1      -2.675  11.036  15.953  0.00  0.00    +0.000 C 
ATOM     21  C   UNL     1      -3.113   9.821  15.152  0.00  0.00    +0.000 C 
ENDBRANCH   1  20
BRANCH   8  22
ATOM     22  C   UNL     1       1.970  13.311  20.258  0.00  0.00    +0.000 C 
ATOM     23  C   UNL     1       2.470  14.170  19.106  0.00  0.00    +0.000 C 
ENDBRANCH   8  22
TORSDOF 4
ENDMDL
MODEL 4
REMARK VINA RESULT:      -6.2      2.377      4.632
REMARK  Name = 
REMARK  8 active torsions:
REMARK  status: ('A' for Active; 'I' for Inactive)
REMARK    1  A    between atoms: C_1  and  C_2
REMARK    2  A    between atoms: C_2  and  N_3
REMARK    3  A    between atoms: N_3  and  C_4
REMARK    4  A    between atoms: C_4  and  C_5
REMARK    5  A    between atoms: C_8  and  C_9
REMARK    6  A    between atoms: N_12  and  C_13
REMARK    7  A    between atoms: N_12  and  C_15
REMARK    8  A    between atoms: C_13  and  C_14
REMARK                            x       y       z     vdW  Elec       q    Type
REMARK                         _______ _______ _______ _____ _____    ______ ____
ROOT
ATOM      1  N   UNL     1       1.919  14.836  19.567  0.00  0.00    +0.000 N 
ATOM      2  C   UNL     1       0.762  14.047  19.762  0.00  0.00    +0.000 A 
ATOM      3  C   UNL     1      -0.304  14.611  20.441  0.00  0.00    +0.000 A 
ATOM      4  C   UNL     1      -1.435  13.847  20.585  0.00  0.00    +0.000 A 
ATOM      5  C   UNL     1      -2.642  14.353  21.302  0.00  0.00    +0.000 C 
ATOM      6  N   UNL     1      -1.519  12.612  20.074  0.00  0.00    +0.000 NA
ATOM      7  C   UNL     1      -0.458  12.093  19.438  0.00  0.00    +0.000 A 
ATOM      8  N   UNL     1      -0.545  10.788  18.945  0.00  0.00    +0.000 N 
ATOM      9  N   UNL     1       0.693  12.786  19.295  0.00  0.00    +0.000 NA
ENDROOT
BRANCH   8  10
ATOM     10  C   UNL     1       0.474   9.788  19.040  0.00  0.00    +0.000 A 
ATOM     11  C   UNL     1       1.172   9.392  17.875  0.00  0.00    +0.000 A 
ATOM     12  C   UNL     1       2.076   8.322  17.868  0.00  0.00    +0.000 A 
ATOM     13  C   UNL     1       2.331   7.639  19.046  0.00  0.00    +0.000 A 
ATOM     14  I   UNL     1       3.608   5.999  19.037  0.00  0.00    +0.000 I 
ATOM     15  C   UNL     1       1.710   8.029  20.226  0.00  0.00    +0.000 A 
ATOM     16  C   UNL     1       0.784   9.088  20.231  0.00  0.00    +0.000 A 
ATOM     17 BR   UNL     1      -0.105   9.350  21.899  0.00  0.00    +0.000 Br
ENDBRANCH   8  10
BRANCH   1  19
ATOM     18  C   UNL     1       3.980  14.300  18.204  0.00  0.00    +0.000 C 
ATOM     19  C   UNL     1       3.184  14.104  19.482  0.00  0.00    +0.000 C 
ENDBRANCH   1  19
BRANCH   1  20
ATOM     20  C   UNL     1       1.653  16.024  18.739  0.00  0.00    +0.000 C 
ATOM     21  C   UNL     1       2.144  17.343  19.313  0.00  0.00    +0.000 C 
ENDBRANCH   1  20
BRANCH   8  22
ATOM     22  C   UNL     1      -1.820  10.270  18.390  0.00  0.00    +0.000 C 
ATOM     23  C   UNL     1      -2.234  10.627  16.971  0.00  0.00    +0.000 C 
ENDBRANCH   8  22
TORSDOF 4
ENDMDL
MODEL 5
REMARK VINA RESULT:      -6.2      3.844      6.073
REMARK  Name = 
REMARK  8 active torsions:
REMARK  status: ('A' for Active; 'I' for Inactive)
REMARK    1  A    between atoms: C_1  and  C_2
REMARK    2  A    between atoms: C_2  and  N_3
REMARK    3  A    between atoms: N_3  and  C_4
REMARK    4  A    between atoms: C_4  and  C_5
REMARK    5  A    between atoms: C_8  and  C_9
REMARK    6  A    between atoms: N_12  and  C_13
REMARK    7  A    between atoms: N_12  and  C_15
REMARK    8  A    between atoms: C_13  and  C_14
REMARK                            x       y       z     vdW  Elec       q    Type
REMARK                         _______ _______ _______ _____ _____    ______ ____
ROOT
ATOM      1  N   UNL     1      -2.762  10.961  17.397  0.00  0.00    +0.000 N 
ATOM      2  C   UNL     1      -1.483  10.972  17.998  0.00  0.00    +0.000 A 
ATOM      3  C   UNL     1      -0.632   9.912  17.737  0.00  0.00    +0.000 A 
ATOM      4  C   UNL     1       0.622   9.957  18.293  0.00  0.00    +0.000 A 
ATOM      5  C   UNL     1       1.619   8.867  18.081  0.00  0.00    +0.000 C 
ATOM      6  N   UNL     1       1.021  10.993  19.043  0.00  0.00    +0.000 NA
ATOM      7  C   UNL     1       0.162  11.993  19.289  0.00  0.00    +0.000 A 
ATOM      8  N   UNL     1       0.577  13.048  20.106  0.00  0.00    +0.000 N 
ATOM      9  N   UNL     1      -1.096  11.986  18.795  0.00  0.00    +0.000 NA
ENDROOT
BRANCH   8  10
ATOM     10  C   UNL     1      -0.200  13.665  21.135  0.00  0.00    +0.000 A 
ATOM     11  C   UNL     1      -0.493  12.942  22.315  0.00  0.00    +0.000 A 
ATOM     12  C   UNL     1      -1.366  13.426  23.298  0.00  0.00    +0.000 A 
ATOM     13  C   UNL     1      -1.946  14.675  23.136  0.00  0.00    +0.000 A 
ATOM     14  I   UNL     1      -3.305  15.375  24.544  0.00  0.00    +0.000 I 
ATOM     15  C   UNL     1      -1.644  15.444  22.020  0.00  0.00    +0.000 A 
ATOM     16  C   UNL     1      -0.786  14.949  21.020  0.00  0.00    +0.000 A 
ATOM     17 BR   UNL     1      -0.645  16.064  19.479  0.00  0.00    +0.000 Br
ENDBRANCH   8  10
BRANCH   1  19
ATOM     18  C   UNL     1      -5.135  11.836  17.403  0.00  0.00    +0.000 C 
ATOM     19  C   UNL     1      -3.823  11.644  18.141  0.00  0.00    +0.000 C 
ENDBRANCH   1  19
BRANCH   1  20
ATOM     20  C   UNL     1      -2.690  11.012  15.927  0.00  0.00    +0.000 C 
ATOM     21  C   UNL     1      -3.096   9.735  15.210  0.00  0.00    +0.000 C 
ENDBRANCH   1  20
BRANCH   8  22
ATOM     22  C   UNL     1       1.980  13.531  20.066  0.00  0.00    +0.000 C 
ATOM     23  C   UNL     1       2.531  14.166  18.798  0.00  0.00    +0.000 C 
ENDBRANCH   8  22
TORSDOF 4
ENDMDL
MODEL 6
REMARK VINA RESULT:      -6.1      4.079      6.528
REMARK  Name = 
REMARK  8 active torsions:
REMARK  status: ('A' for Active; 'I' for Inactive)
REMARK    1  A    between atoms: C_1  and  C_2
REMARK    2  A    between atoms: C_2  and  N_3
REMARK    3  A    between atoms: N_3  and  C_4
REMARK    4  A    between atoms: C_4  and  C_5
REMARK    5  A    between atoms: C_8  and  C_9
REMARK    6  A    between atoms: N_12  and  C_13
REMARK    7  A    between atoms: N_12  and  C_15
REMARK    8  A    between atoms: C_13  and  C_14
REMARK                            x       y       z     vdW  Elec       q    Type
REMARK                         _______ _______ _______ _____ _____    ______ ____
ROOT
ATOM      1  N   UNL     1      -3.249  11.041  16.993  0.00  0.00    +0.000 N 
ATOM      2  C   UNL     1      -2.077  11.146  17.776  0.00  0.00    +0.000 A 
ATOM      3  C   UNL     1      -1.122  10.152  17.657  0.00  0.00    +0.000 A 
ATOM      4  C   UNL     1       0.029  10.290  18.391  0.00  0.00    +0.000 A 
ATOM      5  C   UNL     1       1.123   9.276  18.343  0.00  0.00    +0.000 C 
ATOM      6  N   UNL     1       0.236  11.353  19.180  0.00  0.00    +0.000 NA
ATOM      7  C   UNL     1      -0.720  12.287  19.284  0.00  0.00    +0.000 A 
ATOM      8  N   UNL     1      -0.508  13.371  20.140  0.00  0.00    +0.000 N 
ATOM      9  N   UNL     1      -1.887  12.187  18.609  0.00  0.00    +0.000 NA
ENDROOT
BRANCH   8  10
ATOM     10  C   UNL     1      -1.473  13.931  21.035  0.00  0.00    +0.000 A 
ATOM     11  C   UNL     1      -1.981  15.228  20.790  0.00  0.00    +0.000 A 
ATOM     12  C   UNL     1      -2.814  15.894  21.697  0.00  0.00    +0.000 A 
ATOM     13  C   UNL     1      -3.190  15.256  22.869  0.00  0.00    +0.000 A 
ATOM     14  I   UNL     1      -4.360  16.259  24.264  0.00  0.00    +0.000 I 
ATOM     15  C   UNL     1      -2.760  13.961  23.127  0.00  0.00    +0.000 A 
ATOM     16  C   UNL     1      -1.904  13.299  22.227  0.00  0.00    +0.000 A 
ATOM     17 BR   UNL     1      -1.269  11.609  22.842  0.00  0.00    +0.000 Br
ENDBRANCH   8  10
BRANCH   1  19
ATOM     18  C   UNL     1      -5.436  10.684  18.212  0.00  0.00    +0.000 C 
ATOM     19  C   UNL     1      -4.455  11.645  17.564  0.00  0.00    +0.000 C 
ENDBRANCH   1  19
BRANCH   1  20
ATOM     20  C   UNL     1      -2.964  11.095  15.550  0.00  0.00    +0.000 C 
ATOM     21  C   UNL     1      -3.575   9.975  14.723  0.00  0.00    +0.000 C 
ENDBRANCH   1  20
BRANCH   8  22
ATOM     22  C   UNL     1       0.846  13.956  20.301  0.00  0.00    +0.000 C 
ATOM     23  C   UNL     1       1.436  14.826  19.202  0.00  0.00    +0.000 C 
ENDBRANCH   8  22
TORSDOF 4
ENDMDL
MODEL 7
REMARK VINA RESULT:      -5.9      4.498      6.913
REMARK  Name = 
REMARK  8 active torsions:
REMARK  status: ('A' for Active; 'I' for Inactive)
REMARK    1  A    between atoms: C_1  and  C_2
REMARK    2  A    between atoms: C_2  and  N_3
REMARK    3  A    between atoms: N_3  and  C_4
REMARK    4  A    between atoms: C_4  and  C_5
REMARK    5  A    between atoms: C_8  and  C_9
REMARK    6  A    between atoms: N_12  and  C_13
REMARK    7  A    between atoms: N_12  and  C_15
REMARK    8  A    between atoms: C_13  and  C_14
REMARK                            x       y       z     vdW  Elec       q    Type
REMARK                         _______ _______ _______ _____ _____    ______ ____
ROOT
ATOM      1  N   UNL     1      -2.767  11.503  17.956  0.00  0.00    +0.000 N 
ATOM      2  C   UNL     1      -3.766  11.980  18.835  0.00  0.00    +0.000 A 
ATOM      3  C   UNL     1      -5.073  12.003  18.384  0.00  0.00    +0.000 A 
ATOM      4  C   UNL     1      -6.037  12.429  19.262  0.00  0.00    +0.000 A 
ATOM      5  C   UNL     1      -7.479  12.498  18.880  0.00  0.00    +0.000 C 
ATOM      6  N   UNL     1      -5.735  12.791  20.516  0.00  0.00    +0.000 NA
ATOM      7  C   UNL     1      -4.454  12.772  20.912  0.00  0.00    +0.000 A 
ATOM      8  N   UNL     1      -4.147  13.189  22.211  0.00  0.00    +0.000 N 
ATOM      9  N   UNL     1      -3.459  12.393  20.080  0.00  0.00    +0.000 NA
ENDROOT
BRANCH   8  10
ATOM     10  C   UNL     1      -3.049  14.027  22.582  0.00  0.00    +0.000 A 
ATOM     11  C   UNL     1      -3.211  15.432  22.573  0.00  0.00    +0.000 A 
ATOM     12  C   UNL     1      -2.144  16.314  22.783  0.00  0.00    +0.000 A 
ATOM     13  C   UNL     1      -0.882  15.803  23.045  0.00  0.00    +0.000 A 
ATOM     14  I   UNL     1       0.729  17.095  23.281  0.00  0.00    +0.000 I 
ATOM     15  C   UNL     1      -0.687  14.430  23.120  0.00  0.00    +0.000 A 
ATOM     16  C   UNL     1      -1.754  13.543  22.885  0.00  0.00    +0.000 A 
ATOM     17 BR   UNL     1      -1.252  11.703  22.840  0.00  0.00    +0.000 Br
ENDBRANCH   8  10
BRANCH   1  19
ATOM     18  C   UNL     1      -0.372  11.118  18.674  0.00  0.00    +0.000 C 
ATOM     19  C   UNL     1      -1.429  12.070  18.142  0.00  0.00    +0.000 C 
ENDBRANCH   1  19
BRANCH   1  20
ATOM     20  C   UNL     1      -2.966  10.089  17.597  0.00  0.00    +0.000 C 
ATOM     21  C   UNL     1      -2.963   9.789  16.107  0.00  0.00    +0.000 C 
ENDBRANCH   1  20
BRANCH   8  22
ATOM     22  C   UNL     1      -5.070  12.903  23.337  0.00  0.00    +0.000 C 
ATOM     23  C   UNL     1      -4.517  12.447  24.678  0.00  0.00    +0.000 C 
ENDBRANCH   8  22
TORSDOF 4
ENDMDL
MODEL 8
REMARK VINA RESULT:      -5.8      4.822      7.349
REMARK  Name = 
REMARK  8 active torsions:
REMARK  status: ('A' for Active; 'I' for Inactive)
REMARK    1  A    between atoms: C_1  and  C_2
REMARK    2  A    between atoms: C_2  and  N_3
REMARK    3  A    between atoms: N_3  and  C_4
REMARK    4  A    between atoms: C_4  and  C_5
REMARK    5  A    between atoms: C_8  and  C_9
REMARK    6  A    between atoms: N_12  and  C_13
REMARK    7  A    between atoms: N_12  and  C_15
REMARK    8  A    between atoms: C_13  and  C_14
REMARK                            x       y       z     vdW  Elec       q    Type
REMARK                         _______ _______ _______ _____ _____    ______ ____
ROOT
ATOM      1  N   UNL     1      -0.735  10.506  19.003  0.00  0.00    +0.000 N 
ATOM      2  C   UNL     1      -0.779  10.791  20.387  0.00  0.00    +0.000 A 
ATOM      3  C   UNL     1      -0.179   9.897  21.255  0.00  0.00    +0.000 A 
ATOM      4  C   UNL     1      -0.192  10.209  22.591  0.00  0.00    +0.000 A 
ATOM      5  C   UNL     1       0.421   9.315  23.617  0.00  0.00    +0.000 C 
ATOM      6  N   UNL     1      -0.746  11.342  23.043  0.00  0.00    +0.000 NA
ATOM      7  C   UNL     1      -1.334  12.176  22.172  0.00  0.00    +0.000 A 
ATOM      8  N   UNL     1      -1.942  13.336  22.661  0.00  0.00    +0.000 N 
ATOM      9  N   UNL     1      -1.379  11.904  20.849  0.00  0.00    +0.000 NA
ENDROOT
BRANCH   8  10
ATOM     10  C   UNL     1      -3.209  13.854  22.246  0.00  0.00    +0.000 A 
ATOM     11  C   UNL     1      -3.271  14.744  21.148  0.00  0.00    +0.000 A 
ATOM     12  C   UNL     1      -4.451  15.401  20.778  0.00  0.00    +0.000 A 
ATOM     13  C   UNL     1      -5.617  15.153  21.486  0.00  0.00    +0.000 A 
ATOM     14  I   UNL     1      -7.359  16.179  21.002  0.00  0.00    +0.000 I 
ATOM     15  C   UNL     1      -5.616  14.245  22.536  0.00  0.00    +0.000 A 
ATOM     16  C   UNL     1      -4.426  13.602  22.924  0.00  0.00    +0.000 A 
ATOM     17 BR   UNL     1      -4.581  12.542  24.502  0.00  0.00    +0.000 Br
ENDBRANCH   8  10
BRANCH   1  19
ATOM     18  C   UNL     1      -2.669   9.980  17.460  0.00  0.00    +0.000 C 
ATOM     19  C   UNL     1      -1.854  11.019  18.209  0.00  0.00    +0.000 C 
ENDBRANCH   1  19
BRANCH   1  20
ATOM     20  C   UNL     1       0.641  10.484  18.479  0.00  0.00    +0.000 C 
ATOM     21  C   UNL     1       1.090   9.162  17.880  0.00  0.00    +0.000 C 
ENDBRANCH   1  20
BRANCH   8  22
ATOM     22  C   UNL     1      -1.359  14.070  23.811  0.00  0.00    +0.000 C 
ATOM     23  C   UNL     1      -0.892  15.508  23.639  0.00  0.00    +0.000 C 
ENDBRANCH   8  22
TORSDOF 4
ENDMDL
MODEL 9
REMARK VINA RESULT:      -5.8      4.623      6.861
REMARK  Name = 
REMARK  8 active torsions:
REMARK  status: ('A' for Active; 'I' for Inactive)
REMARK    1  A    between atoms: C_1  and  C_2
REMARK    2  A    between atoms: C_2  and  N_3
REMARK    3  A    between atoms: N_3  and  C_4
REMARK    4  A    between atoms: C_4  and  C_5
REMARK    5  A    between atoms: C_8  and  C_9
REMARK    6  A    between atoms: N_12  and  C_13
REMARK    7  A    between atoms: N_12  and  C_15
REMARK    8  A    between atoms: C_13  and  C_14
REMARK                            x       y       z     vdW  Elec       q    Type
REMARK                         _______ _______ _______ _____ _____    ______ ____
ROOT
ATOM      1  N   UNL     1      -3.424  10.860  17.482  0.00  0.00    +0.000 N 
ATOM      2  C   UNL     1      -2.505  11.123  18.524  0.00  0.00    +0.000 A 
ATOM      3  C   UNL     1      -1.349  10.365  18.579  0.00  0.00    +0.000 A 
ATOM      4  C   UNL     1      -0.447  10.660  19.570  0.00  0.00    +0.000 A 
ATOM      5  C   UNL     1       0.831   9.904  19.725  0.00  0.00    +0.000 C 
ATOM      6  N   UNL     1      -0.661  11.654  20.442  0.00  0.00    +0.000 NA
ATOM      7  C   UNL     1      -1.801  12.355  20.368  0.00  0.00    +0.000 A 
ATOM      8  N   UNL     1      -2.030  13.364  21.308  0.00  0.00    +0.000 N 
ATOM      9  N   UNL     1      -2.740  12.088  19.433  0.00  0.00    +0.000 NA
ENDROOT
BRANCH   8  10
ATOM     10  C   UNL     1      -3.267  13.616  21.980  0.00  0.00    +0.000 A 
ATOM     11  C   UNL     1      -3.789  12.644  22.865  0.00  0.00    +0.000 A 
ATOM     12  C   UNL     1      -5.059  12.758  23.444  0.00  0.00    +0.000 A 
ATOM     13  C   UNL     1      -5.832  13.877  23.174  0.00  0.00    +0.000 A 
ATOM     14  I   UNL     1      -7.750  14.026  23.959  0.00  0.00    +0.000 I 
ATOM     15  C   UNL     1      -5.337  14.883  22.354  0.00  0.00    +0.000 A 
ATOM     16  C   UNL     1      -4.071  14.760  21.753  0.00  0.00    +0.000 A 
ATOM     17 BR   UNL     1      -3.648  16.146  20.513  0.00  0.00    +0.000 Br
ENDBRANCH   8  10
BRANCH   1  19
ATOM     18  C   UNL     1      -5.467  12.270  16.998  0.00  0.00    +0.000 C 
ATOM     19  C   UNL     1      -4.829  11.140  17.786  0.00  0.00    +0.000 C 
ENDBRANCH   1  19
BRANCH   1  20
ATOM     20  C   UNL     1      -2.851  11.122  16.151  0.00  0.00    +0.000 C 
ATOM     21  C   UNL     1      -3.088  10.037  15.115  0.00  0.00    +0.000 C 
ENDBRANCH   1  20
BRANCH   8  22
ATOM     22  C   UNL     1      -0.911  14.196  21.815  0.00  0.00    +0.000 C 
ATOM     23  C   UNL     1      -0.093  15.042  20.852  0.00  0.00    +0.000 C 
ENDBRANCH   8  22
TORSDOF 4
ENDMDL
