MODEL 1
REMARK VINA RESULT:      -8.0      0.000      0.000
REMARK  Name = 
REMARK  8 active torsions:
REMARK  status: ('A' for Active; 'I' for Inactive)
REMARK    1  A    between atoms: C_1  and  N_2
REMARK    2  A    between atoms: N_2  and  C_3
REMARK    3  A    between atoms: C_3  and  C_4
REMARK    4  A    between atoms: N_8  and  C_9
REMARK    5  A    between atoms: C_10  and  C_12
REMARK    6  A    between atoms: C_14  and  C_15
REMARK    7  A    between atoms: C_15  and  O_16
REMARK    8  A    between atoms: O_16  and  C_17
REMARK                            x       y       z     vdW  Elec       q    Type
REMARK                         _______ _______ _______ _____ _____    ______ ____
ROOT
ATOM      1  C   UNL     1       7.366   6.513  17.747  0.00  0.00    +0.000 A 
ATOM      2  C   UNL     1       7.438   7.848  17.260  0.00  0.00    +0.000 A 
ATOM      3  C   UNL     1       8.238   8.525  18.154  0.00  0.00    +0.000 A 
ATOM      4  N   UNL     1       8.563   7.619  19.117  0.00  0.00    +0.000 N 
ATOM      5  N   UNL     1       8.108   6.391  18.865  0.00  0.00    +0.000 NA
ATOM      6  H   UNL     1       9.119   7.759  19.954  0.00  0.00    +0.000 HD
ENDROOT
BRANCH   1   9
ATOM      7  C   UNL     1       4.459   6.295  17.853  0.00  0.00    +0.000 C 
ATOM      8  N   UNL     1       5.292   5.249  17.265  0.00  0.00    +0.000 N 
ATOM      9  C   UNL     1       6.678   5.366  17.107  0.00  0.00    +0.000 C 
ATOM     10  O   UNL     1       7.324   4.525  16.477  0.00  0.00    +0.000 OA
BRANCH   8  11
ATOM     11  C   UNL     1       4.650   3.973  16.989  0.00  0.00    +0.000 C 
BRANCH  11  12
ATOM     12  C   UNL     1       4.163   3.363  18.259  0.00  0.00    +0.000 A 
ATOM     13  N   UNL     1       4.915   2.866  19.225  0.00  0.00    +0.000 NA
ATOM     14  N   UNL     1       4.089   2.393  20.215  0.00  0.00    +0.000 NA
ATOM     15  C   UNL     1       2.852   2.609  19.836  0.00  0.00    +0.000 A 
ATOM     16  N   UNL     1       2.848   3.219  18.619  0.00  0.00    +0.000 N 
ATOM     17  C   UNL     1       1.684   3.630  17.884  0.00  0.00    +0.000 C 
ENDBRANCH  11  12
ENDBRANCH   8  11
ENDBRANCH   1   9
BRANCH   3  18
ATOM     18  C   UNL     1       8.763   9.906  18.192  0.00  0.00    +0.000 C 
BRANCH  18  19
ATOM     19  O   UNL     1       9.608   9.991  19.334  0.00  0.00    +0.000 OA
BRANCH  19  20
ATOM     20  C   UNL     1      10.083  11.245  19.626  0.00  0.00    +0.000 A 
ATOM     21  C   UNL     1       9.522  11.831  20.766  0.00  0.00    +0.000 A 
ATOM     22  C   UNL     1       9.916  13.107  21.176  0.00  0.00    +0.000 A 
ATOM     23  C   UNL     1      10.875  13.809  20.446  0.00  0.00    +0.000 A 
ATOM     24  C   UNL     1      11.438  13.241  19.314  0.00  0.00    +0.000 A 
ATOM     25  C   UNL     1      11.044  11.965  18.910  0.00  0.00    +0.000 A 
ATOM     26  F   UNL     1      11.629  11.462  17.812  0.00  0.00    +0.000 F 
ENDBRANCH  19  20
ENDBRANCH  18  19
ENDBRANCH   3  18
TORSDOF 6
ENDMDL
MODEL 2
REMARK VINA RESULT:      -7.9      0.821      1.361
REMARK  Name = 
REMARK  8 active torsions:
REMARK  status: ('A' for Active; 'I' for Inactive)
REMARK    1  A    between atoms: C_1  and  N_2
REMARK    2  A    between atoms: N_2  and  C_3
REMARK    3  A    between atoms: C_3  and  C_4
REMARK    4  A    between atoms: N_8  and  C_9
REMARK    5  A    between atoms: C_10  and  C_12
REMARK    6  A    between atoms: C_14  and  C_15
REMARK    7  A    between atoms: C_15  and  O_16
REMARK    8  A    between atoms: O_16  and  C_17
REMARK                            x       y       z     vdW  Elec       q    Type
REMARK                         _______ _______ _______ _____ _____    ______ ____
ROOT
ATOM      1  C   UNL     1       7.104   6.154  17.636  0.00  0.00    +0.000 A 
ATOM      2  C   UNL     1       7.146   7.508  17.202  0.00  0.00    +0.000 A 
ATOM      3  C   UNL     1       7.984   8.153  18.084  0.00  0.00    +0.000 A 
ATOM      4  N   UNL     1       8.359   7.211  18.992  0.00  0.00    +0.000 N 
ATOM      5  N   UNL     1       7.899   5.991  18.712  0.00  0.00    +0.000 NA
ATOM      6  H   UNL     1       8.955   7.322  19.806  0.00  0.00    +0.000 HD
ENDROOT
BRANCH   1   9
ATOM      7  C   UNL     1       4.287   5.662  18.215  0.00  0.00    +0.000 C 
ATOM      8  N   UNL     1       5.069   4.770  17.362  0.00  0.00    +0.000 N 
ATOM      9  C   UNL     1       6.391   5.029  16.984  0.00  0.00    +0.000 C 
ATOM     10  O   UNL     1       6.969   4.327  16.148  0.00  0.00    +0.000 OA
BRANCH   8  11
ATOM     11  C   UNL     1       4.478   3.480  17.040  0.00  0.00    +0.000 C 
BRANCH  11  12
ATOM     12  C   UNL     1       3.209   3.297  17.802  0.00  0.00    +0.000 A 
ATOM     13  N   UNL     1       1.995   3.605  17.382  0.00  0.00    +0.000 NA
ATOM     14  N   UNL     1       1.102   3.293  18.379  0.00  0.00    +0.000 NA
ATOM     15  C   UNL     1       1.786   2.802  19.385  0.00  0.00    +0.000 A 
ATOM     16  N   UNL     1       3.110   2.780  19.068  0.00  0.00    +0.000 N 
ATOM     17  C   UNL     1       4.171   2.296  19.908  0.00  0.00    +0.000 C 
ENDBRANCH  11  12
ENDBRANCH   8  11
ENDBRANCH   1   9
BRANCH   3  18
ATOM     18  C   UNL     1       8.503   9.536  18.153  0.00  0.00    +0.000 C 
BRANCH  18  19
ATOM     19  O   UNL     1       9.236   9.637  19.369  0.00  0.00    +0.000 OA
BRANCH  19  20
ATOM     20  C   UNL     1       9.671  10.897  19.694  0.00  0.00    +0.000 A 
ATOM     21  C   UNL     1       9.221  11.368  20.932  0.00  0.00    +0.000 A 
ATOM     22  C   UNL     1       9.589  12.638  21.385  0.00  0.00    +0.000 A 
ATOM     23  C   UNL     1      10.411  13.447  20.601  0.00  0.00    +0.000 A 
ATOM     24  C   UNL     1      10.863  12.993  19.372  0.00  0.00    +0.000 A 
ATOM     25  C   UNL     1      10.496  11.723  18.925  0.00  0.00    +0.000 A 
ATOM     26  F   UNL     1      10.970  11.333  17.732  0.00  0.00    +0.000 F 
ENDBRANCH  19  20
ENDBRANCH  18  19
ENDBRANCH   3  18
TORSDOF 6
ENDMDL
MODEL 3
REMARK VINA RESULT:      -7.8      1.265      1.923
REMARK  Name = 
REMARK  8 active torsions:
REMARK  status: ('A' for Active; 'I' for Inactive)
REMARK    1  A    between atoms: C_1  and  N_2
REMARK    2  A    between atoms: N_2  and  C_3
REMARK    3  A    between atoms: C_3  and  C_4
REMARK    4  A    between atoms: N_8  and  C_9
REMARK    5  A    between atoms: C_10  and  C_12
REMARK    6  A    between atoms: C_14  and  C_15
REMARK    7  A    between atoms: C_15  and  O_16
REMARK    8  A    between atoms: O_16  and  C_17
REMARK                            x       y       z     vdW  Elec       q    Type
REMARK                         _______ _______ _______ _____ _____    ______ ____
ROOT
ATOM      1  C   UNL     1       7.071   6.075  17.560  0.00  0.00    +0.000 A 
ATOM      2  C   UNL     1       7.122   7.424  17.110  0.00  0.00    +0.000 A 
ATOM      3  C   UNL     1       7.964   8.074  17.985  0.00  0.00    +0.000 A 
ATOM      4  N   UNL     1       8.332   7.140  18.904  0.00  0.00    +0.000 N 
ATOM      5  N   UNL     1       7.864   5.920  18.638  0.00  0.00    +0.000 NA
ATOM      6  H   UNL     1       8.928   7.256  19.718  0.00  0.00    +0.000 HD
ENDROOT
BRANCH   1   9
ATOM      7  C   UNL     1       4.201   5.742  17.961  0.00  0.00    +0.000 C 
ATOM      8  N   UNL     1       4.996   4.769  17.216  0.00  0.00    +0.000 N 
ATOM      9  C   UNL     1       6.352   4.948  16.920  0.00  0.00    +0.000 C 
ATOM     10  O   UNL     1       6.951   4.174  16.167  0.00  0.00    +0.000 OA
BRANCH   8  11
ATOM     11  C   UNL     1       4.367   3.490  16.922  0.00  0.00    +0.000 C 
BRANCH  11  12
ATOM     12  C   UNL     1       3.176   3.296  17.798  0.00  0.00    +0.000 A 
ATOM     13  N   UNL     1       1.919   3.537  17.471  0.00  0.00    +0.000 NA
ATOM     14  N   UNL     1       1.127   3.240  18.553  0.00  0.00    +0.000 NA
ATOM     15  C   UNL     1       1.912   2.824  19.518  0.00  0.00    +0.000 A 
ATOM     16  N   UNL     1       3.204   2.837  19.090  0.00  0.00    +0.000 N 
ATOM     17  C   UNL     1       4.352   2.435  19.856  0.00  0.00    +0.000 C 
ENDBRANCH  11  12
ENDBRANCH   8  11
ENDBRANCH   1   9
BRANCH   3  18
ATOM     18  C   UNL     1       8.492   9.454  18.039  0.00  0.00    +0.000 C 
BRANCH  18  19
ATOM     19  O   UNL     1       9.030   9.635  19.344  0.00  0.00    +0.000 OA
BRANCH  19  20
ATOM     20  C   UNL     1       9.679  10.825  19.556  0.00  0.00    +0.000 A 
ATOM     21  C   UNL     1      10.420  11.288  18.463  0.00  0.00    +0.000 A 
ATOM     22  C   UNL     1      11.131  12.489  18.544  0.00  0.00    +0.000 A 
ATOM     23  C   UNL     1      11.104  13.236  19.721  0.00  0.00    +0.000 A 
ATOM     24  C   UNL     1      10.374  12.789  20.811  0.00  0.00    +0.000 A 
ATOM     25  C   UNL     1       9.664  11.592  20.725  0.00  0.00    +0.000 A 
ATOM     26  F   UNL     1       8.968  11.212  21.808  0.00  0.00    +0.000 F 
ENDBRANCH  19  20
ENDBRANCH  18  19
ENDBRANCH   3  18
TORSDOF 6
ENDMDL
MODEL 4
REMARK VINA RESULT:      -7.8      0.990      1.370
REMARK  Name = 
REMARK  8 active torsions:
REMARK  status: ('A' for Active; 'I' for Inactive)
REMARK    1  A    between atoms: C_1  and  N_2
REMARK    2  A    between atoms: N_2  and  C_3
REMARK    3  A    between atoms: C_3  and  C_4
REMARK    4  A    between atoms: N_8  and  C_9
REMARK    5  A    between atoms: C_10  and  C_12
REMARK    6  A    between atoms: C_14  and  C_15
REMARK    7  A    between atoms: C_15  and  O_16
REMARK    8  A    between atoms: O_16  and  C_17
REMARK                            x       y       z     vdW  Elec       q    Type
REMARK                         _______ _______ _______ _____ _____    ______ ____
ROOT
ATOM      1  C   UNL     1       7.401   6.603  17.737  0.00  0.00    +0.000 A 
ATOM      2  C   UNL     1       7.474   7.939  17.253  0.00  0.00    +0.000 A 
ATOM      3  C   UNL     1       8.270   8.615  18.151  0.00  0.00    +0.000 A 
ATOM      4  N   UNL     1       8.591   7.708  19.115  0.00  0.00    +0.000 N 
ATOM      5  N   UNL     1       8.138   6.480  18.859  0.00  0.00    +0.000 NA
ATOM      6  H   UNL     1       9.143   7.848  19.954  0.00  0.00    +0.000 HD
ENDROOT
BRANCH   1   9
ATOM      7  C   UNL     1       4.491   6.402  17.800  0.00  0.00    +0.000 C 
ATOM      8  N   UNL     1       5.328   5.348  17.229  0.00  0.00    +0.000 N 
ATOM      9  C   UNL     1       6.716   5.457  17.093  0.00  0.00    +0.000 C 
ATOM     10  O   UNL     1       7.368   4.609  16.477  0.00  0.00    +0.000 OA
BRANCH   8  11
ATOM     11  C   UNL     1       4.683   4.074  16.950  0.00  0.00    +0.000 C 
BRANCH  11  12
ATOM     12  C   UNL     1       4.330   3.391  18.228  0.00  0.00    +0.000 A 
ATOM     13  N   UNL     1       5.174   3.020  19.174  0.00  0.00    +0.000 NA
ATOM     14  N   UNL     1       4.457   2.419  20.180  0.00  0.00    +0.000 NA
ATOM     15  C   UNL     1       3.193   2.435  19.830  0.00  0.00    +0.000 A 
ATOM     16  N   UNL     1       3.063   3.038  18.617  0.00  0.00    +0.000 N 
ATOM     17  C   UNL     1       1.831   3.259  17.910  0.00  0.00    +0.000 C 
ENDBRANCH  11  12
ENDBRANCH   8  11
ENDBRANCH   1   9
BRANCH   3  18
ATOM     18  C   UNL     1       8.793   9.997  18.194  0.00  0.00    +0.000 C 
BRANCH  18  19
ATOM     19  O   UNL     1       9.485  10.134  19.430  0.00  0.00    +0.000 OA
BRANCH  19  20
ATOM     20  C   UNL     1      10.125  11.333  19.619  0.00  0.00    +0.000 A 
ATOM     21  C   UNL     1      11.236  11.538  18.794  0.00  0.00    +0.000 A 
ATOM     22  C   UNL     1      11.980  12.717  18.884  0.00  0.00    +0.000 A 
ATOM     23  C   UNL     1      11.616  13.703  19.801  0.00  0.00    +0.000 A 
ATOM     24  C   UNL     1      10.518  13.513  20.624  0.00  0.00    +0.000 A 
ATOM     25  C   UNL     1       9.776  12.335  20.530  0.00  0.00    +0.000 A 
ATOM     26  F   UNL     1       8.719  12.209  21.346  0.00  0.00    +0.000 F 
ENDBRANCH  19  20
ENDBRANCH  18  19
ENDBRANCH   3  18
TORSDOF 6
ENDMDL
MODEL 5
REMARK VINA RESULT:      -7.7      1.534      1.911
REMARK  Name = 
REMARK  8 active torsions:
REMARK  status: ('A' for Active; 'I' for Inactive)
REMARK    1  A    between atoms: C_1  and  N_2
REMARK    2  A    between atoms: N_2  and  C_3
REMARK    3  A    between atoms: C_3  and  C_4
REMARK    4  A    between atoms: N_8  and  C_9
REMARK    5  A    between atoms: C_10  and  C_12
REMARK    6  A    between atoms: C_14  and  C_15
REMARK    7  A    between atoms: C_15  and  O_16
REMARK    8  A    between atoms: O_16  and  C_17
REMARK                            x       y       z     vdW  Elec       q    Type
REMARK                         _______ _______ _______ _____ _____    ______ ____
ROOT
ATOM      1  C   UNL     1       6.533   6.076  17.202  0.00  0.00    +0.000 A 
ATOM      2  C   UNL     1       7.480   6.281  18.244  0.00  0.00    +0.000 A 
ATOM      3  C   UNL     1       7.908   7.583  18.104  0.00  0.00    +0.000 A 
ATOM      4  N   UNL     1       7.261   8.068  17.009  0.00  0.00    +0.000 N 
ATOM      5  N   UNL     1       6.384   7.209  16.488  0.00  0.00    +0.000 NA
ATOM      6  H   UNL     1       7.342   8.985  16.584  0.00  0.00    +0.000 HD
ENDROOT
BRANCH   1   9
ATOM      7  C   UNL     1       3.785   5.902  18.164  0.00  0.00    +0.000 C 
ATOM      8  N   UNL     1       4.451   4.775  17.515  0.00  0.00    +0.000 N 
ATOM      9  C   UNL     1       5.730   4.856  16.954  0.00  0.00    +0.000 C 
ATOM     10  O   UNL     1       6.198   3.926  16.289  0.00  0.00    +0.000 OA
BRANCH   8  11
ATOM     11  C   UNL     1       3.799   3.477  17.616  0.00  0.00    +0.000 C 
BRANCH  11  12
ATOM     12  C   UNL     1       3.819   3.007  19.031  0.00  0.00    +0.000 A 
ATOM     13  N   UNL     1       4.878   2.587  19.699  0.00  0.00    +0.000 NA
ATOM     14  N   UNL     1       4.478   2.234  20.965  0.00  0.00    +0.000 NA
ATOM     15  C   UNL     1       3.186   2.445  21.045  0.00  0.00    +0.000 A 
ATOM     16  N   UNL     1       2.729   2.934  19.860  0.00  0.00    +0.000 N 
ATOM     17  C   UNL     1       1.372   3.302  19.565  0.00  0.00    +0.000 C 
ENDBRANCH  11  12
ENDBRANCH   8  11
ENDBRANCH   1   9
BRANCH   3  18
ATOM     18  C   UNL     1       8.821   8.435  18.896  0.00  0.00    +0.000 C 
BRANCH  18  19
ATOM     19  O   UNL     1       8.565   9.780  18.507  0.00  0.00    +0.000 OA
BRANCH  19  20
ATOM     20  C   UNL     1       9.508  10.697  18.899  0.00  0.00    +0.000 A 
ATOM     21  C   UNL     1      10.255  11.248  17.853  0.00  0.00    +0.000 A 
ATOM     22  C   UNL     1      11.249  12.196  18.113  0.00  0.00    +0.000 A 
ATOM     23  C   UNL     1      11.504  12.597  19.424  0.00  0.00    +0.000 A 
ATOM     24  C   UNL     1      10.771  12.059  20.469  0.00  0.00    +0.000 A 
ATOM     25  C   UNL     1       9.777  11.116  20.206  0.00  0.00    +0.000 A 
ATOM     26  F   UNL     1       9.094  10.635  21.255  0.00  0.00    +0.000 F 
ENDBRANCH  19  20
ENDBRANCH  18  19
ENDBRANCH   3  18
TORSDOF 6
ENDMDL
MODEL 6
REMARK VINA RESULT:      -7.6      1.194      1.314
REMARK  Name = 
REMARK  8 active torsions:
REMARK  status: ('A' for Active; 'I' for Inactive)
REMARK    1  A    between atoms: C_1  and  N_2
REMARK    2  A    between atoms: N_2  and  C_3
REMARK    3  A    between atoms: C_3  and  C_4
REMARK    4  A    between atoms: N_8  and  C_9
REMARK    5  A    between atoms: C_10  and  C_12
REMARK    6  A    between atoms: C_14  and  C_15
REMARK    7  A    between atoms: C_15  and  O_16
REMARK    8  A    between atoms: O_16  and  C_17
REMARK                            x       y       z     vdW  Elec       q    Type
REMARK                         _______ _______ _______ _____ _____    ______ ____
ROOT
ATOM      1  C   UNL     1       6.633   6.074  17.231  0.00  0.00    +0.000 A 
ATOM      2  C   UNL     1       7.543   6.296  18.301  0.00  0.00    +0.000 A 
ATOM      3  C   UNL     1       7.938   7.611  18.184  0.00  0.00    +0.000 A 
ATOM      4  N   UNL     1       7.309   8.087  17.075  0.00  0.00    +0.000 N 
ATOM      5  N   UNL     1       6.472   7.209  16.522  0.00  0.00    +0.000 NA
ATOM      6  H   UNL     1       7.376   9.010  16.659  0.00  0.00    +0.000 HD
ENDROOT
BRANCH   1   9
ATOM      7  C   UNL     1       3.861   5.818  18.104  0.00  0.00    +0.000 C 
ATOM      8  N   UNL     1       4.578   4.714  17.470  0.00  0.00    +0.000 N 
ATOM      9  C   UNL     1       5.872   4.834  16.950  0.00  0.00    +0.000 C 
ATOM     10  O   UNL     1       6.386   3.922  16.296  0.00  0.00    +0.000 OA
BRANCH   8  11
ATOM     11  C   UNL     1       3.959   3.399  17.543  0.00  0.00    +0.000 C 
BRANCH  11  12
ATOM     12  C   UNL     1       3.787   2.995  18.968  0.00  0.00    +0.000 A 
ATOM     13  N   UNL     1       4.748   2.629  19.797  0.00  0.00    +0.000 NA
ATOM     14  N   UNL     1       4.179   2.328  21.010  0.00  0.00    +0.000 NA
ATOM     15  C   UNL     1       2.886   2.516  20.900  0.00  0.00    +0.000 A 
ATOM     16  N   UNL     1       2.594   2.939  19.640  0.00  0.00    +0.000 N 
ATOM     17  C   UNL     1       1.286   3.265  19.141  0.00  0.00    +0.000 C 
ENDBRANCH  11  12
ENDBRANCH   8  11
ENDBRANCH   1   9
BRANCH   3  18
ATOM     18  C   UNL     1       8.804   8.481  19.008  0.00  0.00    +0.000 C 
BRANCH  18  19
ATOM     19  O   UNL     1       8.670   9.800  18.490  0.00  0.00    +0.000 OA
BRANCH  19  20
ATOM     20  C   UNL     1       9.511  10.737  19.036  0.00  0.00    +0.000 A 
ATOM     21  C   UNL     1       9.303  10.984  20.397  0.00  0.00    +0.000 A 
ATOM     22  C   UNL     1      10.090  11.917  21.078  0.00  0.00    +0.000 A 
ATOM     23  C   UNL     1      11.092  12.611  20.399  0.00  0.00    +0.000 A 
ATOM     24  C   UNL     1      11.308  12.375  19.051  0.00  0.00    +0.000 A 
ATOM     25  C   UNL     1      10.522  11.441  18.376  0.00  0.00    +0.000 A 
ATOM     26  F   UNL     1      10.782  11.248  17.074  0.00  0.00    +0.000 F 
ENDBRANCH  19  20
ENDBRANCH  18  19
ENDBRANCH   3  18
TORSDOF 6
ENDMDL
MODEL 7
REMARK VINA RESULT:      -7.6      1.384      1.762
REMARK  Name = 
REMARK  8 active torsions:
REMARK  status: ('A' for Active; 'I' for Inactive)
REMARK    1  A    between atoms: C_1  and  N_2
REMARK    2  A    between atoms: N_2  and  C_3
REMARK    3  A    between atoms: C_3  and  C_4
REMARK    4  A    between atoms: N_8  and  C_9
REMARK    5  A    between atoms: C_10  and  C_12
REMARK    6  A    between atoms: C_14  and  C_15
REMARK    7  A    between atoms: C_15  and  O_16
REMARK    8  A    between atoms: O_16  and  C_17
REMARK                            x       y       z     vdW  Elec       q    Type
REMARK                         _______ _______ _______ _____ _____    ______ ____
ROOT
ATOM      1  C   UNL     1       6.833   5.991  17.957  0.00  0.00    +0.000 A 
ATOM      2  C   UNL     1       6.813   7.322  17.455  0.00  0.00    +0.000 A 
ATOM      3  C   UNL     1       7.827   7.981  18.114  0.00  0.00    +0.000 A 
ATOM      4  N   UNL     1       8.360   7.070  18.974  0.00  0.00    +0.000 N 
ATOM      5  N   UNL     1       7.828   5.853  18.856  0.00  0.00    +0.000 NA
ATOM      6  H   UNL     1       9.112   7.200  19.644  0.00  0.00    +0.000 HD
ENDROOT
BRANCH   1   9
ATOM      7  C   UNL     1       4.397   5.335  19.422  0.00  0.00    +0.000 C 
ATOM      8  N   UNL     1       4.873   4.519  18.307  0.00  0.00    +0.000 N 
ATOM      9  C   UNL     1       5.979   4.860  17.521  0.00  0.00    +0.000 C 
ATOM     10  O   UNL     1       6.262   4.223  16.502  0.00  0.00    +0.000 OA
BRANCH   8  11
ATOM     11  C   UNL     1       4.251   3.216  18.132  0.00  0.00    +0.000 C 
BRANCH  11  12
ATOM     12  C   UNL     1       3.091   3.076  19.059  0.00  0.00    +0.000 A 
ATOM     13  N   UNL     1       3.109   2.507  20.250  0.00  0.00    +0.000 NA
ATOM     14  N   UNL     1       1.842   2.573  20.779  0.00  0.00    +0.000 NA
ATOM     15  C   UNL     1       1.078   3.181  19.903  0.00  0.00    +0.000 A 
ATOM     16  N   UNL     1       1.817   3.519  18.811  0.00  0.00    +0.000 N 
ATOM     17  C   UNL     1       1.336   4.212  17.648  0.00  0.00    +0.000 C 
ENDBRANCH  11  12
ENDBRANCH   8  11
ENDBRANCH   1   9
BRANCH   3  18
ATOM     18  C   UNL     1       8.378   9.348  18.006  0.00  0.00    +0.000 C 
BRANCH  18  19
ATOM     19  O   UNL     1       9.287   9.510  19.089  0.00  0.00    +0.000 OA
BRANCH  19  20
ATOM     20  C   UNL     1       9.755  10.785  19.282  0.00  0.00    +0.000 A 
ATOM     21  C   UNL     1      10.422  11.335  18.182  0.00  0.00    +0.000 A 
ATOM     22  C   UNL     1      10.950  12.627  18.244  0.00  0.00    +0.000 A 
ATOM     23  C   UNL     1      10.815  13.380  19.410  0.00  0.00    +0.000 A 
ATOM     24  C   UNL     1      10.157  12.848  20.508  0.00  0.00    +0.000 A 
ATOM     25  C   UNL     1       9.629  11.558  20.441  0.00  0.00    +0.000 A 
ATOM     26  F   UNL     1       8.995  11.098  21.530  0.00  0.00    +0.000 F 
ENDBRANCH  19  20
ENDBRANCH  18  19
ENDBRANCH   3  18
TORSDOF 6
ENDMDL
MODEL 8
REMARK VINA RESULT:      -7.6      1.745      2.291
REMARK  Name = 
REMARK  8 active torsions:
REMARK  status: ('A' for Active; 'I' for Inactive)
REMARK    1  A    between atoms: C_1  and  N_2
REMARK    2  A    between atoms: N_2  and  C_3
REMARK    3  A    between atoms: C_3  and  C_4
REMARK    4  A    between atoms: N_8  and  C_9
REMARK    5  A    between atoms: C_10  and  C_12
REMARK    6  A    between atoms: C_14  and  C_15
REMARK    7  A    between atoms: C_15  and  O_16
REMARK    8  A    between atoms: O_16  and  C_17
REMARK                            x       y       z     vdW  Elec       q    Type
REMARK                         _______ _______ _______ _____ _____    ______ ____
ROOT
ATOM      1  C   UNL     1       6.000   5.677  17.464  0.00  0.00    +0.000 A 
ATOM      2  C   UNL     1       7.202   6.048  18.128  0.00  0.00    +0.000 A 
ATOM      3  C   UNL     1       7.418   7.366  17.794  0.00  0.00    +0.000 A 
ATOM      4  N   UNL     1       6.406   7.703  16.948  0.00  0.00    +0.000 N 
ATOM      5  N   UNL     1       5.507   6.731  16.784  0.00  0.00    +0.000 NA
ATOM      6  H   UNL     1       6.246   8.586  16.476  0.00  0.00    +0.000 HD
ENDROOT
BRANCH   1   9
ATOM      7  C   UNL     1       4.157   5.143  19.662  0.00  0.00    +0.000 C 
ATOM      8  N   UNL     1       4.497   4.124  18.672  0.00  0.00    +0.000 N 
ATOM      9  C   UNL     1       5.297   4.375  17.552  0.00  0.00    +0.000 C 
ATOM     10  O   UNL     1       5.442   3.528  16.665  0.00  0.00    +0.000 OA
BRANCH   8  11
ATOM     11  C   UNL     1       4.109   2.755  18.976  0.00  0.00    +0.000 C 
BRANCH  11  12
ATOM     12  C   UNL     1       3.093   2.744  20.068  0.00  0.00    +0.000 A 
ATOM     13  N   UNL     1       3.333   2.571  21.355  0.00  0.00    +0.000 NA
ATOM     14  N   UNL     1       2.136   2.619  22.027  0.00  0.00    +0.000 NA
ATOM     15  C   UNL     1       1.191   2.820  21.140  0.00  0.00    +0.000 A 
ATOM     16  N   UNL     1       1.743   2.910  19.899  0.00  0.00    +0.000 N 
ATOM     17  C   UNL     1       1.031   3.144  18.673  0.00  0.00    +0.000 C 
ENDBRANCH  11  12
ENDBRANCH   8  11
ENDBRANCH   1   9
BRANCH   3  18
ATOM     18  C   UNL     1       8.438   8.355  18.201  0.00  0.00    +0.000 C 
BRANCH  18  19
ATOM     19  O   UNL     1       7.925   9.638  17.858  0.00  0.00    +0.000 OA
BRANCH  19  20
ATOM     20  C   UNL     1       8.667  10.707  18.293  0.00  0.00    +0.000 A 
ATOM     21  C   UNL     1       9.559  10.415  19.329  0.00  0.00    +0.000 A 
ATOM     22  C   UNL     1      10.376  11.413  19.867  0.00  0.00    +0.000 A 
ATOM     23  C   UNL     1      10.303  12.715  19.371  0.00  0.00    +0.000 A 
ATOM     24  C   UNL     1       9.423  13.018  18.345  0.00  0.00    +0.000 A 
ATOM     25  C   UNL     1       8.612  12.018  17.809  0.00  0.00    +0.000 A 
ATOM     26  F   UNL     1       7.785  12.367  16.812  0.00  0.00    +0.000 F 
ENDBRANCH  19  20
ENDBRANCH  18  19
ENDBRANCH   3  18
TORSDOF 6
ENDMDL
MODEL 9
REMARK VINA RESULT:      -7.6      1.653      2.319
REMARK  Name = 
REMARK  8 active torsions:
REMARK  status: ('A' for Active; 'I' for Inactive)
REMARK    1  A    between atoms: C_1  and  N_2
REMARK    2  A    between atoms: N_2  and  C_3
REMARK    3  A    between atoms: C_3  and  C_4
REMARK    4  A    between atoms: N_8  and  C_9
REMARK    5  A    between atoms: C_10  and  C_12
REMARK    6  A    between atoms: C_14  and  C_15
REMARK    7  A    between atoms: C_15  and  O_16
REMARK    8  A    between atoms: O_16  and  C_17
REMARK                            x       y       z     vdW  Elec       q    Type
REMARK                         _______ _______ _______ _____ _____    ______ ____
ROOT
ATOM      1  C   UNL     1       6.127   5.852  17.733  0.00  0.00    +0.000 A 
ATOM      2  C   UNL     1       6.400   7.129  17.169  0.00  0.00    +0.000 A 
ATOM      3  C   UNL     1       7.549   7.569  17.788  0.00  0.00    +0.000 A 
ATOM      4  N   UNL     1       7.878   6.600  18.686  0.00  0.00    +0.000 N 
ATOM      5  N   UNL     1       7.081   5.531  18.629  0.00  0.00    +0.000 NA
ATOM      6  H   UNL     1       8.651   6.584  19.342  0.00  0.00    +0.000 HD
ENDROOT
BRANCH   1   9
ATOM      7  C   UNL     1       3.456   6.201  18.852  0.00  0.00    +0.000 C 
ATOM      8  N   UNL     1       3.792   5.070  17.991  0.00  0.00    +0.000 N 
ATOM      9  C   UNL     1       5.031   4.926  17.357  0.00  0.00    +0.000 C 
ATOM     10  O   UNL     1       5.226   4.035  16.525  0.00  0.00    +0.000 OA
BRANCH   8  11
ATOM     11  C   UNL     1       2.834   3.976  17.936  0.00  0.00    +0.000 C 
BRANCH  11  12
ATOM     12  C   UNL     1       2.419   3.594  19.317  0.00  0.00    +0.000 A 
ATOM     13  N   UNL     1       1.269   3.890  19.895  0.00  0.00    +0.000 NA
ATOM     14  N   UNL     1       1.278   3.368  21.165  0.00  0.00    +0.000 NA
ATOM     15  C   UNL     1       2.429   2.764  21.338  0.00  0.00    +0.000 A 
ATOM     16  N   UNL     1       3.176   2.875  20.205  0.00  0.00    +0.000 N 
ATOM     17  C   UNL     1       4.489   2.329  20.003  0.00  0.00    +0.000 C 
ENDBRANCH  11  12
ENDBRANCH   8  11
ENDBRANCH   1   9
BRANCH   3  18
ATOM     18  C   UNL     1       8.393   8.770  17.612  0.00  0.00    +0.000 C 
BRANCH  18  19
ATOM     19  O   UNL     1       8.258   9.543  18.799  0.00  0.00    +0.000 OA
BRANCH  19  20
ATOM     20  C   UNL     1       9.269  10.438  19.040  0.00  0.00    +0.000 A 
ATOM     21  C   UNL     1       9.958  10.861  17.899  0.00  0.00    +0.000 A 
ATOM     22  C   UNL     1      11.012  11.772  18.002  0.00  0.00    +0.000 A 
ATOM     23  C   UNL     1      11.387  12.266  19.251  0.00  0.00    +0.000 A 
ATOM     24  C   UNL     1      10.714  11.854  20.390  0.00  0.00    +0.000 A 
ATOM     25  C   UNL     1       9.660  10.947  20.283  0.00  0.00    +0.000 A 
ATOM     26  F   UNL     1       9.040  10.590  21.417  0.00  0.00    +0.000 F 
ENDBRANCH  19  20
ENDBRANCH  18  19
ENDBRANCH   3  18
TORSDOF 6
ENDMDL
