MODEL 1
REMARK VINA RESULT:      -7.4      0.000      0.000
REMARK  Name = 
REMARK  8 active torsions:
REMARK  status: ('A' for Active; 'I' for Inactive)
REMARK    1  A    between atoms: C_1  and  O_2
REMARK    2  A    between atoms: O_2  and  C_3
REMARK    3  A    between atoms: C_10  and  O_11
REMARK    4  A    between atoms: O_11  and  C_12
REMARK    5  A    between atoms: C_13  and  O_14
REMARK    6  A    between atoms: O_14  and  C_15
REMARK    7  A    between atoms: C_16  and  O_17
REMARK    8  A    between atoms: C_20  and  O_21
REMARK                            x       y       z     vdW  Elec       q    Type
REMARK                         _______ _______ _______ _____ _____    ______ ____
ROOT
ATOM      1  C   UNL     1       7.010   5.164  14.953  0.00  0.00    +0.000 A 
ATOM      2  C   UNL     1       6.421   3.986  14.469  0.00  0.00    +0.000 A 
ATOM      3  C   UNL     1       5.361   3.354  15.135  0.00  0.00    +0.000 A 
ATOM      4  C   UNL     1       4.867   3.943  16.312  0.00  0.00    +0.000 A 
ATOM      5  C   UNL     1       5.455   5.113  16.757  0.00  0.00    +0.000 A 
ATOM      6  O   UNL     1       4.849   5.552  17.887  0.00  0.00    +0.000 OA
ATOM      7  C   UNL     1       3.847   4.670  18.195  0.00  0.00    +0.000 A 
ATOM      8  C   UNL     1       2.962   4.763  19.288  0.00  0.00    +0.000 A 
ATOM      9  C   UNL     1       2.005   3.728  19.391  0.00  0.00    +0.000 A 
ATOM     10  C   UNL     1       1.987   2.694  18.436  0.00  0.00    +0.000 A 
ATOM     11  C   UNL     1       2.878   2.628  17.367  0.00  0.00    +0.000 A 
ATOM     12  C   UNL     1       3.831   3.649  17.245  0.00  0.00    +0.000 A 
ATOM     13  C   UNL     1       6.521   5.759  16.122  0.00  0.00    +0.000 A 
ENDROOT
BRANCH   1  15
ATOM     14  C   UNL     1       7.940   5.299  12.776  0.00  0.00    +0.000 C 
ATOM     15  O   UNL     1       8.018   5.639  14.155  0.00  0.00    +0.000 OA
ENDBRANCH   1  15
BRANCH   8  16
ATOM     16  O   UNL     1       2.963   5.766  20.237  0.00  0.00    +0.000 OA
ATOM     17  C   UNL     1       2.186   6.927  19.983  0.00  0.00    +0.000 C 
ENDBRANCH   8  16
BRANCH   9  18
ATOM     18  O   UNL     1       1.023   3.572  20.345  0.00  0.00    +0.000 OA
ATOM     19  C   UNL     1       1.354   2.913  21.560  0.00  0.00    +0.000 C 
ENDBRANCH   9  18
BRANCH  10  20
ATOM     20  O   UNL     1       1.057   1.688  18.524  0.00  0.00    +0.000 OA
ATOM     21  H   UNL     1       1.540   0.870  18.293  0.00  0.00    +0.000 HD
ENDBRANCH  10  20
BRANCH  13  22
ATOM     22  O   UNL     1       7.011   6.932  16.626  0.00  0.00    +0.000 OA
ATOM     23  H   UNL     1       7.204   7.501  15.858  0.00  0.00    +0.000 HD
ENDBRANCH  13  22
TORSDOF 5
ENDMDL
MODEL 2
REMARK VINA RESULT:      -6.8      2.814      6.207
REMARK  Name = 
REMARK  8 active torsions:
REMARK  status: ('A' for Active; 'I' for Inactive)
REMARK    1  A    between atoms: C_1  and  O_2
REMARK    2  A    between atoms: O_2  and  C_3
REMARK    3  A    between atoms: C_10  and  O_11
REMARK    4  A    between atoms: O_11  and  C_12
REMARK    5  A    between atoms: C_13  and  O_14
REMARK    6  A    between atoms: O_14  and  C_15
REMARK    7  A    between atoms: C_16  and  O_17
REMARK    8  A    between atoms: C_20  and  O_21
REMARK                            x       y       z     vdW  Elec       q    Type
REMARK                         _______ _______ _______ _____ _____    ______ ____
ROOT
ATOM      1  C   UNL     1       0.893  10.038  19.574  0.00  0.00    +0.000 A 
ATOM      2  C   UNL     1       1.531  10.051  18.324  0.00  0.00    +0.000 A 
ATOM      3  C   UNL     1       2.265   8.954  17.850  0.00  0.00    +0.000 A 
ATOM      4  C   UNL     1       2.339   7.803  18.653  0.00  0.00    +0.000 A 
ATOM      5  C   UNL     1       1.687   7.812  19.873  0.00  0.00    +0.000 A 
ATOM      6  O   UNL     1       1.844   6.624  20.507  0.00  0.00    +0.000 OA
ATOM      7  C   UNL     1       2.603   5.816  19.702  0.00  0.00    +0.000 A 
ATOM      8  C   UNL     1       2.989   4.490  19.979  0.00  0.00    +0.000 A 
ATOM      9  C   UNL     1       3.771   3.859  18.984  0.00  0.00    +0.000 A 
ATOM     10  C   UNL     1       4.115   4.562  17.815  0.00  0.00    +0.000 A 
ATOM     11  C   UNL     1       3.720   5.876  17.570  0.00  0.00    +0.000 A 
ATOM     12  C   UNL     1       2.940   6.515  18.543  0.00  0.00    +0.000 A 
ATOM     13  C   UNL     1       0.958   8.894  20.379  0.00  0.00    +0.000 A 
ENDROOT
BRANCH   1  15
ATOM     14  C   UNL     1      -1.078  11.318  19.262  0.00  0.00    +0.000 C 
ATOM     15  O   UNL     1       0.210  11.194  19.852  0.00  0.00    +0.000 OA
ENDBRANCH   1  15
BRANCH   8  16
ATOM     16  O   UNL     1       2.665   3.782  21.119  0.00  0.00    +0.000 OA
ATOM     17  C   UNL     1       1.407   3.125  21.163  0.00  0.00    +0.000 C 
ENDBRANCH   8  16
BRANCH   9  18
ATOM     18  O   UNL     1       4.275   2.576  18.989  0.00  0.00    +0.000 OA
ATOM     19  C   UNL     1       3.453   1.521  18.510  0.00  0.00    +0.000 C 
ENDBRANCH   9  18
BRANCH  10  20
ATOM     20  O   UNL     1       4.869   3.955  16.840  0.00  0.00    +0.000 OA
ATOM     21  H   UNL     1       5.141   3.098  17.223  0.00  0.00    +0.000 HD
ENDBRANCH  10  20
BRANCH  13  22
ATOM     22  O   UNL     1       0.322   8.790  21.585  0.00  0.00    +0.000 OA
ATOM     23  H   UNL     1      -0.191   7.962  21.553  0.00  0.00    +0.000 HD
ENDBRANCH  13  22
TORSDOF 5
ENDMDL
MODEL 3
REMARK VINA RESULT:      -6.8      2.862      6.253
REMARK  Name = 
REMARK  8 active torsions:
REMARK  status: ('A' for Active; 'I' for Inactive)
REMARK    1  A    between atoms: C_1  and  O_2
REMARK    2  A    between atoms: O_2  and  C_3
REMARK    3  A    between atoms: C_10  and  O_11
REMARK    4  A    between atoms: O_11  and  C_12
REMARK    5  A    between atoms: C_13  and  O_14
REMARK    6  A    between atoms: O_14  and  C_15
REMARK    7  A    between atoms: C_16  and  O_17
REMARK    8  A    between atoms: C_20  and  O_21
REMARK                            x       y       z     vdW  Elec       q    Type
REMARK                         _______ _______ _______ _____ _____    ______ ____
ROOT
ATOM      1  C   UNL     1       0.940  10.183  19.629  0.00  0.00    +0.000 A 
ATOM      2  C   UNL     1       0.653   9.574  20.859  0.00  0.00    +0.000 A 
ATOM      3  C   UNL     1       0.999   8.242  21.131  0.00  0.00    +0.000 A 
ATOM      4  C   UNL     1       1.675   7.512  20.138  0.00  0.00    +0.000 A 
ATOM      5  C   UNL     1       1.960   8.144  18.940  0.00  0.00    +0.000 A 
ATOM      6  O   UNL     1       2.627   7.307  18.108  0.00  0.00    +0.000 OA
ATOM      7  C   UNL     1       2.791   6.112  18.756  0.00  0.00    +0.000 A 
ATOM      8  C   UNL     1       3.446   4.972  18.249  0.00  0.00    +0.000 A 
ATOM      9  C   UNL     1       3.490   3.856  19.115  0.00  0.00    +0.000 A 
ATOM     10  C   UNL     1       2.897   3.934  20.389  0.00  0.00    +0.000 A 
ATOM     11  C   UNL     1       2.253   5.075  20.861  0.00  0.00    +0.000 A 
ATOM     12  C   UNL     1       2.204   6.194  20.019  0.00  0.00    +0.000 A 
ATOM     13  C   UNL     1       1.617   9.465  18.635  0.00  0.00    +0.000 A 
ENDROOT
BRANCH   1  15
ATOM     14  C   UNL     1      -0.767  11.725  19.052  0.00  0.00    +0.000 C 
ATOM     15  O   UNL     1       0.541  11.493  19.560  0.00  0.00    +0.000 OA
ENDBRANCH   1  15
BRANCH   8  16
ATOM     16  O   UNL     1       4.033   4.872  17.003  0.00  0.00    +0.000 OA
ATOM     17  C   UNL     1       5.366   5.338  16.853  0.00  0.00    +0.000 C 
ENDBRANCH   8  16
BRANCH   9  18
ATOM     18  O   UNL     1       4.067   2.625  18.884  0.00  0.00    +0.000 OA
ATOM     19  C   UNL     1       3.361   1.682  18.091  0.00  0.00    +0.000 C 
ENDBRANCH   9  18
BRANCH  10  20
ATOM     20  O   UNL     1       2.941   2.856  21.239  0.00  0.00    +0.000 OA
ATOM     21  H   UNL     1       2.646   2.094  20.703  0.00  0.00    +0.000 HD
ENDBRANCH  10  20
BRANCH  13  22
ATOM     22  O   UNL     1       1.975  10.007  17.432  0.00  0.00    +0.000 OA
ATOM     23  H   UNL     1       1.681  10.937  17.453  0.00  0.00    +0.000 HD
ENDBRANCH  13  22
TORSDOF 5
ENDMDL
MODEL 4
REMARK VINA RESULT:      -6.8      0.843      6.342
REMARK  Name = 
REMARK  8 active torsions:
REMARK  status: ('A' for Active; 'I' for Inactive)
REMARK    1  A    between atoms: C_1  and  O_2
REMARK    2  A    between atoms: O_2  and  C_3
REMARK    3  A    between atoms: C_10  and  O_11
REMARK    4  A    between atoms: O_11  and  C_12
REMARK    5  A    between atoms: C_13  and  O_14
REMARK    6  A    between atoms: O_14  and  C_15
REMARK    7  A    between atoms: C_16  and  O_17
REMARK    8  A    between atoms: C_20  and  O_21
REMARK                            x       y       z     vdW  Elec       q    Type
REMARK                         _______ _______ _______ _____ _____    ______ ____
ROOT
ATOM      1  C   UNL     1       1.878   3.978  19.473  0.00  0.00    +0.000 A 
ATOM      2  C   UNL     1       1.760   2.962  18.511  0.00  0.00    +0.000 A 
ATOM      3  C   UNL     1       2.626   2.871  17.413  0.00  0.00    +0.000 A 
ATOM      4  C   UNL     1       3.656   3.820  17.294  0.00  0.00    +0.000 A 
ATOM      5  C   UNL     1       3.759   4.800  18.265  0.00  0.00    +0.000 A 
ATOM      6  O   UNL     1       4.811   5.616  18.009  0.00  0.00    +0.000 OA
ATOM      7  C   UNL     1       5.415   5.175  16.862  0.00  0.00    +0.000 A 
ATOM      8  C   UNL     1       6.556   5.735  16.252  0.00  0.00    +0.000 A 
ATOM      9  C   UNL     1       6.995   5.094  15.071  0.00  0.00    +0.000 A 
ATOM     10  C   UNL     1       6.296   3.976  14.580  0.00  0.00    +0.000 A 
ATOM     11  C   UNL     1       5.169   3.447  15.204  0.00  0.00    +0.000 A 
ATOM     12  C   UNL     1       4.721   4.065  16.379  0.00  0.00    +0.000 A 
ATOM     13  C   UNL     1       2.904   4.924  19.365  0.00  0.00    +0.000 A 
ENDROOT
BRANCH   1  15
ATOM     14  C   UNL     1       1.244   2.962  21.520  0.00  0.00    +0.000 C 
ATOM     15  O   UNL     1       0.952   3.888  20.480  0.00  0.00    +0.000 OA
ENDBRANCH   1  15
BRANCH   8  16
ATOM     16  O   UNL     1       7.255   6.831  16.714  0.00  0.00    +0.000 OA
ATOM     17  C   UNL     1       7.782   6.781  18.032  0.00  0.00    +0.000 C 
ENDBRANCH   8  16
BRANCH   9  18
ATOM     18  O   UNL     1       8.076   5.421  14.281  0.00  0.00    +0.000 OA
ATOM     19  C   UNL     1       7.856   5.680  12.901  0.00  0.00    +0.000 C 
ENDBRANCH   9  18
BRANCH  10  20
ATOM     20  O   UNL     1       6.719   3.343  13.436  0.00  0.00    +0.000 OA
ATOM     21  H   UNL     1       7.377   3.947  13.038  0.00  0.00    +0.000 HD
ENDBRANCH  10  20
BRANCH  13  22
ATOM     22  O   UNL     1       3.112   5.911  20.288  0.00  0.00    +0.000 OA
ATOM     23  H   UNL     1       3.590   5.496  21.029  0.00  0.00    +0.000 HD
ENDBRANCH  13  22
TORSDOF 5
ENDMDL
MODEL 5
REMARK VINA RESULT:      -6.8      1.786      2.082
REMARK  Name = 
REMARK  8 active torsions:
REMARK  status: ('A' for Active; 'I' for Inactive)
REMARK    1  A    between atoms: C_1  and  O_2
REMARK    2  A    between atoms: O_2  and  C_3
REMARK    3  A    between atoms: C_10  and  O_11
REMARK    4  A    between atoms: O_11  and  C_12
REMARK    5  A    between atoms: C_13  and  O_14
REMARK    6  A    between atoms: O_14  and  C_15
REMARK    7  A    between atoms: C_16  and  O_17
REMARK    8  A    between atoms: C_20  and  O_21
REMARK                            x       y       z     vdW  Elec       q    Type
REMARK                         _______ _______ _______ _____ _____    ______ ____
ROOT
ATOM      1  C   UNL     1       7.002   4.959  15.166  0.00  0.00    +0.000 A 
ATOM      2  C   UNL     1       5.767   4.962  14.499  0.00  0.00    +0.000 A 
ATOM      3  C   UNL     1       4.592   4.492  15.102  0.00  0.00    +0.000 A 
ATOM      4  C   UNL     1       4.661   4.025  16.426  0.00  0.00    +0.000 A 
ATOM      5  C   UNL     1       5.888   4.049  17.065  0.00  0.00    +0.000 A 
ATOM      6  O   UNL     1       5.773   3.584  18.334  0.00  0.00    +0.000 OA
ATOM      7  C   UNL     1       4.461   3.253  18.542  0.00  0.00    +0.000 A 
ATOM      8  C   UNL     1       3.909   2.743  19.734  0.00  0.00    +0.000 A 
ATOM      9  C   UNL     1       2.520   2.482  19.704  0.00  0.00    +0.000 A 
ATOM     10  C   UNL     1       1.787   2.731  18.528  0.00  0.00    +0.000 A 
ATOM     11  C   UNL     1       2.362   3.233  17.363  0.00  0.00    +0.000 A 
ATOM     12  C   UNL     1       3.737   3.503  17.376  0.00  0.00    +0.000 A 
ATOM     13  C   UNL     1       7.079   4.500  16.487  0.00  0.00    +0.000 A 
ENDROOT
BRANCH   1  15
ATOM     14  C   UNL     1       7.941   5.282  13.013  0.00  0.00    +0.000 C 
ATOM     15  O   UNL     1       8.029   5.474  14.420  0.00  0.00    +0.000 OA
ENDBRANCH   1  15
BRANCH   8  16
ATOM     16  O   UNL     1       4.609   2.490  20.897  0.00  0.00    +0.000 OA
ATOM     17  C   UNL     1       5.208   1.212  21.052  0.00  0.00    +0.000 C 
ENDBRANCH   8  16
BRANCH   9  18
ATOM     18  O   UNL     1       1.726   1.993  20.719  0.00  0.00    +0.000 OA
ATOM     19  C   UNL     1       1.398   2.854  21.800  0.00  0.00    +0.000 C 
ENDBRANCH   9  18
BRANCH  10  20
ATOM     20  O   UNL     1       0.436   2.486  18.492  0.00  0.00    +0.000 OA
ATOM     21  H   UNL     1       0.306   1.874  17.740  0.00  0.00    +0.000 HD
ENDBRANCH  10  20
BRANCH  13  22
ATOM     22  O   UNL     1       8.235   4.513  17.217  0.00  0.00    +0.000 OA
ATOM     23  H   UNL     1       8.889   5.002  16.685  0.00  0.00    +0.000 HD
ENDBRANCH  13  22
TORSDOF 5
ENDMDL
MODEL 6
REMARK VINA RESULT:      -6.6      3.369      5.978
REMARK  Name = 
REMARK  8 active torsions:
REMARK  status: ('A' for Active; 'I' for Inactive)
REMARK    1  A    between atoms: C_1  and  O_2
REMARK    2  A    between atoms: O_2  and  C_3
REMARK    3  A    between atoms: C_10  and  O_11
REMARK    4  A    between atoms: O_11  and  C_12
REMARK    5  A    between atoms: C_13  and  O_14
REMARK    6  A    between atoms: O_14  and  C_15
REMARK    7  A    between atoms: C_16  and  O_17
REMARK    8  A    between atoms: C_20  and  O_21
REMARK                            x       y       z     vdW  Elec       q    Type
REMARK                         _______ _______ _______ _____ _____    ______ ____
ROOT
ATOM      1  C   UNL     1       3.768   3.579  19.161  0.00  0.00    +0.000 A 
ATOM      2  C   UNL     1       4.247   4.232  18.015  0.00  0.00    +0.000 A 
ATOM      3  C   UNL     1       3.894   5.554  17.707  0.00  0.00    +0.000 A 
ATOM      4  C   UNL     1       3.050   6.243  18.594  0.00  0.00    +0.000 A 
ATOM      5  C   UNL     1       2.605   5.581  19.724  0.00  0.00    +0.000 A 
ATOM      6  O   UNL     1       1.820   6.393  20.475  0.00  0.00    +0.000 OA
ATOM      7  C   UNL     1       1.745   7.605  19.842  0.00  0.00    +0.000 A 
ATOM      8  C   UNL     1       1.039   8.738  20.294  0.00  0.00    +0.000 A 
ATOM      9  C   UNL     1       1.117   9.879  19.464  0.00  0.00    +0.000 A 
ATOM     10  C   UNL     1       1.864   9.828  18.272  0.00  0.00    +0.000 A 
ATOM     11  C   UNL     1       2.549   8.691  17.850  0.00  0.00    +0.000 A 
ATOM     12  C   UNL     1       2.487   7.551  18.662  0.00  0.00    +0.000 A 
ATOM     13  C   UNL     1       2.929   4.261  20.052  0.00  0.00    +0.000 A 
ENDROOT
BRANCH   1  15
ATOM     14  C   UNL     1       3.564   1.298  18.549  0.00  0.00    +0.000 C 
ATOM     15  O   UNL     1       4.239   2.300  19.300  0.00  0.00    +0.000 OA
ENDBRANCH   1  15
BRANCH   8  16
ATOM     16  O   UNL     1       0.299   8.810  21.457  0.00  0.00    +0.000 OA
ATOM     17  C   UNL     1       0.939   9.300  22.627  0.00  0.00    +0.000 C 
ENDBRANCH   8  16
BRANCH   9  18
ATOM     18  O   UNL     1       0.537  11.114  19.662  0.00  0.00    +0.000 OA
ATOM     19  C   UNL     1      -0.854  11.260  19.409  0.00  0.00    +0.000 C 
ENDBRANCH   9  18
BRANCH  10  20
ATOM     20  O   UNL     1       1.951  10.934  17.462  0.00  0.00    +0.000 OA
ATOM     21  H   UNL     1       1.197  10.860  16.844  0.00  0.00    +0.000 HD
ENDBRANCH  10  20
BRANCH  13  22
ATOM     22  O   UNL     1       2.464   3.707  21.213  0.00  0.00    +0.000 OA
ATOM     23  H   UNL     1       3.212   3.217  21.602  0.00  0.00    +0.000 HD
ENDBRANCH  13  22
TORSDOF 5
ENDMDL
MODEL 7
REMARK VINA RESULT:      -6.4      2.776      6.585
REMARK  Name = 
REMARK  8 active torsions:
REMARK  status: ('A' for Active; 'I' for Inactive)
REMARK    1  A    between atoms: C_1  and  O_2
REMARK    2  A    between atoms: O_2  and  C_3
REMARK    3  A    between atoms: C_10  and  O_11
REMARK    4  A    between atoms: O_11  and  C_12
REMARK    5  A    between atoms: C_13  and  O_14
REMARK    6  A    between atoms: O_14  and  C_15
REMARK    7  A    between atoms: C_16  and  O_17
REMARK    8  A    between atoms: C_20  and  O_21
REMARK                            x       y       z     vdW  Elec       q    Type
REMARK                         _______ _______ _______ _____ _____    ______ ____
ROOT
ATOM      1  C   UNL     1       0.688   9.527  19.610  0.00  0.00    +0.000 A 
ATOM      2  C   UNL     1       0.714   8.583  20.647  0.00  0.00    +0.000 A 
ATOM      3  C   UNL     1       1.546   7.455  20.607  0.00  0.00    +0.000 A 
ATOM      4  C   UNL     1       2.393   7.288  19.498  0.00  0.00    +0.000 A 
ATOM      5  C   UNL     1       2.359   8.244  18.498  0.00  0.00    +0.000 A 
ATOM      6  O   UNL     1       3.245   7.940  17.518  0.00  0.00    +0.000 OA
ATOM      7  C   UNL     1       3.877   6.777  17.869  0.00  0.00    +0.000 A 
ATOM      8  C   UNL     1       4.883   6.120  17.132  0.00  0.00    +0.000 A 
ATOM      9  C   UNL     1       5.386   4.932  17.708  0.00  0.00    +0.000 A 
ATOM     10  C   UNL     1       4.874   4.479  18.939  0.00  0.00    +0.000 A 
ATOM     11  C   UNL     1       3.876   5.149  19.642  0.00  0.00    +0.000 A 
ATOM     12  C   UNL     1       3.369   6.333  19.090  0.00  0.00    +0.000 A 
ATOM     13  C   UNL     1       1.532   9.372  18.503  0.00  0.00    +0.000 A 
ENDROOT
BRANCH   1  15
ATOM     14  C   UNL     1       0.326  11.633  20.639  0.00  0.00    +0.000 C 
ATOM     15  O   UNL     1      -0.174  10.568  19.839  0.00  0.00    +0.000 OA
ENDBRANCH   1  15
BRANCH   8  16
ATOM     16  O   UNL     1       5.398   6.545  15.924  0.00  0.00    +0.000 OA
ATOM     17  C   UNL     1       5.375   5.637  14.832  0.00  0.00    +0.000 C 
ENDBRANCH   8  16
BRANCH   9  18
ATOM     18  O   UNL     1       6.368   4.099  17.214  0.00  0.00    +0.000 OA
ATOM     19  C   UNL     1       7.728   4.456  17.421  0.00  0.00    +0.000 C 
ENDBRANCH   9  18
BRANCH  10  20
ATOM     20  O   UNL     1       5.362   3.328  19.509  0.00  0.00    +0.000 OA
ATOM     21  H   UNL     1       5.186   2.623  18.855  0.00  0.00    +0.000 HD
ENDBRANCH  10  20
BRANCH  13  22
ATOM     22  O   UNL     1       1.597  10.276  17.479  0.00  0.00    +0.000 OA
ATOM     23  H   UNL     1       1.568  11.159  17.891  0.00  0.00    +0.000 HD
ENDBRANCH  13  22
TORSDOF 5
ENDMDL
MODEL 8
REMARK VINA RESULT:      -6.4      2.663      6.735
REMARK  Name = 
REMARK  8 active torsions:
REMARK  status: ('A' for Active; 'I' for Inactive)
REMARK    1  A    between atoms: C_1  and  O_2
REMARK    2  A    between atoms: O_2  and  C_3
REMARK    3  A    between atoms: C_10  and  O_11
REMARK    4  A    between atoms: O_11  and  C_12
REMARK    5  A    between atoms: C_13  and  O_14
REMARK    6  A    between atoms: O_14  and  C_15
REMARK    7  A    between atoms: C_16  and  O_17
REMARK    8  A    between atoms: C_20  and  O_21
REMARK                            x       y       z     vdW  Elec       q    Type
REMARK                         _______ _______ _______ _____ _____    ______ ____
ROOT
ATOM      1  C   UNL     1       0.623   9.392  19.876  0.00  0.00    +0.000 A 
ATOM      2  C   UNL     1       0.867   9.874  18.581  0.00  0.00    +0.000 A 
ATOM      3  C   UNL     1       1.815   9.285  17.732  0.00  0.00    +0.000 A 
ATOM      4  C   UNL     1       2.522   8.162  18.198  0.00  0.00    +0.000 A 
ATOM      5  C   UNL     1       2.249   7.699  19.472  0.00  0.00    +0.000 A 
ATOM      6  O   UNL     1       3.000   6.606  19.753  0.00  0.00    +0.000 OA
ATOM      7  C   UNL     1       3.776   6.337  18.657  0.00  0.00    +0.000 A 
ATOM      8  C   UNL     1       4.693   5.275  18.524  0.00  0.00    +0.000 A 
ATOM      9  C   UNL     1       5.374   5.205  17.288  0.00  0.00    +0.000 A 
ATOM     10  C   UNL     1       5.116   6.164  16.291  0.00  0.00    +0.000 A 
ATOM     11  C   UNL     1       4.205   7.205  16.453  0.00  0.00    +0.000 A 
ATOM     12  C   UNL     1       3.516   7.288  17.670  0.00  0.00    +0.000 A 
ATOM     13  C   UNL     1       1.319   8.272  20.346  0.00  0.00    +0.000 A 
ENDROOT
BRANCH   1  15
ATOM     14  C   UNL     1      -0.546  11.438  20.142  0.00  0.00    +0.000 C 
ATOM     15  O   UNL     1      -0.352  10.087  20.544  0.00  0.00    +0.000 OA
ENDBRANCH   1  15
BRANCH   8  16
ATOM     16  O   UNL     1       4.963   4.325  19.489  0.00  0.00    +0.000 OA
ATOM     17  C   UNL     1       4.207   3.123  19.473  0.00  0.00    +0.000 C 
ENDBRANCH   8  16
BRANCH   9  18
ATOM     18  O   UNL     1       6.310   4.275  16.887  0.00  0.00    +0.000 OA
ATOM     19  C   UNL     1       7.656   4.439  17.312  0.00  0.00    +0.000 C 
ENDBRANCH   9  18
BRANCH  10  20
ATOM     20  O   UNL     1       5.768   6.099  15.084  0.00  0.00    +0.000 OA
ATOM     21  H   UNL     1       6.701   5.909  15.307  0.00  0.00    +0.000 HD
ENDBRANCH  10  20
BRANCH  13  22
ATOM     22  O   UNL     1       1.100   7.716  21.576  0.00  0.00    +0.000 OA
ATOM     23  H   UNL     1       1.567   8.282  22.219  0.00  0.00    +0.000 HD
ENDBRANCH  13  22
TORSDOF 5
ENDMDL
MODEL 9
REMARK VINA RESULT:      -6.3      2.199      3.972
REMARK  Name = 
REMARK  8 active torsions:
REMARK  status: ('A' for Active; 'I' for Inactive)
REMARK    1  A    between atoms: C_1  and  O_2
REMARK    2  A    between atoms: O_2  and  C_3
REMARK    3  A    between atoms: C_10  and  O_11
REMARK    4  A    between atoms: O_11  and  C_12
REMARK    5  A    between atoms: C_13  and  O_14
REMARK    6  A    between atoms: O_14  and  C_15
REMARK    7  A    between atoms: C_16  and  O_17
REMARK    8  A    between atoms: C_20  and  O_21
REMARK                            x       y       z     vdW  Elec       q    Type
REMARK                         _______ _______ _______ _____ _____    ______ ____
ROOT
ATOM      1  C   UNL     1       5.582   4.540  15.750  0.00  0.00    +0.000 A 
ATOM      2  C   UNL     1       5.508   5.845  15.238  0.00  0.00    +0.000 A 
ATOM      3  C   UNL     1       4.728   6.840  15.844  0.00  0.00    +0.000 A 
ATOM      4  C   UNL     1       4.020   6.514  17.014  0.00  0.00    +0.000 A 
ATOM      5  C   UNL     1       4.125   5.225  17.505  0.00  0.00    +0.000 A 
ATOM      6  O   UNL     1       3.398   5.088  18.641  0.00  0.00    +0.000 OA
ATOM      7  C   UNL     1       2.809   6.294  18.911  0.00  0.00    +0.000 A 
ATOM      8  C   UNL     1       1.979   6.589  20.011  0.00  0.00    +0.000 A 
ATOM      9  C   UNL     1       1.493   7.914  20.074  0.00  0.00    +0.000 A 
ATOM     10  C   UNL     1       1.846   8.837  19.071  0.00  0.00    +0.000 A 
ATOM     11  C   UNL     1       2.667   8.515  17.993  0.00  0.00    +0.000 A 
ATOM     12  C   UNL     1       3.162   7.207  17.917  0.00  0.00    +0.000 A 
ATOM     13  C   UNL     1       4.884   4.208  16.917  0.00  0.00    +0.000 A 
ENDROOT
BRANCH   1  15
ATOM     14  C   UNL     1       6.295   3.793  13.615  0.00  0.00    +0.000 C 
ATOM     15  O   UNL     1       6.410   3.717  15.031  0.00  0.00    +0.000 OA
ENDBRANCH   1  15
BRANCH   8  16
ATOM     16  O   UNL     1       1.618   5.700  21.004  0.00  0.00    +0.000 OA
ATOM     17  C   UNL     1       1.166   4.411  20.615  0.00  0.00    +0.000 C 
ENDBRANCH   8  16
BRANCH   9  18
ATOM     18  O   UNL     1       0.676   8.474  21.033  0.00  0.00    +0.000 OA
ATOM     19  C   UNL     1       1.273   8.997  22.212  0.00  0.00    +0.000 C 
ENDBRANCH   9  18
BRANCH  10  20
ATOM     20  O   UNL     1       1.383  10.129  19.128  0.00  0.00    +0.000 OA
ATOM     21  H   UNL     1       0.417  10.062  18.994  0.00  0.00    +0.000 HD
ENDBRANCH  10  20
BRANCH  13  22
ATOM     22  O   UNL     1       4.947   2.973  17.501  0.00  0.00    +0.000 OA
ATOM     23  H   UNL     1       5.853   2.645  17.350  0.00  0.00    +0.000 HD
ENDBRANCH  13  22
TORSDOF 5
ENDMDL
