MODEL 1
REMARK VINA RESULT:      -7.7      0.000      0.000
REMARK  Name = 
REMARK  1 active torsions:
REMARK  status: ('A' for Active; 'I' for Inactive)
REMARK    1  A    between atoms: C_2  and  C_3
REMARK                            x       y       z     vdW  Elec       q    Type
REMARK                         _______ _______ _______ _____ _____    ______ ____
ROOT
ATOM      1  O   UNL     1       0.537  10.868  22.271  0.00  0.00    +0.000 OA
ATOM      2  C   UNL     1       0.538  10.758  21.046  0.00  0.00    +0.000 C 
ATOM      3  N   UNL     1       0.783   9.544  20.406  0.00  0.00    +0.000 N 
ATOM      4  C   UNL     1       1.009   9.327  18.972  0.00  0.00    +0.000 C 
ATOM      5  C   UNL     1       2.322   8.584  18.694  0.00  0.00    +0.000 C 
ATOM      6  N   UNL     1       2.418   7.360  19.489  0.00  0.00    +0.000 N 
ATOM      7  C   UNL     1       2.486   6.119  18.901  0.00  0.00    +0.000 C 
ATOM      8  N   UNL     1       1.667   5.138  19.162  0.00  0.00    +0.000 NA
ATOM      9  S   UNL     1       2.038   3.815  18.257  0.00  0.00    +0.000 S 
ATOM     10  O   UNL     1       1.047   3.627  17.219  0.00  0.00    +0.000 OA
ATOM     11  O   UNL     1       2.489   2.735  19.110  0.00  0.00    +0.000 OA
ATOM     12  C   UNL     1       3.445   4.498  17.502  0.00  0.00    +0.000 A 
ATOM     13  C   UNL     1       4.358   3.893  16.663  0.00  0.00    +0.000 A 
ATOM     14  C   UNL     1       5.445   4.668  16.244  0.00  0.00    +0.000 A 
ATOM     15  C   UNL     1       5.584   6.001  16.670  0.00  0.00    +0.000 A 
ATOM     16  C   UNL     1       4.647   6.577  17.533  0.00  0.00    +0.000 A 
ATOM     17  C   UNL     1       3.568   5.803  17.932  0.00  0.00    +0.000 A 
ATOM     18  C   UNL     1       2.162   7.525  20.930  0.00  0.00    +0.000 C 
ATOM     19  C   UNL     1       0.870   8.314  21.209  0.00  0.00    +0.000 C 
ENDROOT
BRANCH   2  20
ATOM     20  C   UNL     1       0.303  11.998  20.251  0.00  0.00    +0.000 A 
ATOM     21  C   UNL     1      -1.014  12.313  19.877  0.00  0.00    +0.000 A 
ATOM     22  C   UNL     1      -1.287  13.498  19.186  0.00  0.00    +0.000 A 
ATOM     23  C   UNL     1      -0.245  14.368  18.880  0.00  0.00    +0.000 A 
ATOM     24  F   UNL     1      -0.508  15.527  18.265  0.00  0.00    +0.000 F 
ATOM     25  C   UNL     1       1.069  14.045  19.195  0.00  0.00    +0.000 A 
ATOM     26  C   UNL     1       1.346  12.835  19.835  0.00  0.00    +0.000 A 
ENDBRANCH   2  20
TORSDOF 1
ENDMDL
MODEL 2
REMARK VINA RESULT:      -7.6      2.711      3.631
REMARK  Name = 
REMARK  1 active torsions:
REMARK  status: ('A' for Active; 'I' for Inactive)
REMARK    1  A    between atoms: C_2  and  C_3
REMARK                            x       y       z     vdW  Elec       q    Type
REMARK                         _______ _______ _______ _____ _____    ______ ____
ROOT
ATOM      1  O   UNL     1      -0.138  11.792  18.439  0.00  0.00    +0.000 OA
ATOM      2  C   UNL     1       0.309  11.317  19.482  0.00  0.00    +0.000 C 
ATOM      3  N   UNL     1       1.154  10.208  19.495  0.00  0.00    +0.000 N 
ATOM      4  C   UNL     1       1.583   9.435  20.667  0.00  0.00    +0.000 C 
ATOM      5  C   UNL     1       1.280   7.938  20.522  0.00  0.00    +0.000 C 
ATOM      6  N   UNL     1       1.794   7.412  19.257  0.00  0.00    +0.000 N 
ATOM      7  C   UNL     1       2.761   6.435  19.220  0.00  0.00    +0.000 C 
ATOM      8  N   UNL     1       3.893   6.547  18.582  0.00  0.00    +0.000 NA
ATOM      9  S   UNL     1       4.807   5.193  18.777  0.00  0.00    +0.000 S 
ATOM     10  O   UNL     1       5.919   5.464  19.662  0.00  0.00    +0.000 OA
ATOM     11  O   UNL     1       4.966   4.509  17.510  0.00  0.00    +0.000 OA
ATOM     12  C   UNL     1       3.628   4.307  19.695  0.00  0.00    +0.000 A 
ATOM     13  C   UNL     1       3.673   2.998  20.130  0.00  0.00    +0.000 A 
ATOM     14  C   UNL     1       2.547   2.515  20.805  0.00  0.00    +0.000 A 
ATOM     15  C   UNL     1       1.428   3.340  21.019  0.00  0.00    +0.000 A 
ATOM     16  C   UNL     1       1.411   4.658  20.550  0.00  0.00    +0.000 A 
ATOM     17  C   UNL     1       2.537   5.129  19.894  0.00  0.00    +0.000 A 
ATOM     18  C   UNL     1       1.417   8.179  18.058  0.00  0.00    +0.000 C 
ATOM     19  C   UNL     1       1.675   9.688  18.221  0.00  0.00    +0.000 C 
ENDROOT
BRANCH   2  20
ATOM     20  C   UNL     1      -0.122  11.955  20.760  0.00  0.00    +0.000 A 
ATOM     21  C   UNL     1       0.346  13.247  21.054  0.00  0.00    +0.000 A 
ATOM     22  C   UNL     1      -0.083  13.906  22.211  0.00  0.00    +0.000 A 
ATOM     23  C   UNL     1      -0.985  13.277  23.063  0.00  0.00    +0.000 A 
ATOM     24  F   UNL     1      -1.439  13.924  24.143  0.00  0.00    +0.000 F 
ATOM     25  C   UNL     1      -1.415  11.980  22.814  0.00  0.00    +0.000 A 
ATOM     26  C   UNL     1      -0.941  11.301  21.689  0.00  0.00    +0.000 A 
ENDBRANCH   2  20
TORSDOF 1
ENDMDL
MODEL 3
REMARK VINA RESULT:      -7.5      3.566      8.210
REMARK  Name = 
REMARK  1 active torsions:
REMARK  status: ('A' for Active; 'I' for Inactive)
REMARK    1  A    between atoms: C_2  and  C_3
REMARK                            x       y       z     vdW  Elec       q    Type
REMARK                         _______ _______ _______ _____ _____    ______ ____
ROOT
ATOM      1  O   UNL     1       4.370   3.676  18.931  0.00  0.00    +0.000 OA
ATOM      2  C   UNL     1       4.502   4.757  18.361  0.00  0.00    +0.000 C 
ATOM      3  N   UNL     1       3.879   5.920  18.812  0.00  0.00    +0.000 N 
ATOM      4  C   UNL     1       3.795   7.208  18.114  0.00  0.00    +0.000 C 
ATOM      5  C   UNL     1       2.349   7.698  17.962  0.00  0.00    +0.000 C 
ATOM      6  N   UNL     1       1.647   7.684  19.246  0.00  0.00    +0.000 N 
ATOM      7  C   UNL     1       1.164   8.838  19.819  0.00  0.00    +0.000 C 
ATOM      8  N   UNL     1       1.464   9.240  21.022  0.00  0.00    +0.000 NA
ATOM      9  S   UNL     1       0.721  10.669  21.360  0.00  0.00    +0.000 S 
ATOM     10  O   UNL     1       1.688  11.745  21.362  0.00  0.00    +0.000 OA
ATOM     11  O   UNL     1      -0.251  10.490  22.419  0.00  0.00    +0.000 OA
ATOM     12  C   UNL     1      -0.158  10.775  19.866  0.00  0.00    +0.000 A 
ATOM     13  C   UNL     1      -1.106  11.701  19.482  0.00  0.00    +0.000 A 
ATOM     14  C   UNL     1      -1.708  11.513  18.234  0.00  0.00    +0.000 A 
ATOM     15  C   UNL     1      -1.351  10.423  17.420  0.00  0.00    +0.000 A 
ATOM     16  C   UNL     1      -0.396   9.494  17.848  0.00  0.00    +0.000 A 
ATOM     17  C   UNL     1       0.202   9.698  19.082  0.00  0.00    +0.000 A 
ATOM     18  C   UNL     1       1.735   6.421  19.997  0.00  0.00    +0.000 C 
ATOM     19  C   UNL     1       3.181   5.904  20.108  0.00  0.00    +0.000 C 
ENDROOT
BRANCH   2  20
ATOM     20  C   UNL     1       5.336   4.777  17.124  0.00  0.00    +0.000 A 
ATOM     21  C   UNL     1       4.757   4.343  15.920  0.00  0.00    +0.000 A 
ATOM     22  C   UNL     1       5.483   4.404  14.726  0.00  0.00    +0.000 A 
ATOM     23  C   UNL     1       6.780   4.909  14.738  0.00  0.00    +0.000 A 
ATOM     24  F   UNL     1       7.459   5.019  13.590  0.00  0.00    +0.000 F 
ATOM     25  C   UNL     1       7.385   5.292  15.928  0.00  0.00    +0.000 A 
ATOM     26  C   UNL     1       6.679   5.176  17.128  0.00  0.00    +0.000 A 
ENDBRANCH   2  20
TORSDOF 1
ENDMDL
MODEL 4
REMARK VINA RESULT:      -7.4      2.742      3.640
REMARK  Name = 
REMARK  1 active torsions:
REMARK  status: ('A' for Active; 'I' for Inactive)
REMARK    1  A    between atoms: C_2  and  C_3
REMARK                            x       y       z     vdW  Elec       q    Type
REMARK                         _______ _______ _______ _____ _____    ______ ____
ROOT
ATOM      1  O   UNL     1       0.448  11.462  18.567  0.00  0.00    +0.000 OA
ATOM      2  C   UNL     1       0.589  10.701  19.522  0.00  0.00    +0.000 C 
ATOM      3  N   UNL     1       1.432   9.590  19.474  0.00  0.00    +0.000 N 
ATOM      4  C   UNL     1       1.529   8.509  20.461  0.00  0.00    +0.000 C 
ATOM      5  C   UNL     1       1.332   7.124  19.831  0.00  0.00    +0.000 C 
ATOM      6  N   UNL     1       2.208   6.937  18.674  0.00  0.00    +0.000 N 
ATOM      7  C   UNL     1       3.177   5.961  18.650  0.00  0.00    +0.000 C 
ATOM      8  N   UNL     1       4.440   6.187  18.422  0.00  0.00    +0.000 NA
ATOM      9  S   UNL     1       5.304   4.788  18.493  0.00  0.00    +0.000 S 
ATOM     10  O   UNL     1       6.102   4.756  19.699  0.00  0.00    +0.000 OA
ATOM     11  O   UNL     1       5.846   4.468  17.189  0.00  0.00    +0.000 OA
ATOM     12  C   UNL     1       3.940   3.745  18.754  0.00  0.00    +0.000 A 
ATOM     13  C   UNL     1       3.902   2.366  18.808  0.00  0.00    +0.000 A 
ATOM     14  C   UNL     1       2.645   1.773  18.971  0.00  0.00    +0.000 A 
ATOM     15  C   UNL     1       1.485   2.562  19.071  0.00  0.00    +0.000 A 
ATOM     16  C   UNL     1       1.560   3.957  18.997  0.00  0.00    +0.000 A 
ATOM     17  C   UNL     1       2.812   4.533  18.848  0.00  0.00    +0.000 A 
ATOM     18  C   UNL     1       2.168   8.018  17.675  0.00  0.00    +0.000 C 
ATOM     19  C   UNL     1       2.317   9.411  18.312  0.00  0.00    +0.000 C 
ENDROOT
BRANCH   2  20
ATOM     20  C   UNL     1      -0.214  10.988  20.746  0.00  0.00    +0.000 A 
ATOM     21  C   UNL     1      -1.188  11.999  20.685  0.00  0.00    +0.000 A 
ATOM     22  C   UNL     1      -2.006  12.257  21.789  0.00  0.00    +0.000 A 
ATOM     23  C   UNL     1      -1.856  11.498  22.946  0.00  0.00    +0.000 A 
ATOM     24  F   UNL     1      -2.672  11.707  23.986  0.00  0.00    +0.000 F 
ATOM     25  C   UNL     1      -0.863  10.531  23.040  0.00  0.00    +0.000 A 
ATOM     26  C   UNL     1      -0.009  10.314  21.957  0.00  0.00    +0.000 A 
ENDBRANCH   2  20
TORSDOF 1
ENDMDL
MODEL 5
REMARK VINA RESULT:      -7.3      0.631      1.120
REMARK  Name = 
REMARK  1 active torsions:
REMARK  status: ('A' for Active; 'I' for Inactive)
REMARK    1  A    between atoms: C_2  and  C_3
REMARK                            x       y       z     vdW  Elec       q    Type
REMARK                         _______ _______ _______ _____ _____    ______ ____
ROOT
ATOM      1  O   UNL     1       0.562  10.243  22.192  0.00  0.00    +0.000 OA
ATOM      2  C   UNL     1       0.603  10.218  20.963  0.00  0.00    +0.000 C 
ATOM      3  N   UNL     1       0.949   9.069  20.252  0.00  0.00    +0.000 N 
ATOM      4  C   UNL     1       1.228   8.968  18.814  0.00  0.00    +0.000 C 
ATOM      5  C   UNL     1       2.597   8.337  18.528  0.00  0.00    +0.000 C 
ATOM      6  N   UNL     1       2.758   7.070  19.243  0.00  0.00    +0.000 N 
ATOM      7  C   UNL     1       2.928   5.879  18.577  0.00  0.00    +0.000 C 
ATOM      8  N   UNL     1       2.173   4.830  18.746  0.00  0.00    +0.000 NA
ATOM      9  S   UNL     1       2.659   3.600  17.767  0.00  0.00    +0.000 S 
ATOM     10  O   UNL     1       1.711   3.416  16.689  0.00  0.00    +0.000 OA
ATOM     11  O   UNL     1       3.162   2.497  18.560  0.00  0.00    +0.000 OA
ATOM     12  C   UNL     1       4.034   4.427  17.103  0.00  0.00    +0.000 A 
ATOM     13  C   UNL     1       5.010   3.944  16.255  0.00  0.00    +0.000 A 
ATOM     14  C   UNL     1       6.050   4.819  15.922  0.00  0.00    +0.000 A 
ATOM     15  C   UNL     1       6.084   6.126  16.439  0.00  0.00    +0.000 A 
ATOM     16  C   UNL     1       5.086   6.577  17.309  0.00  0.00    +0.000 A 
ATOM     17  C   UNL     1       4.054   5.706  17.622  0.00  0.00    +0.000 A 
ATOM     18  C   UNL     1       2.453   7.119  20.683  0.00  0.00    +0.000 C 
ATOM     19  C   UNL     1       1.101   7.796  20.974  0.00  0.00    +0.000 C 
ENDROOT
BRANCH   2  20
ATOM     20  C   UNL     1       0.303  11.490  20.245  0.00  0.00    +0.000 A 
ATOM     21  C   UNL     1       1.273  12.506  20.249  0.00  0.00    +0.000 A 
ATOM     22  C   UNL     1       1.058  13.690  19.536  0.00  0.00    +0.000 A 
ATOM     23  C   UNL     1      -0.119  13.850  18.813  0.00  0.00    +0.000 A 
ATOM     24  F   UNL     1      -0.306  14.959  18.087  0.00  0.00    +0.000 F 
ATOM     25  C   UNL     1      -1.111  12.878  18.842  0.00  0.00    +0.000 A 
ATOM     26  C   UNL     1      -0.920  11.721  19.602  0.00  0.00    +0.000 A 
ENDBRANCH   2  20
TORSDOF 1
ENDMDL
MODEL 6
REMARK VINA RESULT:      -7.3      3.479      8.253
REMARK  Name = 
REMARK  1 active torsions:
REMARK  status: ('A' for Active; 'I' for Inactive)
REMARK    1  A    between atoms: C_2  and  C_3
REMARK                            x       y       z     vdW  Elec       q    Type
REMARK                         _______ _______ _______ _____ _____    ______ ____
ROOT
ATOM      1  O   UNL     1       3.886   2.857  17.733  0.00  0.00    +0.000 OA
ATOM      2  C   UNL     1       4.300   4.010  17.626  0.00  0.00    +0.000 C 
ATOM      3  N   UNL     1       3.820   5.052  18.420  0.00  0.00    +0.000 N 
ATOM      4  C   UNL     1       4.082   6.486  18.253  0.00  0.00    +0.000 C 
ATOM      5  C   UNL     1       2.791   7.309  18.159  0.00  0.00    +0.000 C 
ATOM      6  N   UNL     1       1.887   7.008  19.269  0.00  0.00    +0.000 N 
ATOM      7  C   UNL     1       1.521   7.967  20.185  0.00  0.00    +0.000 C 
ATOM      8  N   UNL     1       1.674   7.846  21.474  0.00  0.00    +0.000 NA
ATOM      9  S   UNL     1       1.144   9.196  22.252  0.00  0.00    +0.000 S 
ATOM     10  O   UNL     1       2.268   9.957  22.751  0.00  0.00    +0.000 OA
ATOM     11  O   UNL     1      -0.011   8.883  23.067  0.00  0.00    +0.000 OA
ATOM     12  C   UNL     1       0.567  10.010  20.830  0.00  0.00    +0.000 A 
ATOM     13  C   UNL     1      -0.126  11.200  20.735  0.00  0.00    +0.000 A 
ATOM     14  C   UNL     1      -0.528  11.599  19.455  0.00  0.00    +0.000 A 
ATOM     15  C   UNL     1      -0.231  10.809  18.330  0.00  0.00    +0.000 A 
ATOM     16  C   UNL     1       0.460   9.601  18.466  0.00  0.00    +0.000 A 
ATOM     17  C   UNL     1       0.863   9.222  19.737  0.00  0.00    +0.000 A 
ATOM     18  C   UNL     1       1.624   5.576  19.495  0.00  0.00    +0.000 C 
ATOM     19  C   UNL     1       2.918   4.743  19.541  0.00  0.00    +0.000 C 
ENDROOT
BRANCH   2  20
ATOM     20  C   UNL     1       5.325   4.272  16.575  0.00  0.00    +0.000 A 
ATOM     21  C   UNL     1       4.930   4.211  15.227  0.00  0.00    +0.000 A 
ATOM     22  C   UNL     1       5.844   4.511  14.211  0.00  0.00    +0.000 A 
ATOM     23  C   UNL     1       7.143   4.880  14.545  0.00  0.00    +0.000 A 
ATOM     24  F   UNL     1       8.005   5.219  13.579  0.00  0.00    +0.000 F 
ATOM     25  C   UNL     1       7.563   4.893  15.869  0.00  0.00    +0.000 A 
ATOM     26  C   UNL     1       6.666   4.537  16.879  0.00  0.00    +0.000 A 
ENDBRANCH   2  20
TORSDOF 1
ENDMDL
MODEL 7
REMARK VINA RESULT:      -7.1      3.601      8.285
REMARK  Name = 
REMARK  1 active torsions:
REMARK  status: ('A' for Active; 'I' for Inactive)
REMARK    1  A    between atoms: C_2  and  C_3
REMARK                            x       y       z     vdW  Elec       q    Type
REMARK                         _______ _______ _______ _____ _____    ______ ____
ROOT
ATOM      1  O   UNL     1       4.006   3.928  19.287  0.00  0.00    +0.000 OA
ATOM      2  C   UNL     1       4.165   4.976  18.665  0.00  0.00    +0.000 C 
ATOM      3  N   UNL     1       3.564   6.173  19.053  0.00  0.00    +0.000 N 
ATOM      4  C   UNL     1       3.512   7.427  18.292  0.00  0.00    +0.000 C 
ATOM      5  C   UNL     1       2.078   7.938  18.106  0.00  0.00    +0.000 C 
ATOM      6  N   UNL     1       1.367   8.003  19.383  0.00  0.00    +0.000 N 
ATOM      7  C   UNL     1       0.906   9.194  19.895  0.00  0.00    +0.000 C 
ATOM      8  N   UNL     1       1.207   9.649  21.079  0.00  0.00    +0.000 NA
ATOM      9  S   UNL     1       0.494  11.108  21.341  0.00  0.00    +0.000 S 
ATOM     10  O   UNL     1       1.484  12.162  21.297  0.00  0.00    +0.000 OA
ATOM     11  O   UNL     1      -0.488  11.003  22.400  0.00  0.00    +0.000 OA
ATOM     12  C   UNL     1      -0.374  11.159  19.837  0.00  0.00    +0.000 A 
ATOM     13  C   UNL     1      -1.300  12.085  19.401  0.00  0.00    +0.000 A 
ATOM     14  C   UNL     1      -1.898  11.848  18.159  0.00  0.00    +0.000 A 
ATOM     15  C   UNL     1      -1.559  10.711  17.403  0.00  0.00    +0.000 A 
ATOM     16  C   UNL     1      -0.628   9.785  17.883  0.00  0.00    +0.000 A 
ATOM     17  C   UNL     1      -0.033  10.037  19.110  0.00  0.00    +0.000 A 
ATOM     18  C   UNL     1       1.424   6.777  20.197  0.00  0.00    +0.000 C 
ATOM     19  C   UNL     1       2.858   6.236  20.343  0.00  0.00    +0.000 C 
ENDROOT
BRANCH   2  20
ATOM     20  C   UNL     1       5.006   4.917  17.435  0.00  0.00    +0.000 A 
ATOM     21  C   UNL     1       6.364   5.266  17.535  0.00  0.00    +0.000 A 
ATOM     22  C   UNL     1       7.202   5.165  16.421  0.00  0.00    +0.000 A 
ATOM     23  C   UNL     1       6.685   4.705  15.214  0.00  0.00    +0.000 A 
ATOM     24  F   UNL     1       7.496   4.556  14.159  0.00  0.00    +0.000 F 
ATOM     25  C   UNL     1       5.335   4.407  15.084  0.00  0.00    +0.000 A 
ATOM     26  C   UNL     1       4.487   4.564  16.183  0.00  0.00    +0.000 A 
ENDBRANCH   2  20
TORSDOF 1
ENDMDL
MODEL 8
REMARK VINA RESULT:      -7.0      2.839      3.758
REMARK  Name = 
REMARK  1 active torsions:
REMARK  status: ('A' for Active; 'I' for Inactive)
REMARK    1  A    between atoms: C_2  and  C_3
REMARK                            x       y       z     vdW  Elec       q    Type
REMARK                         _______ _______ _______ _____ _____    ______ ____
ROOT
ATOM      1  O   UNL     1       0.144  11.127  18.296  0.00  0.00    +0.000 OA
ATOM      2  C   UNL     1       0.398  10.496  19.321  0.00  0.00    +0.000 C 
ATOM      3  N   UNL     1       1.340   9.467  19.349  0.00  0.00    +0.000 N 
ATOM      4  C   UNL     1       1.583   8.518  20.442  0.00  0.00    +0.000 C 
ATOM      5  C   UNL     1       1.492   7.059  19.979  0.00  0.00    +0.000 C 
ATOM      6  N   UNL     1       2.331   6.821  18.804  0.00  0.00    +0.000 N 
ATOM      7  C   UNL     1       3.387   5.940  18.835  0.00  0.00    +0.000 C 
ATOM      8  N   UNL     1       4.612   6.252  18.516  0.00  0.00    +0.000 NA
ATOM      9  S   UNL     1       5.608   4.954  18.693  0.00  0.00    +0.000 S 
ATOM     10  O   UNL     1       6.456   5.132  19.851  0.00  0.00    +0.000 OA
ATOM     11  O   UNL     1       6.122   4.538  17.405  0.00  0.00    +0.000 OA
ATOM     12  C   UNL     1       4.362   3.829  19.139  0.00  0.00    +0.000 A 
ATOM     13  C   UNL     1       4.459   2.467  19.346  0.00  0.00    +0.000 A 
ATOM     14  C   UNL     1       3.273   1.785  19.639  0.00  0.00    +0.000 A 
ATOM     15  C   UNL     1       2.048   2.473  19.715  0.00  0.00    +0.000 A 
ATOM     16  C   UNL     1       1.986   3.851  19.485  0.00  0.00    +0.000 A 
ATOM     17  C   UNL     1       3.169   4.518  19.207  0.00  0.00    +0.000 A 
ATOM     18  C   UNL     1       2.145   7.773  17.696  0.00  0.00    +0.000 C 
ATOM     19  C   UNL     1       2.188   9.238  18.168  0.00  0.00    +0.000 C 
ENDROOT
BRANCH   2  20
ATOM     20  C   UNL     1      -0.376  10.846  20.547  0.00  0.00    +0.000 A 
ATOM     21  C   UNL     1      -0.132  10.117  21.723  0.00  0.00    +0.000 A 
ATOM     22  C   UNL     1      -0.790  10.454  22.910  0.00  0.00    +0.000 A 
ATOM     23  C   UNL     1      -1.680  11.523  22.921  0.00  0.00    +0.000 A 
ATOM     24  F   UNL     1      -2.272  11.881  24.067  0.00  0.00    +0.000 F 
ATOM     25  C   UNL     1      -1.972  12.219  21.755  0.00  0.00    +0.000 A 
ATOM     26  C   UNL     1      -1.358  11.845  20.558  0.00  0.00    +0.000 A 
ENDBRANCH   2  20
TORSDOF 1
ENDMDL
MODEL 9
REMARK VINA RESULT:      -6.6      4.207      8.649
REMARK  Name = 
REMARK  1 active torsions:
REMARK  status: ('A' for Active; 'I' for Inactive)
REMARK    1  A    between atoms: C_2  and  C_3
REMARK                            x       y       z     vdW  Elec       q    Type
REMARK                         _______ _______ _______ _____ _____    ______ ____
ROOT
ATOM      1  O   UNL     1       4.929   6.491  17.102  0.00  0.00    +0.000 OA
ATOM      2  C   UNL     1       3.890   6.123  17.648  0.00  0.00    +0.000 C 
ATOM      3  N   UNL     1       2.841   7.000  17.923  0.00  0.00    +0.000 N 
ATOM      4  C   UNL     1       1.652   6.731  18.741  0.00  0.00    +0.000 C 
ATOM      5  C   UNL     1       1.470   7.761  19.863  0.00  0.00    +0.000 C 
ATOM      6  N   UNL     1       1.521   9.128  19.342  0.00  0.00    +0.000 N 
ATOM      7  C   UNL     1       0.444   9.978  19.434  0.00  0.00    +0.000 C 
ATOM      8  N   UNL     1      -0.102  10.583  18.416  0.00  0.00    +0.000 NA
ATOM      9  S   UNL     1      -1.379  11.500  18.900  0.00  0.00    +0.000 S 
ATOM     10  O   UNL     1      -2.621  10.884  18.487  0.00  0.00    +0.000 OA
ATOM     11  O   UNL     1      -1.096  12.905  18.688  0.00  0.00    +0.000 OA
ATOM     12  C   UNL     1      -1.194  11.188  20.599  0.00  0.00    +0.000 A 
ATOM     13  C   UNL     1      -1.884  11.736  21.661  0.00  0.00    +0.000 A 
ATOM     14  C   UNL     1      -1.485  11.348  22.944  0.00  0.00    +0.000 A 
ATOM     15  C   UNL     1      -0.425  10.440  23.125  0.00  0.00    +0.000 A 
ATOM     16  C   UNL     1       0.261   9.916  22.025  0.00  0.00    +0.000 A 
ATOM     17  C   UNL     1      -0.151  10.299  20.758  0.00  0.00    +0.000 A 
ATOM     18  C   UNL     1       2.680   9.431  18.486  0.00  0.00    +0.000 C 
ATOM     19  C   UNL     1       2.892   8.371  17.390  0.00  0.00    +0.000 C 
ENDROOT
BRANCH   2  20
ATOM     20  C   UNL     1       3.803   4.690  18.052  0.00  0.00    +0.000 A 
ATOM     21  C   UNL     1       3.037   3.818  17.260  0.00  0.00    +0.000 A 
ATOM     22  C   UNL     1       2.979   2.455  17.567  0.00  0.00    +0.000 A 
ATOM     23  C   UNL     1       3.695   1.966  18.655  0.00  0.00    +0.000 A 
ATOM     24  F   UNL     1       3.685   0.654  18.920  0.00  0.00    +0.000 F 
ATOM     25  C   UNL     1       4.414   2.823  19.478  0.00  0.00    +0.000 A 
ATOM     26  C   UNL     1       4.424   4.193  19.205  0.00  0.00    +0.000 A 
ENDBRANCH   2  20
TORSDOF 1
ENDMDL
