MODEL 1
REMARK VINA RESULT:      -8.3      0.000      0.000
REMARK  Name = 
REMARK  3 active torsions:
REMARK  status: ('A' for Active; 'I' for Inactive)
REMARK    1  A    between atoms: N_3  and  C_4
REMARK    2  A    between atoms: N_16  and  C_17
REMARK    3  A    between atoms: C_22  and  C_23
REMARK                            x       y       z     vdW  Elec       q    Type
REMARK                         _______ _______ _______ _____ _____    ______ ____
ROOT
ATOM      1  O   UNL     1       2.001   9.413  17.339  0.00  0.00    +0.000 OA
ATOM      2  C   UNL     1       1.776   8.993  18.464  0.00  0.00    +0.000 C 
ATOM      3  N   UNL     1       2.179   7.747  18.995  0.00  0.00    +0.000 N 
ATOM      4  C   UNL     1       1.585   7.554  20.292  0.00  0.00    +0.000 C 
ATOM      5  C   UNL     1       1.152   8.953  20.708  0.00  0.00    +0.000 C 
ATOM      6  N   UNL     1       1.056   9.677  19.473  0.00  0.00    +0.000 N 
ENDROOT
BRANCH   3   7
ATOM      7  C   UNL     1       2.911   6.755  18.297  0.00  0.00    +0.000 A 
ATOM      8  C   UNL     1       2.507   5.419  18.314  0.00  0.00    +0.000 A 
ATOM      9  C   UNL     1       3.221   4.419  17.648  0.00  0.00    +0.000 A 
ATOM     10  C   UNL     1       4.379   4.774  16.946  0.00  0.00    +0.000 A 
ATOM     11  S   UNL     1       5.421   3.722  16.062  0.00  0.00    +0.000 S 
ATOM     12  C   UNL     1       6.443   4.996  15.646  0.00  0.00    +0.000 A 
ATOM     13  F   UNL     1       7.525   4.852  14.926  0.00  0.00    +0.000 F 
ATOM     14  C   UNL     1       6.035   6.206  16.137  0.00  0.00    +0.000 A 
ATOM     15  C   UNL     1       4.820   6.099  16.893  0.00  0.00    +0.000 A 
ATOM     16  C   UNL     1       4.060   7.092  17.567  0.00  0.00    +0.000 A 
ENDBRANCH   3   7
BRANCH   6  17
ATOM     17  C   UNL     1       0.424  10.942  19.279  0.00  0.00    +0.000 A 
ATOM     18  C   UNL     1       0.928  12.061  19.970  0.00  0.00    +0.000 A 
ATOM     19  N   UNL     1       0.434  13.320  19.914  0.00  0.00    +0.000 NA
ATOM     20  C   UNL     1      -0.642  13.491  19.143  0.00  0.00    +0.000 A 
ATOM     21  C   UNL     1      -1.222  12.469  18.408  0.00  0.00    +0.000 A 
ATOM     22  C   UNL     1      -0.695  11.159  18.434  0.00  0.00    +0.000 A 
BRANCH  22  23
ATOM     23  C   UNL     1      -1.422  10.060  17.673  0.00  0.00    +0.000 C 
ATOM     24  C   UNL     1      -2.909   9.809  17.812  0.00  0.00    +0.000 C 
ATOM     25  C   UNL     1      -2.381  10.430  16.561  0.00  0.00    +0.000 C 
ENDBRANCH  22  23
ENDBRANCH   6  17
TORSDOF 3
ENDMDL
MODEL 2
REMARK VINA RESULT:      -7.9      4.301      8.434
REMARK  Name = 
REMARK  3 active torsions:
REMARK  status: ('A' for Active; 'I' for Inactive)
REMARK    1  A    between atoms: N_3  and  C_4
REMARK    2  A    between atoms: N_16  and  C_17
REMARK    3  A    between atoms: C_22  and  C_23
REMARK                            x       y       z     vdW  Elec       q    Type
REMARK                         _______ _______ _______ _____ _____    ______ ____
ROOT
ATOM      1  O   UNL     1       3.539   7.772  17.351  0.00  0.00    +0.000 OA
ATOM      2  C   UNL     1       3.362   6.867  18.153  0.00  0.00    +0.000 C 
ATOM      3  N   UNL     1       2.505   6.891  19.276  0.00  0.00    +0.000 N 
ATOM      4  C   UNL     1       2.695   5.700  20.061  0.00  0.00    +0.000 C 
ATOM      5  C   UNL     1       3.400   4.743  19.109  0.00  0.00    +0.000 C 
ATOM      6  N   UNL     1       3.989   5.599  18.117  0.00  0.00    +0.000 N 
ENDROOT
BRANCH   3   7
ATOM      7  C   UNL     1       1.705   7.990  19.676  0.00  0.00    +0.000 A 
ATOM      8  C   UNL     1       1.423   9.033  18.793  0.00  0.00    +0.000 A 
ATOM      9  C   UNL     1       0.651  10.136  19.168  0.00  0.00    +0.000 A 
ATOM     10  C   UNL     1       0.150  10.193  20.474  0.00  0.00    +0.000 A 
ATOM     11  S   UNL     1      -0.811  11.447  21.165  0.00  0.00    +0.000 S 
ATOM     12  C   UNL     1      -0.867  10.658  22.653  0.00  0.00    +0.000 A 
ATOM     13  F   UNL     1      -1.490  11.132  23.700  0.00  0.00    +0.000 F 
ATOM     14  C   UNL     1      -0.195   9.467  22.666  0.00  0.00    +0.000 A 
ATOM     15  C   UNL     1       0.401   9.170  21.394  0.00  0.00    +0.000 A 
ATOM     16  C   UNL     1       1.174   8.056  20.973  0.00  0.00    +0.000 A 
ENDBRANCH   3   7
BRANCH   6  17
ATOM     17  C   UNL     1       4.984   5.230  17.163  0.00  0.00    +0.000 A 
ATOM     18  C   UNL     1       4.700   4.188  16.260  0.00  0.00    +0.000 A 
ATOM     19  N   UNL     1       5.536   3.705  15.312  0.00  0.00    +0.000 NA
ATOM     20  C   UNL     1       6.746   4.269  15.258  0.00  0.00    +0.000 A 
ATOM     21  C   UNL     1       7.137   5.308  16.088  0.00  0.00    +0.000 A 
ATOM     22  C   UNL     1       6.260   5.841  17.059  0.00  0.00    +0.000 A 
BRANCH  22  23
ATOM     23  C   UNL     1       6.773   6.925  17.996  0.00  0.00    +0.000 C 
ATOM     24  C   UNL     1       8.155   6.889  18.615  0.00  0.00    +0.000 C 
ATOM     25  C   UNL     1       7.861   7.866  17.524  0.00  0.00    +0.000 C 
ENDBRANCH  22  23
ENDBRANCH   6  17
TORSDOF 3
ENDMDL
MODEL 3
REMARK VINA RESULT:      -7.7      1.202      1.410
REMARK  Name = 
REMARK  3 active torsions:
REMARK  status: ('A' for Active; 'I' for Inactive)
REMARK    1  A    between atoms: N_3  and  C_4
REMARK    2  A    between atoms: N_16  and  C_17
REMARK    3  A    between atoms: C_22  and  C_23
REMARK                            x       y       z     vdW  Elec       q    Type
REMARK                         _______ _______ _______ _____ _____    ______ ____
ROOT
ATOM      1  O   UNL     1       1.780   9.236  17.878  0.00  0.00    +0.000 OA
ATOM      2  C   UNL     1       1.541   9.139  19.072  0.00  0.00    +0.000 C 
ATOM      3  N   UNL     1       1.766   8.007  19.888  0.00  0.00    +0.000 N 
ATOM      4  C   UNL     1       1.207   8.228  21.195  0.00  0.00    +0.000 C 
ATOM      5  C   UNL     1       1.017   9.737  21.262  0.00  0.00    +0.000 C 
ATOM      6  N   UNL     1       0.982  10.152  19.887  0.00  0.00    +0.000 N 
ENDROOT
BRANCH   3   7
ATOM      7  C   UNL     1       2.302   6.771  19.448  0.00  0.00    +0.000 A 
ATOM      8  C   UNL     1       2.028   5.585  20.132  0.00  0.00    +0.000 A 
ATOM      9  C   UNL     1       2.558   4.357  19.729  0.00  0.00    +0.000 A 
ATOM     10  C   UNL     1       3.392   4.321  18.605  0.00  0.00    +0.000 A 
ATOM     11  S   UNL     1       4.165   2.935  17.929  0.00  0.00    +0.000 S 
ATOM     12  C   UNL     1       4.896   3.863  16.726  0.00  0.00    +0.000 A 
ATOM     13  F   UNL     1       5.690   3.368  15.812  0.00  0.00    +0.000 F 
ATOM     14  C   UNL     1       4.581   5.192  16.794  0.00  0.00    +0.000 A 
ATOM     15  C   UNL     1       3.692   5.480  17.884  0.00  0.00    +0.000 A 
ATOM     16  C   UNL     1       3.121   6.709  18.311  0.00  0.00    +0.000 A 
ENDBRANCH   3   7
BRANCH   6  17
ATOM     17  C   UNL     1       0.548  11.419  19.395  0.00  0.00    +0.000 A 
ATOM     18  C   UNL     1       1.377  12.540  19.596  0.00  0.00    +0.000 A 
ATOM     19  N   UNL     1       1.107  13.810  19.212  0.00  0.00    +0.000 NA
ATOM     20  C   UNL     1      -0.069  13.999  18.608  0.00  0.00    +0.000 A 
ATOM     21  C   UNL     1      -0.964  12.973  18.347  0.00  0.00    +0.000 A 
ATOM     22  C   UNL     1      -0.676  11.639  18.714  0.00  0.00    +0.000 A 
BRANCH  22  23
ATOM     23  C   UNL     1      -1.731  10.569  18.477  0.00  0.00    +0.000 C 
ATOM     24  C   UNL     1      -2.931  10.782  17.577  0.00  0.00    +0.000 C 
ATOM     25  C   UNL     1      -1.819   9.894  17.124  0.00  0.00    +0.000 C 
ENDBRANCH  22  23
ENDBRANCH   6  17
TORSDOF 3
ENDMDL
MODEL 4
REMARK VINA RESULT:      -7.6      1.102      2.291
REMARK  Name = 
REMARK  3 active torsions:
REMARK  status: ('A' for Active; 'I' for Inactive)
REMARK    1  A    between atoms: N_3  and  C_4
REMARK    2  A    between atoms: N_16  and  C_17
REMARK    3  A    between atoms: C_22  and  C_23
REMARK                            x       y       z     vdW  Elec       q    Type
REMARK                         _______ _______ _______ _____ _____    ______ ____
ROOT
ATOM      1  O   UNL     1       1.539   9.205  17.306  0.00  0.00    +0.000 OA
ATOM      2  C   UNL     1       1.530   8.873  18.481  0.00  0.00    +0.000 C 
ATOM      3  N   UNL     1       2.158   7.738  19.042  0.00  0.00    +0.000 N 
ATOM      4  C   UNL     1       1.783   7.606  20.425  0.00  0.00    +0.000 C 
ATOM      5  C   UNL     1       1.241   8.981  20.790  0.00  0.00    +0.000 C 
ATOM      6  N   UNL     1       0.880   9.567  19.530  0.00  0.00    +0.000 N 
ENDROOT
BRANCH   3   7
ATOM      7  C   UNL     1       2.903   6.772  18.322  0.00  0.00    +0.000 A 
ATOM      8  C   UNL     1       2.518   5.430  18.310  0.00  0.00    +0.000 A 
ATOM      9  C   UNL     1       3.245   4.455  17.621  0.00  0.00    +0.000 A 
ATOM     10  C   UNL     1       4.397   4.842  16.926  0.00  0.00    +0.000 A 
ATOM     11  S   UNL     1       5.453   3.824  16.018  0.00  0.00    +0.000 S 
ATOM     12  C   UNL     1       6.456   5.122  15.630  0.00  0.00    +0.000 A 
ATOM     13  F   UNL     1       7.539   5.008  14.905  0.00  0.00    +0.000 F 
ATOM     14  C   UNL     1       6.032   6.315  16.147  0.00  0.00    +0.000 A 
ATOM     15  C   UNL     1       4.820   6.174  16.902  0.00  0.00    +0.000 A 
ATOM     16  C   UNL     1       4.047   7.141  17.599  0.00  0.00    +0.000 A 
ENDBRANCH   3   7
BRANCH   6  17
ATOM     17  C   UNL     1       0.073  10.727  19.335  0.00  0.00    +0.000 A 
ATOM     18  C   UNL     1      -1.320  10.565  19.201  0.00  0.00    +0.000 A 
ATOM     19  N   UNL     1      -2.220  11.554  18.991  0.00  0.00    +0.000 NA
ATOM     20  C   UNL     1      -1.718  12.787  18.884  0.00  0.00    +0.000 A 
ATOM     21  C   UNL     1      -0.368  13.072  19.008  0.00  0.00    +0.000 A 
ATOM     22  C   UNL     1       0.576  12.051  19.259  0.00  0.00    +0.000 A 
BRANCH  22  23
ATOM     23  C   UNL     1       2.054  12.412  19.303  0.00  0.00    +0.000 C 
ATOM     24  C   UNL     1       2.803  12.955  18.104  0.00  0.00    +0.000 C 
ATOM     25  C   UNL     1       2.470  13.866  19.239  0.00  0.00    +0.000 C 
ENDBRANCH  22  23
ENDBRANCH   6  17
TORSDOF 3
ENDMDL
MODEL 5
REMARK VINA RESULT:      -7.6      1.667      2.276
REMARK  Name = 
REMARK  3 active torsions:
REMARK  status: ('A' for Active; 'I' for Inactive)
REMARK    1  A    between atoms: N_3  and  C_4
REMARK    2  A    between atoms: N_16  and  C_17
REMARK    3  A    between atoms: C_22  and  C_23
REMARK                            x       y       z     vdW  Elec       q    Type
REMARK                         _______ _______ _______ _____ _____    ______ ____
ROOT
ATOM      1  O   UNL     1       1.676   9.465  17.827  0.00  0.00    +0.000 OA
ATOM      2  C   UNL     1       1.497   9.184  19.002  0.00  0.00    +0.000 C 
ATOM      3  N   UNL     1       1.878   7.987  19.650  0.00  0.00    +0.000 N 
ATOM      4  C   UNL     1       1.350   7.967  20.989  0.00  0.00    +0.000 C 
ATOM      5  C   UNL     1       0.999   9.423  21.265  0.00  0.00    +0.000 C 
ATOM      6  N   UNL     1       0.863  10.009  19.962  0.00  0.00    +0.000 N 
ENDROOT
BRANCH   3   7
ATOM      7  C   UNL     1       2.528   6.890  19.033  0.00  0.00    +0.000 A 
ATOM      8  C   UNL     1       3.428   7.086  17.984  0.00  0.00    +0.000 A 
ATOM      9  C   UNL     1       4.070   6.020  17.348  0.00  0.00    +0.000 A 
ATOM     10  C   UNL     1       3.795   4.716  17.779  0.00  0.00    +0.000 A 
ATOM     11  S   UNL     1       4.453   3.253  17.146  0.00  0.00    +0.000 S 
ATOM     12  C   UNL     1       3.556   2.320  18.227  0.00  0.00    +0.000 A 
ATOM     13  F   UNL     1       3.598   1.013  18.263  0.00  0.00    +0.000 F 
ATOM     14  C   UNL     1       2.773   3.060  19.068  0.00  0.00    +0.000 A 
ATOM     15  C   UNL     1       2.906   4.469  18.829  0.00  0.00    +0.000 A 
ATOM     16  C   UNL     1       2.285   5.578  19.464  0.00  0.00    +0.000 A 
ENDBRANCH   3   7
BRANCH   6  17
ATOM     17  C   UNL     1       0.274  11.273  19.658  0.00  0.00    +0.000 A 
ATOM     18  C   UNL     1       0.935  12.444  20.076  0.00  0.00    +0.000 A 
ATOM     19  N   UNL     1       0.504  13.713  19.888  0.00  0.00    +0.000 NA
ATOM     20  C   UNL     1      -0.670  13.844  19.264  0.00  0.00    +0.000 A 
ATOM     21  C   UNL     1      -1.408  12.767  18.799  0.00  0.00    +0.000 A 
ATOM     22  C   UNL     1      -0.951  11.440  18.962  0.00  0.00    +0.000 A 
BRANCH  22  23
ATOM     23  C   UNL     1      -1.842  10.295  18.504  0.00  0.00    +0.000 C 
ATOM     24  C   UNL     1      -3.109  10.510  17.702  0.00  0.00    +0.000 C 
ATOM     25  C   UNL     1      -1.903   9.938  17.034  0.00  0.00    +0.000 C 
ENDBRANCH  22  23
ENDBRANCH   6  17
TORSDOF 3
ENDMDL
MODEL 6
REMARK VINA RESULT:      -7.5      4.574      8.301
REMARK  Name = 
REMARK  3 active torsions:
REMARK  status: ('A' for Active; 'I' for Inactive)
REMARK    1  A    between atoms: N_3  and  C_4
REMARK    2  A    between atoms: N_16  and  C_17
REMARK    3  A    between atoms: C_22  and  C_23
REMARK                            x       y       z     vdW  Elec       q    Type
REMARK                         _______ _______ _______ _____ _____    ______ ____
ROOT
ATOM      1  O   UNL     1       1.827   6.935  20.709  0.00  0.00    +0.000 OA
ATOM      2  C   UNL     1       2.185   7.334  19.611  0.00  0.00    +0.000 C 
ATOM      3  N   UNL     1       1.767   8.520  18.967  0.00  0.00    +0.000 N 
ATOM      4  C   UNL     1       2.286   8.556  17.625  0.00  0.00    +0.000 C 
ATOM      5  C   UNL     1       3.412   7.531  17.640  0.00  0.00    +0.000 C 
ATOM      6  N   UNL     1       3.101   6.679  18.752  0.00  0.00    +0.000 N 
ENDROOT
BRANCH   3   7
ATOM      7  C   UNL     1       0.837   9.454  19.488  0.00  0.00    +0.000 A 
ATOM      8  C   UNL     1       0.199  10.373  18.654  0.00  0.00    +0.000 A 
ATOM      9  C   UNL     1      -0.709  11.315  19.145  0.00  0.00    +0.000 A 
ATOM     10  C   UNL     1      -0.981  11.334  20.519  0.00  0.00    +0.000 A 
ATOM     11  S   UNL     1      -2.049  12.401  21.352  0.00  0.00    +0.000 S 
ATOM     12  C   UNL     1      -1.686  11.691  22.837  0.00  0.00    +0.000 A 
ATOM     13  F   UNL     1      -2.206  12.081  23.972  0.00  0.00    +0.000 F 
ATOM     14  C   UNL     1      -0.790  10.662  22.747  0.00  0.00    +0.000 A 
ATOM     15  C   UNL     1      -0.371  10.429  21.394  0.00  0.00    +0.000 A 
ATOM     16  C   UNL     1       0.533   9.475  20.857  0.00  0.00    +0.000 A 
ENDBRANCH   3   7
BRANCH   6  17
ATOM     17  C   UNL     1       3.681   5.405  19.032  0.00  0.00    +0.000 A 
ATOM     18  C   UNL     1       5.077   5.320  19.192  0.00  0.00    +0.000 A 
ATOM     19  N   UNL     1       5.784   4.192  19.439  0.00  0.00    +0.000 NA
ATOM     20  C   UNL     1       5.073   3.064  19.514  0.00  0.00    +0.000 A 
ATOM     21  C   UNL     1       3.694   3.023  19.382  0.00  0.00    +0.000 A 
ATOM     22  C   UNL     1       2.945   4.199  19.157  0.00  0.00    +0.000 A 
BRANCH  22  23
ATOM     23  C   UNL     1       1.444   4.083  18.939  0.00  0.00    +0.000 C 
ATOM     24  C   UNL     1       0.739   2.753  18.767  0.00  0.00    +0.000 C 
ATOM     25  C   UNL     1       0.571   3.516  20.039  0.00  0.00    +0.000 C 
ENDBRANCH  22  23
ENDBRANCH   6  17
TORSDOF 3
ENDMDL
MODEL 7
REMARK VINA RESULT:      -7.5      3.970      8.189
REMARK  Name = 
REMARK  3 active torsions:
REMARK  status: ('A' for Active; 'I' for Inactive)
REMARK    1  A    between atoms: N_3  and  C_4
REMARK    2  A    between atoms: N_16  and  C_17
REMARK    3  A    between atoms: C_22  and  C_23
REMARK                            x       y       z     vdW  Elec       q    Type
REMARK                         _______ _______ _______ _____ _____    ______ ____
ROOT
ATOM      1  O   UNL     1       3.488   7.799  17.438  0.00  0.00    +0.000 OA
ATOM      2  C   UNL     1       3.338   6.865  18.211  0.00  0.00    +0.000 C 
ATOM      3  N   UNL     1       2.511   6.843  19.356  0.00  0.00    +0.000 N 
ATOM      4  C   UNL     1       2.728   5.625  20.092  0.00  0.00    +0.000 C 
ATOM      5  C   UNL     1       3.413   4.708  19.088  0.00  0.00    +0.000 C 
ATOM      6  N   UNL     1       3.971   5.602  18.113  0.00  0.00    +0.000 N 
ENDROOT
BRANCH   3   7
ATOM      7  C   UNL     1       1.716   7.921  19.817  0.00  0.00    +0.000 A 
ATOM      8  C   UNL     1       1.275   7.976  21.140  0.00  0.00    +0.000 A 
ATOM      9  C   UNL     1       0.477   9.020  21.614  0.00  0.00    +0.000 A 
ATOM     10  C   UNL     1       0.107  10.039  20.728  0.00  0.00    +0.000 A 
ATOM     11  S   UNL     1      -0.872  11.415  21.078  0.00  0.00    +0.000 S 
ATOM     12  C   UNL     1      -0.756  11.968  19.490  0.00  0.00    +0.000 A 
ATOM     13  F   UNL     1      -1.335  13.058  19.059  0.00  0.00    +0.000 F 
ATOM     14  C   UNL     1       0.004  11.164  18.685  0.00  0.00    +0.000 A 
ATOM     15  C   UNL     1       0.529  10.033  19.395  0.00  0.00    +0.000 A 
ATOM     16  C   UNL     1       1.354   8.965  18.952  0.00  0.00    +0.000 A 
ENDBRANCH   3   7
BRANCH   6  17
ATOM     17  C   UNL     1       4.942   5.275  17.120  0.00  0.00    +0.000 A 
ATOM     18  C   UNL     1       4.641   4.261  16.190  0.00  0.00    +0.000 A 
ATOM     19  N   UNL     1       5.455   3.818  15.203  0.00  0.00    +0.000 NA
ATOM     20  C   UNL     1       6.658   4.394  15.137  0.00  0.00    +0.000 A 
ATOM     21  C   UNL     1       7.065   5.406  15.991  0.00  0.00    +0.000 A 
ATOM     22  C   UNL     1       6.211   5.898  17.003  0.00  0.00    +0.000 A 
BRANCH  22  23
ATOM     23  C   UNL     1       6.741   6.954  17.962  0.00  0.00    +0.000 C 
ATOM     24  C   UNL     1       8.107   6.863  18.610  0.00  0.00    +0.000 C 
ATOM     25  C   UNL     1       7.871   7.861  17.525  0.00  0.00    +0.000 C 
ENDBRANCH  22  23
ENDBRANCH   6  17
TORSDOF 3
ENDMDL
MODEL 8
REMARK VINA RESULT:      -7.4      2.332      2.794
REMARK  Name = 
REMARK  3 active torsions:
REMARK  status: ('A' for Active; 'I' for Inactive)
REMARK    1  A    between atoms: N_3  and  C_4
REMARK    2  A    between atoms: N_16  and  C_17
REMARK    3  A    between atoms: C_22  and  C_23
REMARK                            x       y       z     vdW  Elec       q    Type
REMARK                         _______ _______ _______ _____ _____    ______ ____
ROOT
ATOM      1  O   UNL     1       0.545   8.719  20.786  0.00  0.00    +0.000 OA
ATOM      2  C   UNL     1       1.145   9.011  19.762  0.00  0.00    +0.000 C 
ATOM      3  N   UNL     1       1.929   8.144  18.967  0.00  0.00    +0.000 N 
ATOM      4  C   UNL     1       2.600   8.896  17.940  0.00  0.00    +0.000 C 
ATOM      5  C   UNL     1       1.828  10.207  17.884  0.00  0.00    +0.000 C 
ATOM      6  N   UNL     1       1.177  10.292  19.161  0.00  0.00    +0.000 N 
ENDROOT
BRANCH   3   7
ATOM      7  C   UNL     1       2.165   6.773  19.235  0.00  0.00    +0.000 A 
ATOM      8  C   UNL     1       2.018   6.257  20.524  0.00  0.00    +0.000 A 
ATOM      9  C   UNL     1       2.262   4.912  20.818  0.00  0.00    +0.000 A 
ATOM     10  C   UNL     1       2.669   4.061  19.783  0.00  0.00    +0.000 A 
ATOM     11  S   UNL     1       3.035   2.381  19.903  0.00  0.00    +0.000 S 
ATOM     12  C   UNL     1       3.413   2.290  18.263  0.00  0.00    +0.000 A 
ATOM     13  F   UNL     1       3.807   1.193  17.671  0.00  0.00    +0.000 F 
ATOM     14  C   UNL     1       3.270   3.480  17.603  0.00  0.00    +0.000 A 
ATOM     15  C   UNL     1       2.825   4.529  18.475  0.00  0.00    +0.000 A 
ATOM     16  C   UNL     1       2.551   5.898  18.209  0.00  0.00    +0.000 A 
ENDBRANCH   3   7
BRANCH   6  17
ATOM     17  C   UNL     1       0.561  11.449  19.723  0.00  0.00    +0.000 A 
ATOM     18  C   UNL     1       1.152  12.047  20.852  0.00  0.00    +0.000 A 
ATOM     19  N   UNL     1       0.686  13.131  21.516  0.00  0.00    +0.000 NA
ATOM     20  C   UNL     1      -0.452  13.654  21.052  0.00  0.00    +0.000 A 
ATOM     21  C   UNL     1      -1.121  13.159  19.944  0.00  0.00    +0.000 A 
ATOM     22  C   UNL     1      -0.625  12.048  19.226  0.00  0.00    +0.000 A 
BRANCH  22  23
ATOM     23  C   UNL     1      -1.444  11.498  18.067  0.00  0.00    +0.000 C 
ATOM     24  C   UNL     1      -2.236  10.210  18.159  0.00  0.00    +0.000 C 
ATOM     25  C   UNL     1      -2.957  11.518  18.146  0.00  0.00    +0.000 C 
ENDBRANCH  22  23
ENDBRANCH   6  17
TORSDOF 3
ENDMDL
MODEL 9
REMARK VINA RESULT:      -7.4      4.565      8.625
REMARK  Name = 
REMARK  3 active torsions:
REMARK  status: ('A' for Active; 'I' for Inactive)
REMARK    1  A    between atoms: N_3  and  C_4
REMARK    2  A    between atoms: N_16  and  C_17
REMARK    3  A    between atoms: C_22  and  C_23
REMARK                            x       y       z     vdW  Elec       q    Type
REMARK                         _______ _______ _______ _____ _____    ______ ____
ROOT
ATOM      1  O   UNL     1       1.670   6.197  20.535  0.00  0.00    +0.000 OA
ATOM      2  C   UNL     1       2.014   6.913  19.608  0.00  0.00    +0.000 C 
ATOM      3  N   UNL     1       1.736   8.291  19.457  0.00  0.00    +0.000 N 
ATOM      4  C   UNL     1       2.172   8.738  18.160  0.00  0.00    +0.000 C 
ATOM      5  C   UNL     1       3.134   7.650  17.702  0.00  0.00    +0.000 C 
ATOM      6  N   UNL     1       2.770   6.502  18.484  0.00  0.00    +0.000 N 
ENDROOT
BRANCH   3   7
ATOM      7  C   UNL     1       0.987   9.081  20.363  0.00  0.00    +0.000 A 
ATOM      8  C   UNL     1       1.063   8.864  21.740  0.00  0.00    +0.000 A 
ATOM      9  C   UNL     1       0.321   9.618  22.653  0.00  0.00    +0.000 A 
ATOM     10  C   UNL     1      -0.526  10.621  22.165  0.00  0.00    +0.000 A 
ATOM     11  S   UNL     1      -1.538  11.667  23.090  0.00  0.00    +0.000 S 
ATOM     12  C   UNL     1      -2.117  12.424  21.700  0.00  0.00    +0.000 A 
ATOM     13  F   UNL     1      -3.000  13.388  21.716  0.00  0.00    +0.000 F 
ATOM     14  C   UNL     1      -1.575  11.933  20.544  0.00  0.00    +0.000 A 
ATOM     15  C   UNL     1      -0.632  10.881  20.796  0.00  0.00    +0.000 A 
ATOM     16  C   UNL     1       0.150  10.106  19.897  0.00  0.00    +0.000 A 
ENDBRANCH   3   7
BRANCH   6  17
ATOM     17  C   UNL     1       3.173   5.154  18.247  0.00  0.00    +0.000 A 
ATOM     18  C   UNL     1       2.195   4.214  17.867  0.00  0.00    +0.000 A 
ATOM     19  N   UNL     1       2.404   2.899  17.626  0.00  0.00    +0.000 NA
ATOM     20  C   UNL     1       3.658   2.469  17.789  0.00  0.00    +0.000 A 
ATOM     21  C   UNL     1       4.706   3.299  18.152  0.00  0.00    +0.000 A 
ATOM     22  C   UNL     1       4.504   4.680  18.374  0.00  0.00    +0.000 A 
BRANCH  22  23
ATOM     23  C   UNL     1       5.675   5.526  18.850  0.00  0.00    +0.000 C 
ATOM     24  C   UNL     1       7.118   5.176  18.549  0.00  0.00    +0.000 C 
ATOM     25  C   UNL     1       6.477   6.325  17.844  0.00  0.00    +0.000 C 
ENDBRANCH  22  23
ENDBRANCH   6  17
TORSDOF 3
ENDMDL
