MODEL 1
REMARK VINA RESULT:      -7.2      0.000      0.000
REMARK  Name = 
REMARK  1 active torsions:
REMARK  status: ('A' for Active; 'I' for Inactive)
REMARK    1  A    between atoms: C_1  and  N_2
REMARK                            x       y       z     vdW  Elec       q    Type
REMARK                         _______ _______ _______ _____ _____    ______ ____
ROOT
ATOM      1  C   UNL     1       3.665   1.998  17.841  0.00  0.00    +0.000 C 
ATOM      2  N   UNL     1       3.726   3.464  17.911  0.00  0.00    +0.000 N 
ATOM      3  C   UNL     1       4.470   4.336  17.169  0.00  0.00    +0.000 A 
ATOM      4  C   UNL     1       4.254   5.635  17.608  0.00  0.00    +0.000 A 
ATOM      5  C   UNL     1       3.327   5.550  18.628  0.00  0.00    +0.000 A 
ATOM      6  C   UNL     1       2.737   6.537  19.424  0.00  0.00    +0.000 A 
ATOM      7  C   UNL     1       1.810   6.130  20.399  0.00  0.00    +0.000 A 
ATOM      8  C   UNL     1       1.499   4.766  20.563  0.00  0.00    +0.000 A 
ATOM      9  C   UNL     1       2.112   3.791  19.754  0.00  0.00    +0.000 A 
ATOM     10  C   UNL     1       3.026   4.220  18.789  0.00  0.00    +0.000 A 
ATOM     11  C   UNL     1       4.937   6.862  17.095  0.00  0.00    +0.000 C 
ATOM     12  C   UNL     1       6.456   6.732  17.246  0.00  0.00    +0.000 C 
ATOM     13  N   UNL     1       7.058   5.873  16.213  0.00  0.00    +0.000 NA
ATOM     14  C   UNL     1       6.846   4.423  16.351  0.00  0.00    +0.000 C 
ATOM     15  C   UNL     1       5.408   3.987  16.049  0.00  0.00    +0.000 C 
ATOM     16  H   UNL     1       8.093   6.026  16.261  0.00  0.00    +0.000 HD
ENDROOT
TORSDOF 0
ENDMDL
MODEL 2
REMARK VINA RESULT:      -6.9      1.260      2.988
REMARK  Name = 
REMARK  1 active torsions:
REMARK  status: ('A' for Active; 'I' for Inactive)
REMARK    1  A    between atoms: C_1  and  N_2
REMARK                            x       y       z     vdW  Elec       q    Type
REMARK                         _______ _______ _______ _____ _____    ______ ____
ROOT
ATOM      1  C   UNL     1       2.462   7.042  18.814  0.00  0.00    +0.000 C 
ATOM      2  N   UNL     1       3.053   5.800  18.299  0.00  0.00    +0.000 N 
ATOM      3  C   UNL     1       4.181   5.623  17.548  0.00  0.00    +0.000 A 
ATOM      4  C   UNL     1       4.339   4.279  17.240  0.00  0.00    +0.000 A 
ATOM      5  C   UNL     1       3.291   3.617  17.848  0.00  0.00    +0.000 A 
ATOM      6  C   UNL     1       2.953   2.260  17.883  0.00  0.00    +0.000 A 
ATOM      7  C   UNL     1       1.802   1.886  18.600  0.00  0.00    +0.000 A 
ATOM      8  C   UNL     1       1.020   2.859  19.252  0.00  0.00    +0.000 A 
ATOM      9  C   UNL     1       1.379   4.219  19.196  0.00  0.00    +0.000 A 
ATOM     10  C   UNL     1       2.528   4.566  18.482  0.00  0.00    +0.000 A 
ATOM     11  C   UNL     1       5.413   3.694  16.380  0.00  0.00    +0.000 C 
ATOM     12  C   UNL     1       5.389   4.332  14.988  0.00  0.00    +0.000 C 
ATOM     13  N   UNL     1       5.996   5.673  14.965  0.00  0.00    +0.000 NA
ATOM     14  C   UNL     1       5.210   6.765  15.560  0.00  0.00    +0.000 C 
ATOM     15  C   UNL     1       5.128   6.694  17.088  0.00  0.00    +0.000 C 
ATOM     16  H   UNL     1       6.135   5.923  13.958  0.00  0.00    +0.000 HD
ENDROOT
TORSDOF 0
ENDMDL
MODEL 3
REMARK VINA RESULT:      -6.8      1.674      4.939
REMARK  Name = 
REMARK  1 active torsions:
REMARK  status: ('A' for Active; 'I' for Inactive)
REMARK    1  A    between atoms: C_1  and  N_2
REMARK                            x       y       z     vdW  Elec       q    Type
REMARK                         _______ _______ _______ _____ _____    ______ ____
ROOT
ATOM      1  C   UNL     1       2.539   7.061  18.300  0.00  0.00    +0.000 C 
ATOM      2  N   UNL     1       3.223   5.835  17.868  0.00  0.00    +0.000 N 
ATOM      3  C   UNL     1       2.757   4.551  17.829  0.00  0.00    +0.000 A 
ATOM      4  C   UNL     1       3.762   3.695  17.400  0.00  0.00    +0.000 A 
ATOM      5  C   UNL     1       4.862   4.489  17.144  0.00  0.00    +0.000 A 
ATOM      6  C   UNL     1       6.144   4.169  16.684  0.00  0.00    +0.000 A 
ATOM      7  C   UNL     1       7.066   5.219  16.519  0.00  0.00    +0.000 A 
ATOM      8  C   UNL     1       6.698   6.545  16.819  0.00  0.00    +0.000 A 
ATOM      9  C   UNL     1       5.404   6.839  17.286  0.00  0.00    +0.000 A 
ATOM     10  C   UNL     1       4.505   5.781  17.438  0.00  0.00    +0.000 A 
ATOM     11  C   UNL     1       3.664   2.208  17.291  0.00  0.00    +0.000 C 
ATOM     12  C   UNL     1       3.291   1.596  18.645  0.00  0.00    +0.000 C 
ATOM     13  N   UNL     1       1.861   1.743  18.961  0.00  0.00    +0.000 NA
ATOM     14  C   UNL     1       1.406   3.084  19.359  0.00  0.00    +0.000 C 
ATOM     15  C   UNL     1       1.377   4.086  18.199  0.00  0.00    +0.000 C 
ATOM     16  H   UNL     1       1.667   1.111  19.774  0.00  0.00    +0.000 HD
ENDROOT
TORSDOF 0
ENDMDL
MODEL 4
REMARK VINA RESULT:      -6.7      1.832      5.030
REMARK  Name = 
REMARK  1 active torsions:
REMARK  status: ('A' for Active; 'I' for Inactive)
REMARK    1  A    between atoms: C_1  and  N_2
REMARK                            x       y       z     vdW  Elec       q    Type
REMARK                         _______ _______ _______ _____ _____    ______ ____
ROOT
ATOM      1  C   UNL     1       2.277   7.515  19.183  0.00  0.00    +0.000 C 
ATOM      2  N   UNL     1       2.762   6.195  18.757  0.00  0.00    +0.000 N 
ATOM      3  C   UNL     1       2.463   4.960  19.257  0.00  0.00    +0.000 A 
ATOM      4  C   UNL     1       3.191   3.988  18.585  0.00  0.00    +0.000 A 
ATOM      5  C   UNL     1       3.931   4.652  17.627  0.00  0.00    +0.000 A 
ATOM      6  C   UNL     1       4.829   4.181  16.664  0.00  0.00    +0.000 A 
ATOM      7  C   UNL     1       5.438   5.122  15.815  0.00  0.00    +0.000 A 
ATOM      8  C   UNL     1       5.149   6.495  15.946  0.00  0.00    +0.000 A 
ATOM      9  C   UNL     1       4.246   6.943  16.928  0.00  0.00    +0.000 A 
ATOM     10  C   UNL     1       3.650   5.989  17.757  0.00  0.00    +0.000 A 
ATOM     11  C   UNL     1       3.191   2.523  18.886  0.00  0.00    +0.000 C 
ATOM     12  C   UNL     1       3.612   2.277  20.338  0.00  0.00    +0.000 C 
ATOM     13  N   UNL     1       2.530   2.551  21.298  0.00  0.00    +0.000 NA
ATOM     14  C   UNL     1       2.213   3.965  21.552  0.00  0.00    +0.000 C 
ATOM     15  C   UNL     1       1.510   4.652  20.377  0.00  0.00    +0.000 C 
ATOM     16  H   UNL     1       2.833   2.146  22.215  0.00  0.00    +0.000 HD
ENDROOT
TORSDOF 0
ENDMDL
MODEL 5
REMARK VINA RESULT:      -6.7      1.839      5.142
REMARK  Name = 
REMARK  1 active torsions:
REMARK  status: ('A' for Active; 'I' for Inactive)
REMARK    1  A    between atoms: C_1  and  N_2
REMARK                            x       y       z     vdW  Elec       q    Type
REMARK                         _______ _______ _______ _____ _____    ______ ____
ROOT
ATOM      1  C   UNL     1       6.647   5.472  19.380  0.00  0.00    +0.000 C 
ATOM      2  N   UNL     1       5.714   4.940  18.378  0.00  0.00    +0.000 N 
ATOM      3  C   UNL     1       4.438   4.480  18.541  0.00  0.00    +0.000 A 
ATOM      4  C   UNL     1       3.941   4.021  17.329  0.00  0.00    +0.000 A 
ATOM      5  C   UNL     1       4.936   4.237  16.397  0.00  0.00    +0.000 A 
ATOM      6  C   UNL     1       4.985   3.979  15.023  0.00  0.00    +0.000 A 
ATOM      7  C   UNL     1       6.162   4.318  14.331  0.00  0.00    +0.000 A 
ATOM      8  C   UNL     1       7.252   4.892  15.014  0.00  0.00    +0.000 A 
ATOM      9  C   UNL     1       7.179   5.135  16.398  0.00  0.00    +0.000 A 
ATOM     10  C   UNL     1       5.999   4.795  17.063  0.00  0.00    +0.000 A 
ATOM     11  C   UNL     1       2.608   3.380  17.110  0.00  0.00    +0.000 C 
ATOM     12  C   UNL     1       2.459   2.140  17.997  0.00  0.00    +0.000 C 
ATOM     13  N   UNL     1       2.153   2.475  19.397  0.00  0.00    +0.000 NA
ATOM     14  C   UNL     1       3.259   3.011  20.207  0.00  0.00    +0.000 C 
ATOM     15  C   UNL     1       3.655   4.441  19.823  0.00  0.00    +0.000 C 
ATOM     16  H   UNL     1       1.853   1.585  19.860  0.00  0.00    +0.000 HD
ENDROOT
TORSDOF 0
ENDMDL
MODEL 6
REMARK VINA RESULT:      -6.3      1.788      4.270
REMARK  Name = 
REMARK  1 active torsions:
REMARK  status: ('A' for Active; 'I' for Inactive)
REMARK    1  A    between atoms: C_1  and  N_2
REMARK                            x       y       z     vdW  Elec       q    Type
REMARK                         _______ _______ _______ _____ _____    ______ ____
ROOT
ATOM      1  C   UNL     1       4.607   5.251  16.806  0.00  0.00    +0.000 C 
ATOM      2  N   UNL     1       3.804   5.489  18.013  0.00  0.00    +0.000 N 
ATOM      3  C   UNL     1       3.529   4.645  19.051  0.00  0.00    +0.000 A 
ATOM      4  C   UNL     1       2.684   5.269  19.958  0.00  0.00    +0.000 A 
ATOM      5  C   UNL     1       2.464   6.542  19.469  0.00  0.00    +0.000 A 
ATOM      6  C   UNL     1       1.706   7.605  19.971  0.00  0.00    +0.000 A 
ATOM      7  C   UNL     1       1.678   8.800  19.231  0.00  0.00    +0.000 A 
ATOM      8  C   UNL     1       2.389   8.908  18.020  0.00  0.00    +0.000 A 
ATOM      9  C   UNL     1       3.139   7.821  17.534  0.00  0.00    +0.000 A 
ATOM     10  C   UNL     1       3.156   6.645  18.289  0.00  0.00    +0.000 A 
ATOM     11  C   UNL     1       2.102   4.651  21.188  0.00  0.00    +0.000 C 
ATOM     12  C   UNL     1       1.299   3.397  20.828  0.00  0.00    +0.000 C 
ATOM     13  N   UNL     1       2.156   2.232  20.555  0.00  0.00    +0.000 NA
ATOM     14  C   UNL     1       2.879   2.227  19.273  0.00  0.00    +0.000 C 
ATOM     15  C   UNL     1       4.029   3.238  19.220  0.00  0.00    +0.000 C 
ATOM     16  H   UNL     1       1.529   1.393  20.543  0.00  0.00    +0.000 HD
ENDROOT
TORSDOF 0
ENDMDL
MODEL 7
REMARK VINA RESULT:      -6.3      1.416      2.834
REMARK  Name = 
REMARK  1 active torsions:
REMARK  status: ('A' for Active; 'I' for Inactive)
REMARK    1  A    between atoms: C_1  and  N_2
REMARK                            x       y       z     vdW  Elec       q    Type
REMARK                         _______ _______ _______ _____ _____    ______ ____
ROOT
ATOM      1  C   UNL     1       2.313   7.645  18.881  0.00  0.00    +0.000 C 
ATOM      2  N   UNL     1       3.095   6.401  18.874  0.00  0.00    +0.000 N 
ATOM      3  C   UNL     1       4.239   6.101  18.191  0.00  0.00    +0.000 A 
ATOM      4  C   UNL     1       4.608   4.786  18.441  0.00  0.00    +0.000 A 
ATOM      5  C   UNL     1       3.675   4.283  19.325  0.00  0.00    +0.000 A 
ATOM      6  C   UNL     1       3.554   3.025  19.923  0.00  0.00    +0.000 A 
ATOM      7  C   UNL     1       2.473   2.812  20.797  0.00  0.00    +0.000 A 
ATOM      8  C   UNL     1       1.545   3.841  21.049  0.00  0.00    +0.000 A 
ATOM      9  C   UNL     1       1.686   5.097  20.430  0.00  0.00    +0.000 A 
ATOM     10  C   UNL     1       2.770   5.286  19.569  0.00  0.00    +0.000 A 
ATOM     11  C   UNL     1       5.764   4.065  17.826  0.00  0.00    +0.000 C 
ATOM     12  C   UNL     1       5.646   4.070  16.298  0.00  0.00    +0.000 C 
ATOM     13  N   UNL     1       6.035   5.358  15.702  0.00  0.00    +0.000 NA
ATOM     14  C   UNL     1       5.084   6.472  15.853  0.00  0.00    +0.000 C 
ATOM     15  C   UNL     1       5.009   7.017  17.283  0.00  0.00    +0.000 C 
ATOM     16  H   UNL     1       6.137   5.195  14.673  0.00  0.00    +0.000 HD
ENDROOT
TORSDOF 0
ENDMDL
MODEL 8
REMARK VINA RESULT:      -6.2      1.589      4.171
REMARK  Name = 
REMARK  1 active torsions:
REMARK  status: ('A' for Active; 'I' for Inactive)
REMARK    1  A    between atoms: C_1  and  N_2
REMARK                            x       y       z     vdW  Elec       q    Type
REMARK                         _______ _______ _______ _____ _____    ______ ____
ROOT
ATOM      1  C   UNL     1       6.069   4.558  17.766  0.00  0.00    +0.000 C 
ATOM      2  N   UNL     1       4.678   4.769  18.189  0.00  0.00    +0.000 N 
ATOM      3  C   UNL     1       3.812   3.897  18.785  0.00  0.00    +0.000 A 
ATOM      4  C   UNL     1       2.576   4.503  18.962  0.00  0.00    +0.000 A 
ATOM      5  C   UNL     1       2.706   5.792  18.485  0.00  0.00    +0.000 A 
ATOM      6  C   UNL     1       1.791   6.848  18.419  0.00  0.00    +0.000 A 
ATOM      7  C   UNL     1       2.228   8.065  17.868  0.00  0.00    +0.000 A 
ATOM      8  C   UNL     1       3.548   8.201  17.394  0.00  0.00    +0.000 A 
ATOM      9  C   UNL     1       4.447   7.121  17.466  0.00  0.00    +0.000 A 
ATOM     10  C   UNL     1       3.991   5.923  18.022  0.00  0.00    +0.000 A 
ATOM     11  C   UNL     1       1.349   3.854  19.519  0.00  0.00    +0.000 C 
ATOM     12  C   UNL     1       0.975   2.621  18.691  0.00  0.00    +0.000 C 
ATOM     13  N   UNL     1       1.821   1.455  18.993  0.00  0.00    +0.000 NA
ATOM     14  C   UNL     1       3.196   1.480  18.468  0.00  0.00    +0.000 C 
ATOM     15  C   UNL     1       4.104   2.480  19.192  0.00  0.00    +0.000 C 
ATOM     16  H   UNL     1       1.355   0.624  18.558  0.00  0.00    +0.000 HD
ENDROOT
TORSDOF 0
ENDMDL
MODEL 9
REMARK VINA RESULT:      -6.2      1.750      4.957
REMARK  Name = 
REMARK  1 active torsions:
REMARK  status: ('A' for Active; 'I' for Inactive)
REMARK    1  A    between atoms: C_1  and  N_2
REMARK                            x       y       z     vdW  Elec       q    Type
REMARK                         _______ _______ _______ _____ _____    ______ ____
ROOT
ATOM      1  C   UNL     1       2.714   7.480  17.817  0.00  0.00    +0.000 C 
ATOM      2  N   UNL     1       3.451   6.216  17.948  0.00  0.00    +0.000 N 
ATOM      3  C   UNL     1       2.989   4.975  18.285  0.00  0.00    +0.000 A 
ATOM      4  C   UNL     1       4.045   4.076  18.339  0.00  0.00    +0.000 A 
ATOM      5  C   UNL     1       5.177   4.787  17.995  0.00  0.00    +0.000 A 
ATOM      6  C   UNL     1       6.514   4.393  17.877  0.00  0.00    +0.000 A 
ATOM      7  C   UNL     1       7.457   5.367  17.502  0.00  0.00    +0.000 A 
ATOM      8  C   UNL     1       7.055   6.695  17.263  0.00  0.00    +0.000 A 
ATOM      9  C   UNL     1       5.704   7.067  17.395  0.00  0.00    +0.000 A 
ATOM     10  C   UNL     1       4.785   6.082  17.764  0.00  0.00    +0.000 A 
ATOM     11  C   UNL     1       3.956   2.638  18.738  0.00  0.00    +0.000 C 
ATOM     12  C   UNL     1       3.366   2.510  20.146  0.00  0.00    +0.000 C 
ATOM     13  N   UNL     1       1.905   2.685  20.168  0.00  0.00    +0.000 NA
ATOM     14  C   UNL     1       1.400   4.057  20.002  0.00  0.00    +0.000 C 
ATOM     15  C   UNL     1       1.565   4.597  18.577  0.00  0.00    +0.000 C 
ATOM     16  H   UNL     1       1.578   2.362  21.110  0.00  0.00    +0.000 HD
ENDROOT
TORSDOF 0
ENDMDL
