MODEL 1
REMARK VINA RESULT:      -8.3      0.000      0.000
REMARK  Name = 
REMARK  8 active torsions:
REMARK  status: ('A' for Active; 'I' for Inactive)
REMARK    1  A    between atoms: C_1  and  C_2
REMARK    2  A    between atoms: C_2  and  O_3
REMARK    3  A    between atoms: O_3  and  C_4
REMARK    4  A    between atoms: C_9  and  C_10
REMARK    5  A    between atoms: C_10  and  N_11
REMARK    6  A    between atoms: N_11  and  C_12
REMARK    7  A    between atoms: C_12  and  C_13
REMARK    8  A    between atoms: C_12  and  C_19
REMARK                            x       y       z     vdW  Elec       q    Type
REMARK                         _______ _______ _______ _____ _____    ______ ____
ROOT
ATOM      1  C   UNL     1       3.105   6.210  19.726  0.00  0.00    +0.000 C 
ENDROOT
BRANCH   1   2
ATOM      2  C   UNL     1       2.270   7.472  19.479  0.00  0.00    +0.000 A 
ATOM      3  C   UNL     1       2.179   8.094  18.215  0.00  0.00    +0.000 A 
ATOM      4  C   UNL     1       1.382   9.230  18.034  0.00  0.00    +0.000 A 
ATOM      5  C   UNL     1       0.670   9.767  19.108  0.00  0.00    +0.000 A 
ATOM      6  C   UNL     1       0.757   9.174  20.367  0.00  0.00    +0.000 A 
ATOM      7  C   UNL     1       1.550   8.037  20.553  0.00  0.00    +0.000 A 
ENDBRANCH   1   2
BRANCH   1   8
ATOM      8  C   UNL     1       2.251   4.946  19.584  0.00  0.00    +0.000 A 
ATOM      9  C   UNL     1       1.921   4.197  20.733  0.00  0.00    +0.000 A 
ATOM     10  C   UNL     1       1.142   3.038  20.633  0.00  0.00    +0.000 A 
ATOM     11  C   UNL     1       0.682   2.606  19.389  0.00  0.00    +0.000 A 
ATOM     12  C   UNL     1       1.005   3.330  18.241  0.00  0.00    +0.000 A 
ATOM     13  C   UNL     1       1.784   4.489  18.332  0.00  0.00    +0.000 A 
ENDBRANCH   1   8
BRANCH   1  14
ATOM     14  N   UNL     1       4.299   6.126  18.856  0.00  0.00    +0.000 NA
ATOM     15  H   UNL     1       4.031   6.466  17.902  0.00  0.00    +0.000 HD
BRANCH  14  16
ATOM     16  C   UNL     1       4.830   4.755  18.704  0.00  0.00    +0.000 C 
BRANCH  16  22
ATOM     17  C   UNL     1       6.940   4.783  17.193  0.00  0.00    +0.000 A 
ATOM     18  C   UNL     1       7.492   4.621  15.898  0.00  0.00    +0.000 A 
ATOM     19  C   UNL     1       6.691   4.300  14.807  0.00  0.00    +0.000 A 
ATOM     20  C   UNL     1       5.320   4.135  14.976  0.00  0.00    +0.000 A 
ATOM     21  C   UNL     1       4.747   4.288  16.239  0.00  0.00    +0.000 A 
ATOM     22  C   UNL     1       5.535   4.606  17.363  0.00  0.00    +0.000 A 
BRANCH  17  23
ATOM     23  O   UNL     1       7.735   5.116  18.252  0.00  0.00    +0.000 OA
BRANCH  23  25
ATOM     24  C   UNL     1       7.566   7.429  17.629  0.00  0.00    +0.000 C 
ATOM     25  C   UNL     1       7.938   6.417  18.698  0.00  0.00    +0.000 C 
ENDBRANCH  23  25
ENDBRANCH  17  23
ENDBRANCH  16  22
ENDBRANCH  14  16
ENDBRANCH   1  14
TORSDOF 7
ENDMDL
MODEL 2
REMARK VINA RESULT:      -8.3      0.921      3.883
REMARK  Name = 
REMARK  8 active torsions:
REMARK  status: ('A' for Active; 'I' for Inactive)
REMARK    1  A    between atoms: C_1  and  C_2
REMARK    2  A    between atoms: C_2  and  O_3
REMARK    3  A    between atoms: O_3  and  C_4
REMARK    4  A    between atoms: C_9  and  C_10
REMARK    5  A    between atoms: C_10  and  N_11
REMARK    6  A    between atoms: N_11  and  C_12
REMARK    7  A    between atoms: C_12  and  C_13
REMARK    8  A    between atoms: C_12  and  C_19
REMARK                            x       y       z     vdW  Elec       q    Type
REMARK                         _______ _______ _______ _____ _____    ______ ____
ROOT
ATOM      1  C   UNL     1       3.066   6.119  18.561  0.00  0.00    +0.000 C 
ENDROOT
BRANCH   1   2
ATOM      2  C   UNL     1       2.224   4.905  18.965  0.00  0.00    +0.000 A 
ATOM      3  C   UNL     1       1.722   3.975  18.029  0.00  0.00    +0.000 A 
ATOM      4  C   UNL     1       0.980   2.866  18.450  0.00  0.00    +0.000 A 
ATOM      5  C   UNL     1       0.720   2.669  19.807  0.00  0.00    +0.000 A 
ATOM      6  C   UNL     1       1.196   3.583  20.746  0.00  0.00    +0.000 A 
ATOM      7  C   UNL     1       1.941   4.691  20.331  0.00  0.00    +0.000 A 
ENDBRANCH   1   2
BRANCH   1   8
ATOM      8  C   UNL     1       2.309   7.427  18.817  0.00  0.00    +0.000 A 
ATOM      9  C   UNL     1       2.081   8.319  17.748  0.00  0.00    +0.000 A 
ATOM     10  C   UNL     1       1.392   9.520  17.953  0.00  0.00    +0.000 A 
ATOM     11  C   UNL     1       0.923   9.853  19.224  0.00  0.00    +0.000 A 
ATOM     12  C   UNL     1       1.146   8.987  20.294  0.00  0.00    +0.000 A 
ATOM     13  C   UNL     1       1.835   7.783  20.098  0.00  0.00    +0.000 A 
ENDBRANCH   1   8
BRANCH   1  14
ATOM     14  N   UNL     1       4.390   6.152  19.221  0.00  0.00    +0.000 NA
ATOM     15  H   UNL     1       4.906   6.994  18.871  0.00  0.00    +0.000 HD
BRANCH  14  16
ATOM     16  C   UNL     1       5.228   4.969  18.937  0.00  0.00    +0.000 C 
BRANCH  16  22
ATOM     17  C   UNL     1       6.248   5.984  16.777  0.00  0.00    +0.000 A 
ATOM     18  C   UNL     1       6.536   5.831  15.398  0.00  0.00    +0.000 A 
ATOM     19  C   UNL     1       6.184   4.673  14.712  0.00  0.00    +0.000 A 
ATOM     20  C   UNL     1       5.535   3.640  15.378  0.00  0.00    +0.000 A 
ATOM     21  C   UNL     1       5.238   3.761  16.737  0.00  0.00    +0.000 A 
ATOM     22  C   UNL     1       5.589   4.919  17.459  0.00  0.00    +0.000 A 
BRANCH  17  23
ATOM     23  O   UNL     1       6.583   7.133  17.435  0.00  0.00    +0.000 OA
BRANCH  23  25
ATOM     24  C   UNL     1       8.152   8.883  17.925  0.00  0.00    +0.000 C 
ATOM     25  C   UNL     1       7.845   7.396  17.954  0.00  0.00    +0.000 C 
ENDBRANCH  23  25
ENDBRANCH  17  23
ENDBRANCH  16  22
ENDBRANCH  14  16
ENDBRANCH   1  14
TORSDOF 7
ENDMDL
MODEL 3
REMARK VINA RESULT:      -8.3      0.949      4.005
REMARK  Name = 
REMARK  8 active torsions:
REMARK  status: ('A' for Active; 'I' for Inactive)
REMARK    1  A    between atoms: C_1  and  C_2
REMARK    2  A    between atoms: C_2  and  O_3
REMARK    3  A    between atoms: O_3  and  C_4
REMARK    4  A    between atoms: C_9  and  C_10
REMARK    5  A    between atoms: C_10  and  N_11
REMARK    6  A    between atoms: N_11  and  C_12
REMARK    7  A    between atoms: C_12  and  C_13
REMARK    8  A    between atoms: C_12  and  C_19
REMARK                            x       y       z     vdW  Elec       q    Type
REMARK                         _______ _______ _______ _____ _____    ______ ____
ROOT
ATOM      1  C   UNL     1       3.128   6.010  18.814  0.00  0.00    +0.000 C 
ENDROOT
BRANCH   1   2
ATOM      2  C   UNL     1       2.287   4.807  19.254  0.00  0.00    +0.000 A 
ATOM      3  C   UNL     1       2.101   4.457  20.608  0.00  0.00    +0.000 A 
ATOM      4  C   UNL     1       1.301   3.365  20.961  0.00  0.00    +0.000 A 
ATOM      5  C   UNL     1       0.680   2.600  19.972  0.00  0.00    +0.000 A 
ATOM      6  C   UNL     1       0.862   2.922  18.628  0.00  0.00    +0.000 A 
ATOM      7  C   UNL     1       1.658   4.015  18.269  0.00  0.00    +0.000 A 
ENDBRANCH   1   2
BRANCH   1   8
ATOM      8  C   UNL     1       2.353   7.320  18.987  0.00  0.00    +0.000 A 
ATOM      9  C   UNL     1       2.158   8.166  17.875  0.00  0.00    +0.000 A 
ATOM     10  C   UNL     1       1.453   9.368  18.004  0.00  0.00    +0.000 A 
ATOM     11  C   UNL     1       0.934   9.749  19.242  0.00  0.00    +0.000 A 
ATOM     12  C   UNL     1       1.124   8.929  20.355  0.00  0.00    +0.000 A 
ATOM     13  C   UNL     1       1.828   7.725  20.234  0.00  0.00    +0.000 A 
ENDBRANCH   1   8
BRANCH   1  14
ATOM     14  N   UNL     1       4.434   6.089  19.506  0.00  0.00    +0.000 NA
ATOM     15  H   UNL     1       4.881   7.002  19.252  0.00  0.00    +0.000 HD
BRANCH  14  16
ATOM     16  C   UNL     1       5.375   5.014  19.127  0.00  0.00    +0.000 C 
BRANCH  16  22
ATOM     17  C   UNL     1       6.149   6.063  16.883  0.00  0.00    +0.000 A 
ATOM     18  C   UNL     1       6.280   5.933  15.478  0.00  0.00    +0.000 A 
ATOM     19  C   UNL     1       5.852   4.786  14.817  0.00  0.00    +0.000 A 
ATOM     20  C   UNL     1       5.280   3.741  15.536  0.00  0.00    +0.000 A 
ATOM     21  C   UNL     1       5.137   3.841  16.921  0.00  0.00    +0.000 A 
ATOM     22  C   UNL     1       5.568   4.988  17.617  0.00  0.00    +0.000 A 
BRANCH  17  23
ATOM     23  O   UNL     1       6.556   7.202  17.517  0.00  0.00    +0.000 OA
BRANCH  23  25
ATOM     24  C   UNL     1       7.953   9.120  17.889  0.00  0.00    +0.000 C 
ATOM     25  C   UNL     1       7.875   7.637  17.571  0.00  0.00    +0.000 C 
ENDBRANCH  23  25
ENDBRANCH  17  23
ENDBRANCH  16  22
ENDBRANCH  14  16
ENDBRANCH   1  14
TORSDOF 7
ENDMDL
MODEL 4
REMARK VINA RESULT:      -8.2      0.819      3.729
REMARK  Name = 
REMARK  8 active torsions:
REMARK  status: ('A' for Active; 'I' for Inactive)
REMARK    1  A    between atoms: C_1  and  C_2
REMARK    2  A    between atoms: C_2  and  O_3
REMARK    3  A    between atoms: O_3  and  C_4
REMARK    4  A    between atoms: C_9  and  C_10
REMARK    5  A    between atoms: C_10  and  N_11
REMARK    6  A    between atoms: N_11  and  C_12
REMARK    7  A    between atoms: C_12  and  C_13
REMARK    8  A    between atoms: C_12  and  C_19
REMARK                            x       y       z     vdW  Elec       q    Type
REMARK                         _______ _______ _______ _____ _____    ______ ____
ROOT
ATOM      1  C   UNL     1       3.032   6.202  18.358  0.00  0.00    +0.000 C 
ENDROOT
BRANCH   1   2
ATOM      2  C   UNL     1       2.231   4.997  18.861  0.00  0.00    +0.000 A 
ATOM      3  C   UNL     1       1.683   4.026  17.994  0.00  0.00    +0.000 A 
ATOM      4  C   UNL     1       0.981   2.928  18.503  0.00  0.00    +0.000 A 
ATOM      5  C   UNL     1       0.807   2.782  19.880  0.00  0.00    +0.000 A 
ATOM      6  C   UNL     1       1.329   3.737  20.752  0.00  0.00    +0.000 A 
ATOM      7  C   UNL     1       2.035   4.835  20.249  0.00  0.00    +0.000 A 
ENDBRANCH   1   2
BRANCH   1   8
ATOM      8  C   UNL     1       2.313   7.517  18.678  0.00  0.00    +0.000 A 
ATOM      9  C   UNL     1       1.874   7.767  19.995  0.00  0.00    +0.000 A 
ATOM     10  C   UNL     1       1.215   8.960  20.315  0.00  0.00    +0.000 A 
ATOM     11  C   UNL     1       0.980   9.919  19.330  0.00  0.00    +0.000 A 
ATOM     12  C   UNL     1       1.400   9.685  18.020  0.00  0.00    +0.000 A 
ATOM     13  C   UNL     1       2.060   8.495  17.692  0.00  0.00    +0.000 A 
ENDBRANCH   1   8
BRANCH   1  14
ATOM     14  N   UNL     1       4.418   6.233  18.877  0.00  0.00    +0.000 NA
ATOM     15  H   UNL     1       4.956   6.942  18.323  0.00  0.00    +0.000 HD
BRANCH  14  16
ATOM     16  C   UNL     1       5.130   4.944  18.754  0.00  0.00    +0.000 C 
BRANCH  16  22
ATOM     17  C   UNL     1       6.784   5.564  16.853  0.00  0.00    +0.000 A 
ATOM     18  C   UNL     1       7.233   5.332  15.529  0.00  0.00    +0.000 A 
ATOM     19  C   UNL     1       6.635   4.370  14.722  0.00  0.00    +0.000 A 
ATOM     20  C   UNL     1       5.573   3.616  15.210  0.00  0.00    +0.000 A 
ATOM     21  C   UNL     1       5.107   3.822  16.509  0.00  0.00    +0.000 A 
ATOM     22  C   UNL     1       5.699   4.784  17.352  0.00  0.00    +0.000 A 
BRANCH  17  23
ATOM     23  O   UNL     1       7.368   6.524  17.629  0.00  0.00    +0.000 OA
BRANCH  23  25
ATOM     24  C   UNL     1       8.329   8.664  18.141  0.00  0.00    +0.000 C 
ATOM     25  C   UNL     1       7.253   7.890  17.400  0.00  0.00    +0.000 C 
ENDBRANCH  23  25
ENDBRANCH  17  23
ENDBRANCH  16  22
ENDBRANCH  14  16
ENDBRANCH   1  14
TORSDOF 7
ENDMDL
MODEL 5
REMARK VINA RESULT:      -8.2      1.083      3.901
REMARK  Name = 
REMARK  8 active torsions:
REMARK  status: ('A' for Active; 'I' for Inactive)
REMARK    1  A    between atoms: C_1  and  C_2
REMARK    2  A    between atoms: C_2  and  O_3
REMARK    3  A    between atoms: O_3  and  C_4
REMARK    4  A    between atoms: C_9  and  C_10
REMARK    5  A    between atoms: C_10  and  N_11
REMARK    6  A    between atoms: N_11  and  C_12
REMARK    7  A    between atoms: C_12  and  C_13
REMARK    8  A    between atoms: C_12  and  C_19
REMARK                            x       y       z     vdW  Elec       q    Type
REMARK                         _______ _______ _______ _____ _____    ______ ____
ROOT
ATOM      1  C   UNL     1       3.364   5.741  18.970  0.00  0.00    +0.000 C 
ENDROOT
BRANCH   1   2
ATOM      2  C   UNL     1       2.427   4.611  19.410  0.00  0.00    +0.000 A 
ATOM      3  C   UNL     1       2.335   4.170  20.748  0.00  0.00    +0.000 A 
ATOM      4  C   UNL     1       1.444   3.152  21.105  0.00  0.00    +0.000 A 
ATOM      5  C   UNL     1       0.637   2.553  20.137  0.00  0.00    +0.000 A 
ATOM      6  C   UNL     1       0.723   2.966  18.808  0.00  0.00    +0.000 A 
ATOM      7  C   UNL     1       1.609   3.986  18.446  0.00  0.00    +0.000 A 
ENDBRANCH   1   2
BRANCH   1   8
ATOM      8  C   UNL     1       2.634   7.088  18.949  0.00  0.00    +0.000 A 
ATOM      9  C   UNL     1       1.952   7.529  20.102  0.00  0.00    +0.000 A 
ATOM     10  C   UNL     1       1.277   8.755  20.111  0.00  0.00    +0.000 A 
ATOM     11  C   UNL     1       1.267   9.560  18.971  0.00  0.00    +0.000 A 
ATOM     12  C   UNL     1       1.930   9.137  17.818  0.00  0.00    +0.000 A 
ATOM     13  C   UNL     1       2.607   7.911  17.802  0.00  0.00    +0.000 A 
ENDBRANCH   1   8
BRANCH   1  14
ATOM     14  N   UNL     1       4.590   5.833  19.795  0.00  0.00    +0.000 NA
ATOM     15  H   UNL     1       4.851   6.844  19.876  0.00  0.00    +0.000 HD
BRANCH  14  16
ATOM     16  C   UNL     1       5.749   5.119  19.220  0.00  0.00    +0.000 C 
BRANCH  16  22
ATOM     17  C   UNL     1       6.035   6.218  16.887  0.00  0.00    +0.000 A 
ATOM     18  C   UNL     1       5.913   6.099  15.480  0.00  0.00    +0.000 A 
ATOM     19  C   UNL     1       5.440   4.929  14.894  0.00  0.00    +0.000 A 
ATOM     20  C   UNL     1       5.072   3.851  15.691  0.00  0.00    +0.000 A 
ATOM     21  C   UNL     1       5.180   3.939  17.080  0.00  0.00    +0.000 A 
ATOM     22  C   UNL     1       5.663   5.108  17.701  0.00  0.00    +0.000 A 
BRANCH  17  23
ATOM     23  O   UNL     1       6.484   7.378  17.451  0.00  0.00    +0.000 OA
BRANCH  23  25
ATOM     24  C   UNL     1       8.074   9.121  17.900  0.00  0.00    +0.000 C 
ATOM     25  C   UNL     1       7.815   7.631  17.762  0.00  0.00    +0.000 C 
ENDBRANCH  23  25
ENDBRANCH  17  23
ENDBRANCH  16  22
ENDBRANCH  14  16
ENDBRANCH   1  14
TORSDOF 7
ENDMDL
MODEL 6
REMARK VINA RESULT:      -8.2      1.959      6.349
REMARK  Name = 
REMARK  8 active torsions:
REMARK  status: ('A' for Active; 'I' for Inactive)
REMARK    1  A    between atoms: C_1  and  C_2
REMARK    2  A    between atoms: C_2  and  O_3
REMARK    3  A    between atoms: O_3  and  C_4
REMARK    4  A    between atoms: C_9  and  C_10
REMARK    5  A    between atoms: C_10  and  N_11
REMARK    6  A    between atoms: N_11  and  C_12
REMARK    7  A    between atoms: C_12  and  C_13
REMARK    8  A    between atoms: C_12  and  C_19
REMARK                            x       y       z     vdW  Elec       q    Type
REMARK                         _______ _______ _______ _____ _____    ______ ____
ROOT
ATOM      1  C   UNL     1       5.243   4.770  16.238  0.00  0.00    +0.000 C 
ENDROOT
BRANCH   1   2
ATOM      2  C   UNL     1       6.243   5.540  17.107  0.00  0.00    +0.000 A 
ATOM      3  C   UNL     1       6.982   4.933  18.145  0.00  0.00    +0.000 A 
ATOM      4  C   UNL     1       7.903   5.673  18.894  0.00  0.00    +0.000 A 
ATOM      5  C   UNL     1       8.099   7.029  18.625  0.00  0.00    +0.000 A 
ATOM      6  C   UNL     1       7.370   7.650  17.612  0.00  0.00    +0.000 A 
ATOM      7  C   UNL     1       6.450   6.914  16.858  0.00  0.00    +0.000 A 
ENDBRANCH   1   2
BRANCH   1   8
ATOM      8  C   UNL     1       5.816   4.499  14.843  0.00  0.00    +0.000 A 
ATOM      9  C   UNL     1       7.065   5.047  14.486  0.00  0.00    +0.000 A 
ATOM     10  C   UNL     1       7.613   4.816  13.218  0.00  0.00    +0.000 A 
ATOM     11  C   UNL     1       6.924   4.038  12.287  0.00  0.00    +0.000 A 
ATOM     12  C   UNL     1       5.683   3.495  12.620  0.00  0.00    +0.000 A 
ATOM     13  C   UNL     1       5.128   3.722  13.885  0.00  0.00    +0.000 A 
ENDBRANCH   1   8
BRANCH   1  14
ATOM     14  N   UNL     1       4.785   3.508  16.862  0.00  0.00    +0.000 NA
ATOM     15  H   UNL     1       5.073   2.716  16.239  0.00  0.00    +0.000 HD
BRANCH  14  16
ATOM     16  C   UNL     1       3.319   3.425  17.033  0.00  0.00    +0.000 C 
BRANCH  16  22
ATOM     17  C   UNL     1       2.491   5.082  18.851  0.00  0.00    +0.000 A 
ATOM     18  C   UNL     1       2.157   5.306  20.209  0.00  0.00    +0.000 A 
ATOM     19  C   UNL     1       2.256   4.289  21.153  0.00  0.00    +0.000 A 
ATOM     20  C   UNL     1       2.694   3.025  20.771  0.00  0.00    +0.000 A 
ATOM     21  C   UNL     1       3.031   2.775  19.440  0.00  0.00    +0.000 A 
ATOM     22  C   UNL     1       2.932   3.784  18.461  0.00  0.00    +0.000 A 
BRANCH  17  23
ATOM     23  O   UNL     1       2.405   6.094  17.937  0.00  0.00    +0.000 OA
BRANCH  23  25
ATOM     24  C   UNL     1       1.996   8.460  17.895  0.00  0.00    +0.000 C 
ATOM     25  C   UNL     1       3.002   7.340  18.093  0.00  0.00    +0.000 C 
ENDBRANCH  23  25
ENDBRANCH  17  23
ENDBRANCH  16  22
ENDBRANCH  14  16
ENDBRANCH   1  14
TORSDOF 7
ENDMDL
MODEL 7
REMARK VINA RESULT:      -8.2      2.590      6.808
REMARK  Name = 
REMARK  8 active torsions:
REMARK  status: ('A' for Active; 'I' for Inactive)
REMARK    1  A    between atoms: C_1  and  C_2
REMARK    2  A    between atoms: C_2  and  O_3
REMARK    3  A    between atoms: O_3  and  C_4
REMARK    4  A    between atoms: C_9  and  C_10
REMARK    5  A    between atoms: C_10  and  N_11
REMARK    6  A    between atoms: N_11  and  C_12
REMARK    7  A    between atoms: C_12  and  C_13
REMARK    8  A    between atoms: C_12  and  C_19
REMARK                            x       y       z     vdW  Elec       q    Type
REMARK                         _______ _______ _______ _____ _____    ______ ____
ROOT
ATOM      1  C   UNL     1       2.679   6.375  18.684  0.00  0.00    +0.000 C 
ENDROOT
BRANCH   1   2
ATOM      2  C   UNL     1       4.173   6.213  18.383  0.00  0.00    +0.000 A 
ATOM      3  C   UNL     1       5.044   5.471  19.210  0.00  0.00    +0.000 A 
ATOM      4  C   UNL     1       6.396   5.329  18.879  0.00  0.00    +0.000 A 
ATOM      5  C   UNL     1       6.903   5.928  17.725  0.00  0.00    +0.000 A 
ATOM      6  C   UNL     1       6.062   6.676  16.902  0.00  0.00    +0.000 A 
ATOM      7  C   UNL     1       4.708   6.818  17.226  0.00  0.00    +0.000 A 
ENDBRANCH   1   2
BRANCH   1   8
ATOM      8  C   UNL     1       2.039   5.032  19.051  0.00  0.00    +0.000 A 
ATOM      9  C   UNL     1       1.686   4.773  20.391  0.00  0.00    +0.000 A 
ATOM     10  C   UNL     1       1.100   3.555  20.755  0.00  0.00    +0.000 A 
ATOM     11  C   UNL     1       0.859   2.576  19.791  0.00  0.00    +0.000 A 
ATOM     12  C   UNL     1       1.209   2.811  18.461  0.00  0.00    +0.000 A 
ATOM     13  C   UNL     1       1.797   4.026  18.090  0.00  0.00    +0.000 A 
ENDBRANCH   1   8
BRANCH   1  14
ATOM     14  N   UNL     1       2.405   7.381  19.734  0.00  0.00    +0.000 NA
ATOM     15  H   UNL     1       1.802   6.932  20.464  0.00  0.00    +0.000 HD
BRANCH  14  16
ATOM     16  C   UNL     1       1.688   8.576  19.242  0.00  0.00    +0.000 C 
BRANCH  16  22
ATOM     17  C   UNL     1       0.068  10.366  20.195  0.00  0.00    +0.000 A 
ATOM     18  C   UNL     1      -0.604  10.900  21.323  0.00  0.00    +0.000 A 
ATOM     19  C   UNL     1      -0.444  10.342  22.587  0.00  0.00    +0.000 A 
ATOM     20  C   UNL     1       0.389   9.243  22.763  0.00  0.00    +0.000 A 
ATOM     21  C   UNL     1       1.064   8.695  21.671  0.00  0.00    +0.000 A 
ATOM     22  C   UNL     1       0.916   9.235  20.377  0.00  0.00    +0.000 A 
BRANCH  17  23
ATOM     23  O   UNL     1      -0.084  10.934  18.962  0.00  0.00    +0.000 OA
BRANCH  23  25
ATOM     24  C   UNL     1      -1.655  10.011  17.398  0.00  0.00    +0.000 C 
ATOM     25  C   UNL     1      -1.311  11.147  18.345  0.00  0.00    +0.000 C 
ENDBRANCH  23  25
ENDBRANCH  17  23
ENDBRANCH  16  22
ENDBRANCH  14  16
ENDBRANCH   1  14
TORSDOF 7
ENDMDL
MODEL 8
REMARK VINA RESULT:      -8.2      0.976      1.750
REMARK  Name = 
REMARK  8 active torsions:
REMARK  status: ('A' for Active; 'I' for Inactive)
REMARK    1  A    between atoms: C_1  and  C_2
REMARK    2  A    between atoms: C_2  and  O_3
REMARK    3  A    between atoms: O_3  and  C_4
REMARK    4  A    between atoms: C_9  and  C_10
REMARK    5  A    between atoms: C_10  and  N_11
REMARK    6  A    between atoms: N_11  and  C_12
REMARK    7  A    between atoms: C_12  and  C_13
REMARK    8  A    between atoms: C_12  and  C_19
REMARK                            x       y       z     vdW  Elec       q    Type
REMARK                         _______ _______ _______ _____ _____    ______ ____
ROOT
ATOM      1  C   UNL     1       3.190   5.946  18.985  0.00  0.00    +0.000 C 
ENDROOT
BRANCH   1   2
ATOM      2  C   UNL     1       2.404   7.258  19.064  0.00  0.00    +0.000 A 
ATOM      3  C   UNL     1       1.769   7.702  20.244  0.00  0.00    +0.000 A 
ATOM      4  C   UNL     1       1.085   8.922  20.273  0.00  0.00    +0.000 A 
ATOM      5  C   UNL     1       1.016   9.716  19.128  0.00  0.00    +0.000 A 
ATOM      6  C   UNL     1       1.626   9.290  17.948  0.00  0.00    +0.000 A 
ATOM      7  C   UNL     1       2.315   8.073  17.915  0.00  0.00    +0.000 A 
ENDBRANCH   1   2
BRANCH   1   8
ATOM      8  C   UNL     1       2.468   4.823  19.737  0.00  0.00    +0.000 A 
ATOM      9  C   UNL     1       1.412   4.131  19.107  0.00  0.00    +0.000 A 
ATOM     10  C   UNL     1       0.735   3.100  19.770  0.00  0.00    +0.000 A 
ATOM     11  C   UNL     1       1.097   2.745  21.070  0.00  0.00    +0.000 A 
ATOM     12  C   UNL     1       2.134   3.423  21.711  0.00  0.00    +0.000 A 
ATOM     13  C   UNL     1       2.815   4.455  21.055  0.00  0.00    +0.000 A 
ENDBRANCH   1   8
BRANCH   1  14
ATOM     14  N   UNL     1       3.486   5.529  17.596  0.00  0.00    +0.000 NA
ATOM     15  H   UNL     1       2.588   5.226  17.150  0.00  0.00    +0.000 HD
BRANCH  14  16
ATOM     16  C   UNL     1       4.431   4.397  17.502  0.00  0.00    +0.000 C 
BRANCH  16  22
ATOM     17  C   UNL     1       6.340   5.667  16.286  0.00  0.00    +0.000 A 
ATOM     18  C   UNL     1       7.185   5.766  15.152  0.00  0.00    +0.000 A 
ATOM     19  C   UNL     1       7.098   4.853  14.106  0.00  0.00    +0.000 A 
ATOM     20  C   UNL     1       6.167   3.822  14.158  0.00  0.00    +0.000 A 
ATOM     21  C   UNL     1       5.320   3.698  15.261  0.00  0.00    +0.000 A 
ATOM     22  C   UNL     1       5.391   4.604  16.339  0.00  0.00    +0.000 A 
BRANCH  17  23
ATOM     23  O   UNL     1       6.423   6.579  17.298  0.00  0.00    +0.000 OA
BRANCH  23  25
ATOM     24  C   UNL     1       8.005   8.319  17.788  0.00  0.00    +0.000 C 
ATOM     25  C   UNL     1       7.592   6.872  17.992  0.00  0.00    +0.000 C 
ENDBRANCH  23  25
ENDBRANCH  17  23
ENDBRANCH  16  22
ENDBRANCH  14  16
ENDBRANCH   1  14
TORSDOF 7
ENDMDL
MODEL 9
REMARK VINA RESULT:      -8.2      0.964      1.551
REMARK  Name = 
REMARK  8 active torsions:
REMARK  status: ('A' for Active; 'I' for Inactive)
REMARK    1  A    between atoms: C_1  and  C_2
REMARK    2  A    between atoms: C_2  and  O_3
REMARK    3  A    between atoms: O_3  and  C_4
REMARK    4  A    between atoms: C_9  and  C_10
REMARK    5  A    between atoms: C_10  and  N_11
REMARK    6  A    between atoms: N_11  and  C_12
REMARK    7  A    between atoms: C_12  and  C_13
REMARK    8  A    between atoms: C_12  and  C_19
REMARK                            x       y       z     vdW  Elec       q    Type
REMARK                         _______ _______ _______ _____ _____    ______ ____
ROOT
ATOM      1  C   UNL     1       3.201   5.994  19.001  0.00  0.00    +0.000 C 
ENDROOT
BRANCH   1   2
ATOM      2  C   UNL     1       2.425   7.312  19.080  0.00  0.00    +0.000 A 
ATOM      3  C   UNL     1       1.781   7.752  20.257  0.00  0.00    +0.000 A 
ATOM      4  C   UNL     1       1.106   8.977  20.288  0.00  0.00    +0.000 A 
ATOM      5  C   UNL     1       1.056   9.780  19.147  0.00  0.00    +0.000 A 
ATOM      6  C   UNL     1       1.675   9.358  17.972  0.00  0.00    +0.000 A 
ATOM      7  C   UNL     1       2.354   8.136  17.936  0.00  0.00    +0.000 A 
ENDBRANCH   1   2
BRANCH   1   8
ATOM      8  C   UNL     1       2.441   4.861  19.699  0.00  0.00    +0.000 A 
ATOM      9  C   UNL     1       2.790   4.498  21.016  0.00  0.00    +0.000 A 
ATOM     10  C   UNL     1       2.113   3.467  21.678  0.00  0.00    +0.000 A 
ATOM     11  C   UNL     1       1.080   2.781  21.039  0.00  0.00    +0.000 A 
ATOM     12  C   UNL     1       0.726   3.122  19.733  0.00  0.00    +0.000 A 
ATOM     13  C   UNL     1       1.400   4.151  19.063  0.00  0.00    +0.000 A 
ENDBRANCH   1   8
BRANCH   1  14
ATOM     14  N   UNL     1       3.545   5.606  17.614  0.00  0.00    +0.000 NA
ATOM     15  H   UNL     1       2.661   5.323  17.128  0.00  0.00    +0.000 HD
BRANCH  14  16
ATOM     16  C   UNL     1       4.482   4.466  17.529  0.00  0.00    +0.000 C 
BRANCH  16  22
ATOM     17  C   UNL     1       6.383   5.716  16.281  0.00  0.00    +0.000 A 
ATOM     18  C   UNL     1       7.224   5.795  15.144  0.00  0.00    +0.000 A 
ATOM     19  C   UNL     1       7.136   4.862  14.115  0.00  0.00    +0.000 A 
ATOM     20  C   UNL     1       6.207   3.829  14.191  0.00  0.00    +0.000 A 
ATOM     21  C   UNL     1       5.364   3.726  15.299  0.00  0.00    +0.000 A 
ATOM     22  C   UNL     1       5.437   4.652  16.358  0.00  0.00    +0.000 A 
BRANCH  17  23
ATOM     23  O   UNL     1       6.468   6.649  17.275  0.00  0.00    +0.000 OA
BRANCH  23  25
ATOM     24  C   UNL     1       7.825   5.663  18.994  0.00  0.00    +0.000 C 
ATOM     25  C   UNL     1       7.592   6.845  18.069  0.00  0.00    +0.000 C 
ENDBRANCH  23  25
ENDBRANCH  17  23
ENDBRANCH  16  22
ENDBRANCH  14  16
ENDBRANCH   1  14
TORSDOF 7
ENDMDL
