MODEL 1
REMARK VINA RESULT:      -9.3      0.000      0.000
REMARK  Name = 
REMARK  10 active torsions:
REMARK  status: ('A' for Active; 'I' for Inactive)
REMARK    1  A    between atoms: C_1  and  C_2
REMARK    2  A    between atoms: C_2  and  C_3
REMARK    3  A    between atoms: C_3  and  C_4
REMARK    4  A    between atoms: C_3  and  C_5
REMARK    5  A    between atoms: C_3  and  N_6
REMARK    6  A    between atoms: C_10  and  C_11
REMARK    7  A    between atoms: C_11  and  C_12
REMARK    8  A    between atoms: C_11  and  N_22
REMARK    9  A    between atoms: N_25  and  C_26
REMARK   10  A    between atoms: C_26  and  C_27
REMARK                            x       y       z     vdW  Elec       q    Type
REMARK                         _______ _______ _______ _____ _____    ______ ____
ROOT
ATOM      1  C   UNL     1       4.128   5.424  18.890  0.00  0.00    +0.000 C 
ENDROOT
BRANCH   1   2
ATOM      2  C   UNL     1       5.033   5.592  17.636  0.00  0.00    +0.000 A 
ATOM      3  C   UNL     1       6.203   6.370  17.656  0.00  0.00    +0.000 A 
ATOM      4  C   UNL     1       7.128   6.331  16.602  0.00  0.00    +0.000 A 
ATOM      5  C   UNL     1       6.910   5.569  15.469  0.00  0.00    +0.000 A 
ATOM      6  N   UNL     1       7.849   5.537  14.504  0.00  0.00    +0.000 NA
ATOM      7  C   UNL     1       7.604   4.802  13.397  0.00  0.00    +0.000 A 
ATOM      8  C   UNL     1       6.433   4.085  13.209  0.00  0.00    +0.000 A 
ATOM      9  C   UNL     1       5.469   4.117  14.214  0.00  0.00    +0.000 A 
ATOM     10  C   UNL     1       5.697   4.857  15.382  0.00  0.00    +0.000 A 
ATOM     11  C   UNL     1       4.770   4.877  16.454  0.00  0.00    +0.000 A 
ENDBRANCH   1   2
BRANCH   1  12
ATOM     12  N   UNL     1       2.764   5.964  18.674  0.00  0.00    +0.000 NA
ATOM     13  C   UNL     1       2.037   6.436  19.860  0.00  0.00    +0.000 C 
ATOM     14  C   UNL     1       2.059   7.960  20.167  0.00  0.00    +0.000 C 
ATOM     15  N   UNL     1       1.778   8.884  19.070  0.00  0.00    +0.000 NA
ATOM     16  C   UNL     1       2.437   8.412  17.825  0.00  0.00    +0.000 C 
ATOM     17  C   UNL     1       2.599   6.883  17.542  0.00  0.00    +0.000 C 
BRANCH  15  18
ATOM     18  C   UNL     1       0.397   9.334  18.826  0.00  0.00    +0.000 C 
BRANCH  18  19
ATOM     19  C   UNL     1      -0.383  10.260  19.779  0.00  0.00    +0.000 A 
ATOM     20  C   UNL     1      -1.316  11.157  19.178  0.00  0.00    +0.000 A 
ATOM     21  C   UNL     1      -1.933  12.207  19.881  0.00  0.00    +0.000 A 
ATOM     22  C   UNL     1      -1.603  12.374  21.199  0.00  0.00    +0.000 A 
ATOM     23  C   UNL     1      -0.715  11.535  21.820  0.00  0.00    +0.000 A 
ATOM     24  C   UNL     1      -0.107  10.463  21.149  0.00  0.00    +0.000 A 
ATOM     25  O   UNL     1      -0.514  11.885  23.125  0.00  0.00    +0.000 OA
ATOM     26  C   UNL     1      -1.257  13.126  23.194  0.00  0.00    +0.000 C 
ATOM     27  O   UNL     1      -2.046  13.374  22.013  0.00  0.00    +0.000 OA
ENDBRANCH  18  19
ENDBRANCH  15  18
ENDBRANCH   1  12
BRANCH   1  32
ATOM     28  N   UNL     1       3.185   2.952  19.181  0.00  0.00    +0.000 N 
ATOM     29  N   UNL     1       3.779   1.803  19.609  0.00  0.00    +0.000 NA
ATOM     30  N   UNL     1       4.843   2.156  20.296  0.00  0.00    +0.000 NA
ATOM     31  N   UNL     1       5.034   3.495  20.226  0.00  0.00    +0.000 NA
ATOM     32  C   UNL     1       4.095   3.990  19.430  0.00  0.00    +0.000 A 
BRANCH  28  33
ATOM     33  C   UNL     1       1.724   2.892  18.946  0.00  0.00    +0.000 C 
ATOM     34  C   UNL     1       1.147   1.472  18.762  0.00  0.00    +0.000 C 
ATOM     35  C   UNL     1       1.390   3.705  17.673  0.00  0.00    +0.000 C 
BRANCH  33  37
ATOM     36  C   UNL     1       1.236   3.010  21.566  0.00  0.00    +0.000 C 
ATOM     37  C   UNL     1       0.909   3.536  20.156  0.00  0.00    +0.000 C 
ENDBRANCH  33  37
ENDBRANCH  28  33
ENDBRANCH   1  32
TORSDOF 7
ENDMDL
MODEL 2
REMARK VINA RESULT:      -8.9      1.485      2.011
REMARK  Name = 
REMARK  10 active torsions:
REMARK  status: ('A' for Active; 'I' for Inactive)
REMARK    1  A    between atoms: C_1  and  C_2
REMARK    2  A    between atoms: C_2  and  C_3
REMARK    3  A    between atoms: C_3  and  C_4
REMARK    4  A    between atoms: C_3  and  C_5
REMARK    5  A    between atoms: C_3  and  N_6
REMARK    6  A    between atoms: C_10  and  C_11
REMARK    7  A    between atoms: C_11  and  C_12
REMARK    8  A    between atoms: C_11  and  N_22
REMARK    9  A    between atoms: N_25  and  C_26
REMARK   10  A    between atoms: C_26  and  C_27
REMARK                            x       y       z     vdW  Elec       q    Type
REMARK                         _______ _______ _______ _____ _____    ______ ____
ROOT
ATOM      1  C   UNL     1       3.128   5.994  19.752  0.00  0.00    +0.000 C 
ENDROOT
BRANCH   1   2
ATOM      2  C   UNL     1       4.344   5.774  18.807  0.00  0.00    +0.000 A 
ATOM      3  C   UNL     1       5.626   5.468  19.295  0.00  0.00    +0.000 A 
ATOM      4  C   UNL     1       6.655   5.047  18.440  0.00  0.00    +0.000 A 
ATOM      5  C   UNL     1       6.477   4.962  17.072  0.00  0.00    +0.000 A 
ATOM      6  N   UNL     1       7.486   4.514  16.300  0.00  0.00    +0.000 NA
ATOM      7  C   UNL     1       7.296   4.459  14.964  0.00  0.00    +0.000 A 
ATOM      8  C   UNL     1       6.114   4.847  14.353  0.00  0.00    +0.000 A 
ATOM      9  C   UNL     1       5.072   5.303  15.156  0.00  0.00    +0.000 A 
ATOM     10  C   UNL     1       5.230   5.357  16.548  0.00  0.00    +0.000 A 
ATOM     11  C   UNL     1       4.181   5.763  17.410  0.00  0.00    +0.000 A 
ENDBRANCH   1   2
BRANCH   1  12
ATOM     12  N   UNL     1       2.041   6.761  19.097  0.00  0.00    +0.000 NA
ATOM     13  C   UNL     1       1.030   7.367  19.973  0.00  0.00    +0.000 C 
ATOM     14  C   UNL     1       1.196   8.867  20.346  0.00  0.00    +0.000 C 
ATOM     15  N   UNL     1       1.483   9.813  19.270  0.00  0.00    +0.000 NA
ATOM     16  C   UNL     1       2.452   9.219  18.313  0.00  0.00    +0.000 C 
ATOM     17  C   UNL     1       2.445   7.681  18.028  0.00  0.00    +0.000 C 
BRANCH  15  18
ATOM     18  C   UNL     1       0.375  10.495  18.578  0.00  0.00    +0.000 C 
BRANCH  18  19
ATOM     19  C   UNL     1      -0.823  11.136  19.304  0.00  0.00    +0.000 A 
ATOM     20  C   UNL     1      -2.063  11.152  18.600  0.00  0.00    +0.000 A 
ATOM     21  C   UNL     1      -3.181  11.891  19.029  0.00  0.00    +0.000 A 
ATOM     22  C   UNL     1      -3.053  12.637  20.170  0.00  0.00    +0.000 A 
ATOM     23  C   UNL     1      -1.882  12.651  20.881  0.00  0.00    +0.000 A 
ATOM     24  C   UNL     1      -0.762  11.901  20.490  0.00  0.00    +0.000 A 
ATOM     25  O   UNL     1      -1.960  13.470  21.972  0.00  0.00    +0.000 OA
ATOM     26  C   UNL     1      -3.257  14.079  21.764  0.00  0.00    +0.000 C 
ATOM     27  O   UNL     1      -4.000  13.466  20.693  0.00  0.00    +0.000 OA
ENDBRANCH  18  19
ENDBRANCH  15  18
ENDBRANCH   1  12
BRANCH   1  32
ATOM     28  N   UNL     1       2.312   3.461  19.803  0.00  0.00    +0.000 N 
ATOM     29  N   UNL     1       2.226   2.560  20.822  0.00  0.00    +0.000 NA
ATOM     30  N   UNL     1       2.212   3.249  21.942  0.00  0.00    +0.000 NA
ATOM     31  N   UNL     1       2.411   4.567  21.694  0.00  0.00    +0.000 NA
ATOM     32  C   UNL     1       2.609   4.701  20.389  0.00  0.00    +0.000 A 
BRANCH  28  33
ATOM     33  C   UNL     1       1.743   3.042  18.503  0.00  0.00    +0.000 C 
ATOM     34  C   UNL     1       1.164   4.184  17.640  0.00  0.00    +0.000 C 
ATOM     35  C   UNL     1       0.606   2.024  18.762  0.00  0.00    +0.000 C 
BRANCH  33  37
ATOM     36  C   UNL     1       4.201   2.040  18.240  0.00  0.00    +0.000 C 
ATOM     37  C   UNL     1       2.833   2.321  17.589  0.00  0.00    +0.000 C 
ENDBRANCH  33  37
ENDBRANCH  28  33
ENDBRANCH   1  32
TORSDOF 7
ENDMDL
MODEL 3
REMARK VINA RESULT:      -8.9      2.023      2.764
REMARK  Name = 
REMARK  10 active torsions:
REMARK  status: ('A' for Active; 'I' for Inactive)
REMARK    1  A    between atoms: C_1  and  C_2
REMARK    2  A    between atoms: C_2  and  C_3
REMARK    3  A    between atoms: C_3  and  C_4
REMARK    4  A    between atoms: C_3  and  C_5
REMARK    5  A    between atoms: C_3  and  N_6
REMARK    6  A    between atoms: C_10  and  C_11
REMARK    7  A    between atoms: C_11  and  C_12
REMARK    8  A    between atoms: C_11  and  N_22
REMARK    9  A    between atoms: N_25  and  C_26
REMARK   10  A    between atoms: C_26  and  C_27
REMARK                            x       y       z     vdW  Elec       q    Type
REMARK                         _______ _______ _______ _____ _____    ______ ____
ROOT
ATOM      1  C   UNL     1       3.161   6.368  19.468  0.00  0.00    +0.000 C 
ENDROOT
BRANCH   1   2
ATOM      2  C   UNL     1       4.406   6.011  18.607  0.00  0.00    +0.000 A 
ATOM      3  C   UNL     1       5.596   5.528  19.177  0.00  0.00    +0.000 A 
ATOM      4  C   UNL     1       6.624   4.994  18.385  0.00  0.00    +0.000 A 
ATOM      5  C   UNL     1       6.541   4.965  17.005  0.00  0.00    +0.000 A 
ATOM      6  N   UNL     1       7.539   4.405  16.295  0.00  0.00    +0.000 NA
ATOM      7  C   UNL     1       7.445   4.406  14.947  0.00  0.00    +0.000 A 
ATOM      8  C   UNL     1       6.373   4.961  14.265  0.00  0.00    +0.000 A 
ATOM      9  C   UNL     1       5.342   5.531  15.005  0.00  0.00    +0.000 A 
ATOM     10  C   UNL     1       5.399   5.533  16.406  0.00  0.00    +0.000 A 
ATOM     11  C   UNL     1       4.350   6.054  17.203  0.00  0.00    +0.000 A 
ENDBRANCH   1   2
BRANCH   1  12
ATOM     12  N   UNL     1       2.164   7.162  18.710  0.00  0.00    +0.000 NA
ATOM     13  C   UNL     1       1.062   7.759  19.477  0.00  0.00    +0.000 C 
ATOM     14  C   UNL     1       1.197   9.249  19.901  0.00  0.00    +0.000 C 
ATOM     15  N   UNL     1       1.614  10.215  18.888  0.00  0.00    +0.000 NA
ATOM     16  C   UNL     1       2.683   9.632  18.037  0.00  0.00    +0.000 C 
ATOM     17  C   UNL     1       2.697   8.101  17.717  0.00  0.00    +0.000 C 
BRANCH  15  18
ATOM     18  C   UNL     1       0.600  10.924  18.088  0.00  0.00    +0.000 C 
BRANCH  18  19
ATOM     19  C   UNL     1      -0.919  10.775  18.302  0.00  0.00    +0.000 A 
ATOM     20  C   UNL     1      -1.594   9.843  17.460  0.00  0.00    +0.000 A 
ATOM     21  C   UNL     1      -2.996   9.757  17.380  0.00  0.00    +0.000 A 
ATOM     22  C   UNL     1      -3.733  10.624  18.140  0.00  0.00    +0.000 A 
ATOM     23  C   UNL     1      -3.128  11.535  18.967  0.00  0.00    +0.000 A 
ATOM     24  C   UNL     1      -1.733  11.622  19.086  0.00  0.00    +0.000 A 
ATOM     25  O   UNL     1      -4.042  12.313  19.620  0.00  0.00    +0.000 OA
ATOM     26  C   UNL     1      -5.271  11.884  18.985  0.00  0.00    +0.000 C 
ATOM     27  O   UNL     1      -5.092  10.732  18.137  0.00  0.00    +0.000 OA
ENDBRANCH  18  19
ENDBRANCH  15  18
ENDBRANCH   1  12
BRANCH   1  32
ATOM     28  N   UNL     1       2.258   3.871  19.649  0.00  0.00    +0.000 N 
ATOM     29  N   UNL     1       2.016   3.074  20.728  0.00  0.00    +0.000 NA
ATOM     30  N   UNL     1       1.888   3.867  21.769  0.00  0.00    +0.000 NA
ATOM     31  N   UNL     1       2.162   5.150  21.428  0.00  0.00    +0.000 NA
ATOM     32  C   UNL     1       2.523   5.154  20.152  0.00  0.00    +0.000 A 
BRANCH  28  33
ATOM     33  C   UNL     1       1.837   3.344  18.331  0.00  0.00    +0.000 C 
ATOM     34  C   UNL     1       1.204   4.381  17.380  0.00  0.00    +0.000 C 
ATOM     35  C   UNL     1       0.802   2.216  18.554  0.00  0.00    +0.000 C 
BRANCH  33  37
ATOM     36  C   UNL     1       3.730   1.472  18.150  0.00  0.00    +0.000 C 
ATOM     37  C   UNL     1       3.066   2.717  17.531  0.00  0.00    +0.000 C 
ENDBRANCH  33  37
ENDBRANCH  28  33
ENDBRANCH   1  32
TORSDOF 7
ENDMDL
MODEL 4
REMARK VINA RESULT:      -8.9      1.591      2.259
REMARK  Name = 
REMARK  10 active torsions:
REMARK  status: ('A' for Active; 'I' for Inactive)
REMARK    1  A    between atoms: C_1  and  C_2
REMARK    2  A    between atoms: C_2  and  C_3
REMARK    3  A    between atoms: C_3  and  C_4
REMARK    4  A    between atoms: C_3  and  C_5
REMARK    5  A    between atoms: C_3  and  N_6
REMARK    6  A    between atoms: C_10  and  C_11
REMARK    7  A    between atoms: C_11  and  C_12
REMARK    8  A    between atoms: C_11  and  N_22
REMARK    9  A    between atoms: N_25  and  C_26
REMARK   10  A    between atoms: C_26  and  C_27
REMARK                            x       y       z     vdW  Elec       q    Type
REMARK                         _______ _______ _______ _____ _____    ______ ____
ROOT
ATOM      1  C   UNL     1       3.160   6.047  19.751  0.00  0.00    +0.000 C 
ENDROOT
BRANCH   1   2
ATOM      2  C   UNL     1       4.375   5.817  18.808  0.00  0.00    +0.000 A 
ATOM      3  C   UNL     1       5.645   5.464  19.295  0.00  0.00    +0.000 A 
ATOM      4  C   UNL     1       6.667   5.036  18.435  0.00  0.00    +0.000 A 
ATOM      5  C   UNL     1       6.496   4.990  17.064  0.00  0.00    +0.000 A 
ATOM      6  N   UNL     1       7.497   4.533  16.287  0.00  0.00    +0.000 NA
ATOM      7  C   UNL     1       7.313   4.517  14.949  0.00  0.00    +0.000 A 
ATOM      8  C   UNL     1       6.146   4.952  14.341  0.00  0.00    +0.000 A 
ATOM      9  C   UNL     1       5.112   5.416  15.150  0.00  0.00    +0.000 A 
ATOM     10  C   UNL     1       5.263   5.432  16.544  0.00  0.00    +0.000 A 
ATOM     11  C   UNL     1       4.221   5.845  17.410  0.00  0.00    +0.000 A 
ENDBRANCH   1   2
BRANCH   1  12
ATOM     12  N   UNL     1       2.069   6.800  19.086  0.00  0.00    +0.000 NA
ATOM     13  C   UNL     1       1.021   7.359  19.951  0.00  0.00    +0.000 C 
ATOM     14  C   UNL     1       1.139   8.855  20.360  0.00  0.00    +0.000 C 
ATOM     15  N   UNL     1       1.425   9.831  19.311  0.00  0.00    +0.000 NA
ATOM     16  C   UNL     1       2.433   9.284  18.366  0.00  0.00    +0.000 C 
ATOM     17  C   UNL     1       2.474   7.754  18.048  0.00  0.00    +0.000 C 
BRANCH  15  18
ATOM     18  C   UNL     1       0.317  10.499  18.607  0.00  0.00    +0.000 C 
BRANCH  18  19
ATOM     19  C   UNL     1      -0.635  11.511  19.274  0.00  0.00    +0.000 A 
ATOM     20  C   UNL     1      -0.122  12.230  20.393  0.00  0.00    +0.000 A 
ATOM     21  C   UNL     1      -0.929  13.014  21.238  0.00  0.00    +0.000 A 
ATOM     22  C   UNL     1      -2.270  13.069  20.969  0.00  0.00    +0.000 A 
ATOM     23  C   UNL     1      -2.808  12.398  19.902  0.00  0.00    +0.000 A 
ATOM     24  C   UNL     1      -2.021  11.631  19.029  0.00  0.00    +0.000 A 
ATOM     25  O   UNL     1      -4.161  12.571  19.824  0.00  0.00    +0.000 OA
ATOM     26  C   UNL     1      -4.417  13.295  21.051  0.00  0.00    +0.000 C 
ATOM     27  O   UNL     1      -3.209  13.716  21.716  0.00  0.00    +0.000 OA
ENDBRANCH  18  19
ENDBRANCH  15  18
ENDBRANCH   1  12
BRANCH   1  32
ATOM     28  N   UNL     1       2.423   3.492  19.857  0.00  0.00    +0.000 N 
ATOM     29  N   UNL     1       2.308   2.628  20.905  0.00  0.00    +0.000 NA
ATOM     30  N   UNL     1       2.211   3.357  21.994  0.00  0.00    +0.000 NA
ATOM     31  N   UNL     1       2.382   4.670  21.706  0.00  0.00    +0.000 NA
ATOM     32  C   UNL     1       2.647   4.762  20.410  0.00  0.00    +0.000 A 
BRANCH  28  33
ATOM     33  C   UNL     1       1.939   3.006  18.545  0.00  0.00    +0.000 C 
ATOM     34  C   UNL     1       1.267   4.074  17.656  0.00  0.00    +0.000 C 
ATOM     35  C   UNL     1       0.911   1.874  18.782  0.00  0.00    +0.000 C 
BRANCH  33  37
ATOM     36  C   UNL     1       3.892   1.208  18.275  0.00  0.00    +0.000 C 
ATOM     37  C   UNL     1       3.127   2.401  17.670  0.00  0.00    +0.000 C 
ENDBRANCH  33  37
ENDBRANCH  28  33
ENDBRANCH   1  32
TORSDOF 7
ENDMDL
MODEL 5
REMARK VINA RESULT:      -8.8      4.858      8.528
REMARK  Name = 
REMARK  10 active torsions:
REMARK  status: ('A' for Active; 'I' for Inactive)
REMARK    1  A    between atoms: C_1  and  C_2
REMARK    2  A    between atoms: C_2  and  C_3
REMARK    3  A    between atoms: C_3  and  C_4
REMARK    4  A    between atoms: C_3  and  C_5
REMARK    5  A    between atoms: C_3  and  N_6
REMARK    6  A    between atoms: C_10  and  C_11
REMARK    7  A    between atoms: C_11  and  C_12
REMARK    8  A    between atoms: C_11  and  N_22
REMARK    9  A    between atoms: N_25  and  C_26
REMARK   10  A    between atoms: C_26  and  C_27
REMARK                            x       y       z     vdW  Elec       q    Type
REMARK                         _______ _______ _______ _____ _____    ______ ____
ROOT
ATOM      1  C   UNL     1       0.695  11.306  20.034  0.00  0.00    +0.000 C 
ENDROOT
BRANCH   1   2
ATOM      2  C   UNL     1       1.156   9.934  19.466  0.00  0.00    +0.000 A 
ATOM      3  C   UNL     1       1.683   9.798  18.171  0.00  0.00    +0.000 A 
ATOM      4  C   UNL     1       2.306   8.612  17.753  0.00  0.00    +0.000 A 
ATOM      5  C   UNL     1       2.385   7.502  18.573  0.00  0.00    +0.000 A 
ATOM      6  N   UNL     1       3.028   6.402  18.137  0.00  0.00    +0.000 NA
ATOM      7  C   UNL     1       3.074   5.323  18.948  0.00  0.00    +0.000 A 
ATOM      8  C   UNL     1       2.487   5.295  20.203  0.00  0.00    +0.000 A 
ATOM      9  C   UNL     1       1.830   6.438  20.651  0.00  0.00    +0.000 A 
ATOM     10  C   UNL     1       1.777   7.581  19.842  0.00  0.00    +0.000 A 
ATOM     11  C   UNL     1       1.166   8.784  20.276  0.00  0.00    +0.000 A 
ENDBRANCH   1   2
BRANCH   1  12
ATOM     12  N   UNL     1       1.465  12.437  19.460  0.00  0.00    +0.000 NA
ATOM     13  C   UNL     1       0.780  13.274  18.466  0.00  0.00    +0.000 C 
ATOM     14  C   UNL     1       0.137  14.603  18.955  0.00  0.00    +0.000 C 
ATOM     15  N   UNL     1       0.939  15.480  19.805  0.00  0.00    +0.000 NA
ATOM     16  C   UNL     1       1.708  14.673  20.787  0.00  0.00    +0.000 C 
ATOM     17  C   UNL     1       2.234  13.250  20.408  0.00  0.00    +0.000 C 
BRANCH  15  18
ATOM     18  C   UNL     1       1.763  16.539  19.198  0.00  0.00    +0.000 C 
BRANCH  18  19
ATOM     19  C   UNL     1       3.273  16.398  18.921  0.00  0.00    +0.000 A 
ATOM     20  C   UNL     1       3.653  15.466  17.911  0.00  0.00    +0.000 A 
ATOM     21  C   UNL     1       4.984  15.064  17.700  0.00  0.00    +0.000 A 
ATOM     22  C   UNL     1       5.947  15.587  18.520  0.00  0.00    +0.000 A 
ATOM     23  C   UNL     1       5.630  16.488  19.503  0.00  0.00    +0.000 A 
ATOM     24  C   UNL     1       4.313  16.927  19.716  0.00  0.00    +0.000 A 
ATOM     25  O   UNL     1       6.731  16.871  20.215  0.00  0.00    +0.000 OA
ATOM     26  C   UNL     1       7.736  15.987  19.663  0.00  0.00    +0.000 C 
ATOM     27  O   UNL     1       7.271  15.260  18.509  0.00  0.00    +0.000 OA
ENDBRANCH  18  19
ENDBRANCH  15  18
ENDBRANCH   1  12
BRANCH   1  32
ATOM     28  N   UNL     1      -1.699  12.162  20.821  0.00  0.00    +0.000 N 
ATOM     29  N   UNL     1      -2.843  12.412  20.124  0.00  0.00    +0.000 NA
ATOM     30  N   UNL     1      -2.750  11.755  18.989  0.00  0.00    +0.000 NA
ATOM     31  N   UNL     1      -1.529  11.182  18.867  0.00  0.00    +0.000 NA
ATOM     32  C   UNL     1      -0.816  11.534  19.929  0.00  0.00    +0.000 A 
BRANCH  28  33
ATOM     33  C   UNL     1      -1.794  12.243  22.296  0.00  0.00    +0.000 C 
ATOM     34  C   UNL     1      -1.281  11.001  23.057  0.00  0.00    +0.000 C 
ATOM     35  C   UNL     1      -3.275  12.457  22.688  0.00  0.00    +0.000 C 
BRANCH  33  37
ATOM     36  C   UNL     1      -1.606  14.868  22.733  0.00  0.00    +0.000 C 
ATOM     37  C   UNL     1      -0.962  13.476  22.871  0.00  0.00    +0.000 C 
ENDBRANCH  33  37
ENDBRANCH  28  33
ENDBRANCH   1  32
TORSDOF 7
ENDMDL
MODEL 6
REMARK VINA RESULT:      -8.8      4.705     10.485
REMARK  Name = 
REMARK  10 active torsions:
REMARK  status: ('A' for Active; 'I' for Inactive)
REMARK    1  A    between atoms: C_1  and  C_2
REMARK    2  A    between atoms: C_2  and  C_3
REMARK    3  A    between atoms: C_3  and  C_4
REMARK    4  A    between atoms: C_3  and  C_5
REMARK    5  A    between atoms: C_3  and  N_6
REMARK    6  A    between atoms: C_10  and  C_11
REMARK    7  A    between atoms: C_11  and  C_12
REMARK    8  A    between atoms: C_11  and  N_22
REMARK    9  A    between atoms: N_25  and  C_26
REMARK   10  A    between atoms: C_26  and  C_27
REMARK                            x       y       z     vdW  Elec       q    Type
REMARK                         _______ _______ _______ _____ _____    ______ ____
ROOT
ATOM      1  C   UNL     1       0.017  12.837  19.987  0.00  0.00    +0.000 C 
ENDROOT
BRANCH   1   2
ATOM      2  C   UNL     1       0.507  14.242  19.536  0.00  0.00    +0.000 A 
ATOM      3  C   UNL     1       1.867  14.593  19.525  0.00  0.00    +0.000 A 
ATOM      4  C   UNL     1       2.317  15.768  18.905  0.00  0.00    +0.000 A 
ATOM      5  C   UNL     1       1.442  16.665  18.320  0.00  0.00    +0.000 A 
ATOM      6  N   UNL     1       1.930  17.759  17.704  0.00  0.00    +0.000 NA
ATOM      7  C   UNL     1       1.054  18.630  17.158  0.00  0.00    +0.000 A 
ATOM      8  C   UNL     1      -0.320  18.453  17.209  0.00  0.00    +0.000 A 
ATOM      9  C   UNL     1      -0.818  17.317  17.842  0.00  0.00    +0.000 A 
ATOM     10  C   UNL     1       0.063  16.383  18.404  0.00  0.00    +0.000 A 
ATOM     11  C   UNL     1      -0.393  15.187  19.012  0.00  0.00    +0.000 A 
ENDBRANCH   1   2
BRANCH   1  12
ATOM     12  N   UNL     1       1.119  11.845  20.027  0.00  0.00    +0.000 NA
ATOM     13  C   UNL     1       1.069  10.834  21.091  0.00  0.00    +0.000 C 
ATOM     14  C   UNL     1       0.485   9.437  20.739  0.00  0.00    +0.000 C 
ATOM     15  N   UNL     1       0.958   8.784  19.520  0.00  0.00    +0.000 NA
ATOM     16  C   UNL     1       1.093   9.781  18.427  0.00  0.00    +0.000 C 
ATOM     17  C   UNL     1       1.512  11.254  18.743  0.00  0.00    +0.000 C 
BRANCH  15  18
ATOM     18  C   UNL     1       2.113   7.871  19.577  0.00  0.00    +0.000 C 
BRANCH  18  19
ATOM     19  C   UNL     1       2.010   6.347  19.374  0.00  0.00    +0.000 A 
ATOM     20  C   UNL     1       1.779   5.560  20.541  0.00  0.00    +0.000 A 
ATOM     21  C   UNL     1       1.883   4.157  20.554  0.00  0.00    +0.000 A 
ATOM     22  C   UNL     1       2.238   3.532  19.389  0.00  0.00    +0.000 A 
ATOM     23  C   UNL     1       2.467   4.246  18.242  0.00  0.00    +0.000 A 
ATOM     24  C   UNL     1       2.342   5.643  18.195  0.00  0.00    +0.000 A 
ATOM     25  O   UNL     1       2.824   3.435  17.202  0.00  0.00    +0.000 OA
ATOM     26  C   UNL     1       2.942   2.160  17.878  0.00  0.00    +0.000 C 
ATOM     27  O   UNL     1       2.455   2.195  19.234  0.00  0.00    +0.000 OA
ENDBRANCH  18  19
ENDBRANCH  15  18
ENDBRANCH   1  12
BRANCH   1  32
ATOM     28  N   UNL     1      -2.148  12.652  21.525  0.00  0.00    +0.000 N 
ATOM     29  N   UNL     1      -2.289  12.432  22.862  0.00  0.00    +0.000 NA
ATOM     30  N   UNL     1      -1.142  12.741  23.424  0.00  0.00    +0.000 NA
ATOM     31  N   UNL     1      -0.213  13.038  22.483  0.00  0.00    +0.000 NA
ATOM     32  C   UNL     1      -0.779  12.859  21.296  0.00  0.00    +0.000 A 
BRANCH  28  33
ATOM     33  C   UNL     1      -3.382  12.979  20.775  0.00  0.00    +0.000 C 
ATOM     34  C   UNL     1      -4.700  12.604  21.486  0.00  0.00    +0.000 C 
ATOM     35  C   UNL     1      -3.351  12.238  19.418  0.00  0.00    +0.000 C 
BRANCH  33  37
ATOM     36  C   UNL     1      -3.215  15.495  21.647  0.00  0.00    +0.000 C 
ATOM     37  C   UNL     1      -3.485  14.540  20.469  0.00  0.00    +0.000 C 
ENDBRANCH  33  37
ENDBRANCH  28  33
ENDBRANCH   1  32
TORSDOF 7
ENDMDL
MODEL 7
REMARK VINA RESULT:      -8.8      4.670     10.451
REMARK  Name = 
REMARK  10 active torsions:
REMARK  status: ('A' for Active; 'I' for Inactive)
REMARK    1  A    between atoms: C_1  and  C_2
REMARK    2  A    between atoms: C_2  and  C_3
REMARK    3  A    between atoms: C_3  and  C_4
REMARK    4  A    between atoms: C_3  and  C_5
REMARK    5  A    between atoms: C_3  and  N_6
REMARK    6  A    between atoms: C_10  and  C_11
REMARK    7  A    between atoms: C_11  and  C_12
REMARK    8  A    between atoms: C_11  and  N_22
REMARK    9  A    between atoms: N_25  and  C_26
REMARK   10  A    between atoms: C_26  and  C_27
REMARK                            x       y       z     vdW  Elec       q    Type
REMARK                         _______ _______ _______ _____ _____    ______ ____
ROOT
ATOM      1  C   UNL     1      -0.810  12.316  21.728  0.00  0.00    +0.000 C 
ENDROOT
BRANCH   1   2
ATOM      2  C   UNL     1      -1.341  12.292  20.267  0.00  0.00    +0.000 A 
ATOM      3  C   UNL     1      -0.545  12.677  19.174  0.00  0.00    +0.000 A 
ATOM      4  C   UNL     1      -0.948  12.435  17.853  0.00  0.00    +0.000 A 
ATOM      5  C   UNL     1      -2.168  11.857  17.556  0.00  0.00    +0.000 A 
ATOM      6  N   UNL     1      -2.488  11.611  16.271  0.00  0.00    +0.000 NA
ATOM      7  C   UNL     1      -3.694  11.064  16.005  0.00  0.00    +0.000 A 
ATOM      8  C   UNL     1      -4.616  10.749  16.992  0.00  0.00    +0.000 A 
ATOM      9  C   UNL     1      -4.276  10.999  18.318  0.00  0.00    +0.000 A 
ATOM     10  C   UNL     1      -3.026  11.551  18.632  0.00  0.00    +0.000 A 
ATOM     11  C   UNL     1      -2.614  11.775  19.969  0.00  0.00    +0.000 A 
ENDBRANCH   1   2
BRANCH   1  12
ATOM     12  N   UNL     1       0.269  11.323  21.949  0.00  0.00    +0.000 NA
ATOM     13  C   UNL     1      -0.082  10.113  22.704  0.00  0.00    +0.000 C 
ATOM     14  C   UNL     1      -0.427   8.828  21.899  0.00  0.00    +0.000 C 
ATOM     15  N   UNL     1       0.472   8.437  20.816  0.00  0.00    +0.000 NA
ATOM     16  C   UNL     1       0.913   9.638  20.060  0.00  0.00    +0.000 C 
ATOM     17  C   UNL     1       1.111  11.007  20.790  0.00  0.00    +0.000 C 
BRANCH  15  18
ATOM     18  C   UNL     1       1.589   7.515  21.086  0.00  0.00    +0.000 C 
BRANCH  18  19
ATOM     19  C   UNL     1       1.841   6.218  20.292  0.00  0.00    +0.000 A 
ATOM     20  C   UNL     1       2.367   6.367  18.975  0.00  0.00    +0.000 A 
ATOM     21  C   UNL     1       2.439   5.306  18.053  0.00  0.00    +0.000 A 
ATOM     22  C   UNL     1       1.966   4.084  18.448  0.00  0.00    +0.000 A 
ATOM     23  C   UNL     1       1.454   3.893  19.705  0.00  0.00    +0.000 A 
ATOM     24  C   UNL     1       1.396   4.927  20.652  0.00  0.00    +0.000 A 
ATOM     25  O   UNL     1       1.023   2.609  19.888  0.00  0.00    +0.000 OA
ATOM     26  C   UNL     1       1.182   2.074  18.552  0.00  0.00    +0.000 C 
ATOM     27  O   UNL     1       1.891   2.968  17.669  0.00  0.00    +0.000 OA
ENDBRANCH  18  19
ENDBRANCH  15  18
ENDBRANCH   1  12
BRANCH   1  32
ATOM     28  N   UNL     1      -1.171  14.713  22.828  0.00  0.00    +0.000 N 
ATOM     29  N   UNL     1      -0.288  15.605  23.359  0.00  0.00    +0.000 NA
ATOM     30  N   UNL     1       0.897  15.307  22.874  0.00  0.00    +0.000 NA
ATOM     31  N   UNL     1       0.838  14.171  22.137  0.00  0.00    +0.000 NA
ATOM     32  C   UNL     1      -0.405  13.714  22.207  0.00  0.00    +0.000 A 
BRANCH  28  33
ATOM     33  C   UNL     1      -2.574  15.168  22.702  0.00  0.00    +0.000 C 
ATOM     34  C   UNL     1      -3.642  14.113  23.061  0.00  0.00    +0.000 C 
ATOM     35  C   UNL     1      -2.823  15.613  21.241  0.00  0.00    +0.000 C 
BRANCH  33  37
ATOM     36  C   UNL     1      -3.540  16.123  24.998  0.00  0.00    +0.000 C 
ATOM     37  C   UNL     1      -2.870  16.421  23.643  0.00  0.00    +0.000 C 
ENDBRANCH  33  37
ENDBRANCH  28  33
ENDBRANCH   1  32
TORSDOF 7
ENDMDL
MODEL 8
REMARK VINA RESULT:      -8.8      4.654     10.539
REMARK  Name = 
REMARK  10 active torsions:
REMARK  status: ('A' for Active; 'I' for Inactive)
REMARK    1  A    between atoms: C_1  and  C_2
REMARK    2  A    between atoms: C_2  and  C_3
REMARK    3  A    between atoms: C_3  and  C_4
REMARK    4  A    between atoms: C_3  and  C_5
REMARK    5  A    between atoms: C_3  and  N_6
REMARK    6  A    between atoms: C_10  and  C_11
REMARK    7  A    between atoms: C_11  and  C_12
REMARK    8  A    between atoms: C_11  and  N_22
REMARK    9  A    between atoms: N_25  and  C_26
REMARK   10  A    between atoms: C_26  and  C_27
REMARK                            x       y       z     vdW  Elec       q    Type
REMARK                         _______ _______ _______ _____ _____    ______ ____
ROOT
ATOM      1  C   UNL     1      -1.049  12.246  21.992  0.00  0.00    +0.000 C 
ENDROOT
BRANCH   1   2
ATOM      2  C   UNL     1      -1.606  12.253  20.540  0.00  0.00    +0.000 A 
ATOM      3  C   UNL     1      -0.773  12.415  19.420  0.00  0.00    +0.000 A 
ATOM      4  C   UNL     1      -1.244  12.191  18.118  0.00  0.00    +0.000 A 
ATOM      5  C   UNL     1      -2.560  11.853  17.866  0.00  0.00    +0.000 A 
ATOM      6  N   UNL     1      -2.950  11.611  16.600  0.00  0.00    +0.000 NA
ATOM      7  C   UNL     1      -4.246  11.302  16.377  0.00  0.00    +0.000 A 
ATOM      8  C   UNL     1      -5.191  11.229  17.389  0.00  0.00    +0.000 A 
ATOM      9  C   UNL     1      -4.779  11.473  18.697  0.00  0.00    +0.000 A 
ATOM     10  C   UNL     1      -3.439  11.780  18.966  0.00  0.00    +0.000 A 
ATOM     11  C   UNL     1      -2.962  11.985  20.285  0.00  0.00    +0.000 A 
ENDBRANCH   1   2
BRANCH   1  12
ATOM     12  N   UNL     1       0.083  11.302  22.153  0.00  0.00    +0.000 NA
ATOM     13  C   UNL     1      -0.204  10.020  22.812  0.00  0.00    +0.000 C 
ATOM     14  C   UNL     1      -0.465   8.783  21.908  0.00  0.00    +0.000 C 
ATOM     15  N   UNL     1       0.466   8.526  20.811  0.00  0.00    +0.000 NA
ATOM     16  C   UNL     1       0.844   9.804  20.154  0.00  0.00    +0.000 C 
ATOM     17  C   UNL     1       0.954  11.123  20.986  0.00  0.00    +0.000 C 
BRANCH  15  18
ATOM     18  C   UNL     1       1.633   7.653  21.028  0.00  0.00    +0.000 C 
BRANCH  18  19
ATOM     19  C   UNL     1       1.863   6.328  20.274  0.00  0.00    +0.000 A 
ATOM     20  C   UNL     1       2.417   6.426  18.964  0.00  0.00    +0.000 A 
ATOM     21  C   UNL     1       2.477   5.339  18.073  0.00  0.00    +0.000 A 
ATOM     22  C   UNL     1       1.962   4.141  18.491  0.00  0.00    +0.000 A 
ATOM     23  C   UNL     1       1.422   3.999  19.742  0.00  0.00    +0.000 A 
ATOM     24  C   UNL     1       1.376   5.060  20.660  0.00  0.00    +0.000 A 
ATOM     25  O   UNL     1       0.952   2.733  19.951  0.00  0.00    +0.000 OA
ATOM     26  C   UNL     1       1.121   2.157  18.633  0.00  0.00    +0.000 C 
ATOM     27  O   UNL     1       1.870   3.006  17.741  0.00  0.00    +0.000 OA
ENDBRANCH  18  19
ENDBRANCH  15  18
ENDBRANCH   1  12
BRANCH   1  32
ATOM     28  N   UNL     1      -1.492  14.544  23.259  0.00  0.00    +0.000 N 
ATOM     29  N   UNL     1      -0.635  15.471  23.774  0.00  0.00    +0.000 NA
ATOM     30  N   UNL     1       0.525  15.291  23.182  0.00  0.00    +0.000 NA
ATOM     31  N   UNL     1       0.489  14.196  22.385  0.00  0.00    +0.000 NA
ATOM     32  C   UNL     1      -0.708  13.642  22.522  0.00  0.00    +0.000 A 
BRANCH  28  33
ATOM     33  C   UNL     1      -2.929  14.898  23.268  0.00  0.00    +0.000 C 
ATOM     34  C   UNL     1      -3.397  15.775  22.087  0.00  0.00    +0.000 C 
ATOM     35  C   UNL     1      -3.246  15.660  24.576  0.00  0.00    +0.000 C 
BRANCH  33  37
ATOM     36  C   UNL     1      -4.027  12.839  24.562  0.00  0.00    +0.000 C 
ATOM     37  C   UNL     1      -3.853  13.598  23.233  0.00  0.00    +0.000 C 
ENDBRANCH  33  37
ENDBRANCH  28  33
ENDBRANCH   1  32
TORSDOF 7
ENDMDL
MODEL 9
REMARK VINA RESULT:      -8.8      0.872      1.229
REMARK  Name = 
REMARK  10 active torsions:
REMARK  status: ('A' for Active; 'I' for Inactive)
REMARK    1  A    between atoms: C_1  and  C_2
REMARK    2  A    between atoms: C_2  and  C_3
REMARK    3  A    between atoms: C_3  and  C_4
REMARK    4  A    between atoms: C_3  and  C_5
REMARK    5  A    between atoms: C_3  and  N_6
REMARK    6  A    between atoms: C_10  and  C_11
REMARK    7  A    between atoms: C_11  and  C_12
REMARK    8  A    between atoms: C_11  and  N_22
REMARK    9  A    between atoms: N_25  and  C_26
REMARK   10  A    between atoms: C_26  and  C_27
REMARK                            x       y       z     vdW  Elec       q    Type
REMARK                         _______ _______ _______ _____ _____    ______ ____
ROOT
ATOM      1  C   UNL     1       4.160   5.398  18.876  0.00  0.00    +0.000 C 
ENDROOT
BRANCH   1   2
ATOM      2  C   UNL     1       5.008   5.555  17.582  0.00  0.00    +0.000 A 
ATOM      3  C   UNL     1       6.134   6.394  17.522  0.00  0.00    +0.000 A 
ATOM      4  C   UNL     1       7.021   6.354  16.436  0.00  0.00    +0.000 A 
ATOM      5  C   UNL     1       6.805   5.529  15.348  0.00  0.00    +0.000 A 
ATOM      6  N   UNL     1       7.709   5.502  14.350  0.00  0.00    +0.000 NA
ATOM      7  C   UNL     1       7.466   4.703  13.288  0.00  0.00    +0.000 A 
ATOM      8  C   UNL     1       6.329   3.917  13.177  0.00  0.00    +0.000 A 
ATOM      9  C   UNL     1       5.403   3.945  14.216  0.00  0.00    +0.000 A 
ATOM     10  C   UNL     1       5.631   4.750  15.340  0.00  0.00    +0.000 A 
ATOM     11  C   UNL     1       4.744   4.772  16.445  0.00  0.00    +0.000 A 
ENDBRANCH   1   2
BRANCH   1  12
ATOM     12  N   UNL     1       2.819   6.018  18.746  0.00  0.00    +0.000 NA
ATOM     13  C   UNL     1       2.160   6.451  19.986  0.00  0.00    +0.000 C 
ATOM     14  C   UNL     1       2.273   7.949  20.384  0.00  0.00    +0.000 C 
ATOM     15  N   UNL     1       2.002   8.953  19.357  0.00  0.00    +0.000 NA
ATOM     16  C   UNL     1       2.590   8.528  18.061  0.00  0.00    +0.000 C 
ATOM     17  C   UNL     1       2.662   7.013  17.680  0.00  0.00    +0.000 C 
BRANCH  15  18
ATOM     18  C   UNL     1       0.638   9.486  19.194  0.00  0.00    +0.000 C 
BRANCH  18  19
ATOM     19  C   UNL     1       0.147  10.795  19.843  0.00  0.00    +0.000 A 
ATOM     20  C   UNL     1      -0.666  10.665  21.008  0.00  0.00    +0.000 A 
ATOM     21  C   UNL     1      -1.369  11.742  21.578  0.00  0.00    +0.000 A 
ATOM     22  C   UNL     1      -1.270  12.963  20.967  0.00  0.00    +0.000 A 
ATOM     23  C   UNL     1      -0.499  13.137  19.848  0.00  0.00    +0.000 A 
ATOM     24  C   UNL     1       0.234  12.085  19.276  0.00  0.00    +0.000 A 
ATOM     25  O   UNL     1      -0.552  14.423  19.390  0.00  0.00    +0.000 OA
ATOM     26  C   UNL     1      -1.566  14.982  20.260  0.00  0.00    +0.000 C 
ATOM     27  O   UNL     1      -1.933  14.096  21.336  0.00  0.00    +0.000 OA
ENDBRANCH  18  19
ENDBRANCH  15  18
ENDBRANCH   1  12
BRANCH   1  32
ATOM     28  N   UNL     1       3.117   2.961  19.113  0.00  0.00    +0.000 N 
ATOM     29  N   UNL     1       3.668   1.777  19.502  0.00  0.00    +0.000 NA
ATOM     30  N   UNL     1       4.756   2.065  20.182  0.00  0.00    +0.000 NA
ATOM     31  N   UNL     1       5.002   3.397  20.146  0.00  0.00    +0.000 NA
ATOM     32  C   UNL     1       4.074   3.953  19.378  0.00  0.00    +0.000 A 
BRANCH  28  33
ATOM     33  C   UNL     1       1.653   2.968  18.899  0.00  0.00    +0.000 C 
ATOM     34  C   UNL     1       1.014   1.579  18.679  0.00  0.00    +0.000 C 
ATOM     35  C   UNL     1       1.336   3.834  17.656  0.00  0.00    +0.000 C 
BRANCH  33  37
ATOM     36  C   UNL     1       1.246   3.063  21.533  0.00  0.00    +0.000 C 
ATOM     37  C   UNL     1       0.881   3.607  20.139  0.00  0.00    +0.000 C 
ENDBRANCH  33  37
ENDBRANCH  28  33
ENDBRANCH   1  32
TORSDOF 7
ENDMDL
