MODEL 1
REMARK VINA RESULT:      -8.5      0.000      0.000
REMARK  Name = 
REMARK  5 active torsions:
REMARK  status: ('A' for Active; 'I' for Inactive)
REMARK    1  A    between atoms: C_1  and  C_2
REMARK    2  A    between atoms: C_7  and  N_8
REMARK    3  A    between atoms: C_9  and  C_11
REMARK    4  A    between atoms: C_20  and  C_21
REMARK    5  A    between atoms: C_20  and  C_22
REMARK                            x       y       z     vdW  Elec       q    Type
REMARK                         _______ _______ _______ _____ _____    ______ ____
ROOT
ATOM      1  C   UNL     1       3.305   4.966  20.031  0.00  0.00    +0.000 C 
ATOM      2  C   UNL     1       2.814   3.536  19.862  0.00  0.00    +0.000 C 
ATOM      3  C   UNL     1       3.626   2.992  18.742  0.00  0.00    +0.000 C 
ATOM      4  O   UNL     1       3.743   1.812  18.464  0.00  0.00    +0.000 OA
ATOM      5  O   UNL     1       4.185   3.999  18.034  0.00  0.00    +0.000 OA
ATOM      6  C   UNL     1       4.219   5.220  18.795  0.00  0.00    +0.000 C 
ATOM      7  C   UNL     1       3.845   6.375  17.856  0.00  0.00    +0.000 C 
ATOM      8  C   UNL     1       4.891   6.624  16.774  0.00  0.00    +0.000 C 
ATOM      9  O   UNL     1       6.191   6.807  17.326  0.00  0.00    +0.000 OA
ATOM     10  C   UNL     1       6.671   5.703  18.101  0.00  0.00    +0.000 C 
ATOM     11  C   UNL     1       6.967   4.484  17.211  0.00  0.00    +0.000 C 
ATOM     12  C   UNL     1       8.010   6.155  18.707  0.00  0.00    +0.000 C 
ATOM     13  C   UNL     1       5.682   5.421  19.254  0.00  0.00    +0.000 C 
ENDROOT
BRANCH   1  15
ATOM     14  N   UNL     1       2.361   7.199  20.353  0.00  0.00    +0.000 N 
ATOM     15  C   UNL     1       2.069   5.845  20.226  0.00  0.00    +0.000 C 
ATOM     16  O   UNL     1       0.960   5.343  20.361  0.00  0.00    +0.000 OA
ATOM     17  H   UNL     1       3.334   7.475  20.366  0.00  0.00    +0.000 HD
BRANCH  14  24
ATOM     18  C   UNL     1       1.654   9.044  18.141  0.00  0.00    +0.000 C 
ATOM     19  C   UNL     1       1.074   9.131  19.526  0.00  0.00    +0.000 A 
ATOM     20  C   UNL     1       0.140  10.159  19.769  0.00  0.00    +0.000 A 
ATOM     21  C   UNL     1      -0.445  10.325  21.020  0.00  0.00    +0.000 A 
ATOM     22  C   UNL     1      -0.121   9.450  22.045  0.00  0.00    +0.000 A 
ATOM     23  C   UNL     1       0.791   8.416  21.818  0.00  0.00    +0.000 A 
ATOM     24  C   UNL     1       1.414   8.242  20.573  0.00  0.00    +0.000 A 
ENDBRANCH  14  24
ENDBRANCH   1  15
TORSDOF 2
ENDMDL
MODEL 2
REMARK VINA RESULT:      -7.6      3.224      7.312
REMARK  Name = 
REMARK  5 active torsions:
REMARK  status: ('A' for Active; 'I' for Inactive)
REMARK    1  A    between atoms: C_1  and  C_2
REMARK    2  A    between atoms: C_7  and  N_8
REMARK    3  A    between atoms: C_9  and  C_11
REMARK    4  A    between atoms: C_20  and  C_21
REMARK    5  A    between atoms: C_20  and  C_22
REMARK                            x       y       z     vdW  Elec       q    Type
REMARK                         _______ _______ _______ _____ _____    ______ ____
ROOT
ATOM      1  C   UNL     1       4.790   5.088  17.896  0.00  0.00    +0.000 C 
ATOM      2  C   UNL     1       4.350   6.486  17.487  0.00  0.00    +0.000 C 
ATOM      3  C   UNL     1       2.918   6.556  17.879  0.00  0.00    +0.000 C 
ATOM      4  O   UNL     1       2.263   7.579  17.977  0.00  0.00    +0.000 OA
ATOM      5  O   UNL     1       2.420   5.313  18.067  0.00  0.00    +0.000 OA
ATOM      6  C   UNL     1       3.471   4.354  18.280  0.00  0.00    +0.000 C 
ATOM      7  C   UNL     1       3.111   3.077  17.506  0.00  0.00    +0.000 C 
ATOM      8  C   UNL     1       1.886   2.366  18.070  0.00  0.00    +0.000 C 
ATOM      9  O   UNL     1       2.020   2.104  19.465  0.00  0.00    +0.000 OA
ATOM     10  C   UNL     1       2.214   3.270  20.274  0.00  0.00    +0.000 C 
ATOM     11  C   UNL     1       0.943   4.134  20.321  0.00  0.00    +0.000 C 
ATOM     12  C   UNL     1       2.467   2.762  21.703  0.00  0.00    +0.000 C 
ATOM     13  C   UNL     1       3.474   4.022  19.791  0.00  0.00    +0.000 C 
ENDROOT
BRANCH   1  15
ATOM     14  N   UNL     1       5.150   4.856  15.488  0.00  0.00    +0.000 N 
ATOM     15  C   UNL     1       5.636   4.530  16.749  0.00  0.00    +0.000 C 
ATOM     16  O   UNL     1       6.577   3.781  16.976  0.00  0.00    +0.000 OA
ATOM     17  H   UNL     1       4.278   5.365  15.432  0.00  0.00    +0.000 HD
BRANCH  14  24
ATOM     18  C   UNL     1       7.855   5.796  14.716  0.00  0.00    +0.000 C 
ATOM     19  C   UNL     1       7.003   4.896  13.863  0.00  0.00    +0.000 A 
ATOM     20  C   UNL     1       7.539   4.486  12.625  0.00  0.00    +0.000 A 
ATOM     21  C   UNL     1       6.823   3.661  11.763  0.00  0.00    +0.000 A 
ATOM     22  C   UNL     1       5.565   3.214  12.138  0.00  0.00    +0.000 A 
ATOM     23  C   UNL     1       5.025   3.598  13.368  0.00  0.00    +0.000 A 
ATOM     24  C   UNL     1       5.716   4.449  14.244  0.00  0.00    +0.000 A 
ENDBRANCH  14  24
ENDBRANCH   1  15
TORSDOF 2
ENDMDL
MODEL 3
REMARK VINA RESULT:      -7.4      0.696      1.557
REMARK  Name = 
REMARK  5 active torsions:
REMARK  status: ('A' for Active; 'I' for Inactive)
REMARK    1  A    between atoms: C_1  and  C_2
REMARK    2  A    between atoms: C_7  and  N_8
REMARK    3  A    between atoms: C_9  and  C_11
REMARK    4  A    between atoms: C_20  and  C_21
REMARK    5  A    between atoms: C_20  and  C_22
REMARK                            x       y       z     vdW  Elec       q    Type
REMARK                         _______ _______ _______ _____ _____    ______ ____
ROOT
ATOM      1  C   UNL     1       3.470   5.366  19.833  0.00  0.00    +0.000 C 
ATOM      2  C   UNL     1       3.043   3.909  19.926  0.00  0.00    +0.000 C 
ATOM      3  C   UNL     1       3.974   3.188  19.019  0.00  0.00    +0.000 C 
ATOM      4  O   UNL     1       4.155   1.983  19.006  0.00  0.00    +0.000 OA
ATOM      5  O   UNL     1       4.565   4.055  18.166  0.00  0.00    +0.000 OA
ATOM      6  C   UNL     1       4.488   5.406  18.654  0.00  0.00    +0.000 C 
ATOM      7  C   UNL     1       4.167   6.322  17.464  0.00  0.00    +0.000 C 
ATOM      8  C   UNL     1       5.303   6.396  16.448  0.00  0.00    +0.000 C 
ATOM      9  O   UNL     1       6.539   6.755  17.059  0.00  0.00    +0.000 OA
ATOM     10  C   UNL     1       6.978   5.860  18.087  0.00  0.00    +0.000 C 
ATOM     11  C   UNL     1       7.396   4.501  17.502  0.00  0.00    +0.000 C 
ATOM     12  C   UNL     1       8.238   6.496  18.698  0.00  0.00    +0.000 C 
ATOM     13  C   UNL     1       5.894   5.772  19.184  0.00  0.00    +0.000 C 
ENDROOT
BRANCH   1  15
ATOM     14  N   UNL     1       2.428   7.558  19.533  0.00  0.00    +0.000 N 
ATOM     15  C   UNL     1       2.193   6.202  19.732  0.00  0.00    +0.000 C 
ATOM     16  O   UNL     1       1.096   5.693  19.926  0.00  0.00    +0.000 OA
ATOM     17  H   UNL     1       3.388   7.878  19.530  0.00  0.00    +0.000 HD
BRANCH  14  24
ATOM     18  C   UNL     1       1.264   8.742  21.991  0.00  0.00    +0.000 C 
ATOM     19  C   UNL     1       0.865   9.140  20.596  0.00  0.00    +0.000 A 
ATOM     20  C   UNL     1      -0.123  10.137  20.469  0.00  0.00    +0.000 A 
ATOM     21  C   UNL     1      -0.564  10.566  19.221  0.00  0.00    +0.000 A 
ATOM     22  C   UNL     1      -0.004  10.019  18.077  0.00  0.00    +0.000 A 
ATOM     23  C   UNL     1       0.988   9.041  18.184  0.00  0.00    +0.000 A 
ATOM     24  C   UNL     1       1.432   8.573  19.430  0.00  0.00    +0.000 A 
ENDBRANCH  14  24
ENDBRANCH   1  15
TORSDOF 2
ENDMDL
MODEL 4
REMARK VINA RESULT:      -7.4      2.216      4.240
REMARK  Name = 
REMARK  5 active torsions:
REMARK  status: ('A' for Active; 'I' for Inactive)
REMARK    1  A    between atoms: C_1  and  C_2
REMARK    2  A    between atoms: C_7  and  N_8
REMARK    3  A    between atoms: C_9  and  C_11
REMARK    4  A    between atoms: C_20  and  C_21
REMARK    5  A    between atoms: C_20  and  C_22
REMARK                            x       y       z     vdW  Elec       q    Type
REMARK                         _______ _______ _______ _____ _____    ______ ____
ROOT
ATOM      1  C   UNL     1       2.325   6.964  18.172  0.00  0.00    +0.000 C 
ATOM      2  C   UNL     1       3.726   7.246  17.650  0.00  0.00    +0.000 C 
ATOM      3  C   UNL     1       4.512   6.040  18.022  0.00  0.00    +0.000 C 
ATOM      4  O   UNL     1       5.599   5.737  17.561  0.00  0.00    +0.000 OA
ATOM      5  O   UNL     1       3.874   5.340  18.987  0.00  0.00    +0.000 OA
ATOM      6  C   UNL     1       2.478   5.684  19.046  0.00  0.00    +0.000 C 
ATOM      7  C   UNL     1       2.075   5.776  20.525  0.00  0.00    +0.000 C 
ATOM      8  C   UNL     1       2.122   4.429  21.239  0.00  0.00    +0.000 C 
ATOM      9  O   UNL     1       1.356   3.440  20.556  0.00  0.00    +0.000 OA
ATOM     10  C   UNL     1       1.769   3.193  19.207  0.00  0.00    +0.000 C 
ATOM     11  C   UNL     1       3.140   2.498  19.162  0.00  0.00    +0.000 C 
ATOM     12  C   UNL     1       0.744   2.210  18.619  0.00  0.00    +0.000 C 
ATOM     13  C   UNL     1       1.700   4.511  18.403  0.00  0.00    +0.000 C 
ENDROOT
BRANCH   1  15
ATOM     14  N   UNL     1       1.470   9.242  17.923  0.00  0.00    +0.000 N 
ATOM     15  C   UNL     1       1.824   8.251  18.832  0.00  0.00    +0.000 C 
ATOM     16  O   UNL     1       1.857   8.381  20.049  0.00  0.00    +0.000 OA
ATOM     17  H   UNL     1       1.622   9.062  16.940  0.00  0.00    +0.000 HD
BRANCH  14  24
ATOM     18  C   UNL     1      -1.440   9.814  17.908  0.00  0.00    +0.000 C 
ATOM     19  C   UNL     1      -0.386  10.833  18.242  0.00  0.00    +0.000 A 
ATOM     20  C   UNL     1      -0.826  12.133  18.564  0.00  0.00    +0.000 A 
ATOM     21  C   UNL     1       0.075  13.146  18.879  0.00  0.00    +0.000 A 
ATOM     22  C   UNL     1       1.433  12.867  18.898  0.00  0.00    +0.000 A 
ATOM     23  C   UNL     1       1.886  11.580  18.597  0.00  0.00    +0.000 A 
ATOM     24  C   UNL     1       1.000  10.548  18.252  0.00  0.00    +0.000 A 
ENDBRANCH  14  24
ENDBRANCH   1  15
TORSDOF 2
ENDMDL
MODEL 5
REMARK VINA RESULT:      -7.3      3.110      7.245
REMARK  Name = 
REMARK  5 active torsions:
REMARK  status: ('A' for Active; 'I' for Inactive)
REMARK    1  A    between atoms: C_1  and  C_2
REMARK    2  A    between atoms: C_7  and  N_8
REMARK    3  A    between atoms: C_9  and  C_11
REMARK    4  A    between atoms: C_20  and  C_21
REMARK    5  A    between atoms: C_20  and  C_22
REMARK                            x       y       z     vdW  Elec       q    Type
REMARK                         _______ _______ _______ _____ _____    ______ ____
ROOT
ATOM      1  C   UNL     1       4.729   5.706  17.464  0.00  0.00    +0.000 C 
ATOM      2  C   UNL     1       4.035   7.022  17.781  0.00  0.00    +0.000 C 
ATOM      3  C   UNL     1       2.913   6.645  18.680  0.00  0.00    +0.000 C 
ATOM      4  O   UNL     1       2.279   7.418  19.377  0.00  0.00    +0.000 OA
ATOM      5  O   UNL     1       2.656   5.321  18.584  0.00  0.00    +0.000 OA
ATOM      6  C   UNL     1       3.775   4.609  18.026  0.00  0.00    +0.000 C 
ATOM      7  C   UNL     1       3.230   3.564  17.043  0.00  0.00    +0.000 C 
ATOM      8  C   UNL     1       2.436   2.458  17.731  0.00  0.00    +0.000 C 
ATOM      9  O   UNL     1       3.182   1.843  18.778  0.00  0.00    +0.000 OA
ATOM     10  C   UNL     1       3.604   2.737  19.814  0.00  0.00    +0.000 C 
ATOM     11  C   UNL     1       2.408   3.236  20.642  0.00  0.00    +0.000 C 
ATOM     12  C   UNL     1       4.494   1.911  20.757  0.00  0.00    +0.000 C 
ATOM     13  C   UNL     1       4.461   3.865  19.196  0.00  0.00    +0.000 C 
ENDROOT
BRANCH   1  15
ATOM     14  N   UNL     1       5.520   4.496  15.491  0.00  0.00    +0.000 N 
ATOM     15  C   UNL     1       5.041   5.712  15.966  0.00  0.00    +0.000 C 
ATOM     16  O   UNL     1       4.965   6.747  15.317  0.00  0.00    +0.000 OA
ATOM     17  H   UNL     1       5.673   3.752  16.159  0.00  0.00    +0.000 HD
BRANCH  14  24
ATOM     18  C   UNL     1       8.093   5.555  14.464  0.00  0.00    +0.000 C 
ATOM     19  C   UNL     1       7.140   4.726  13.647  0.00  0.00    +0.000 A 
ATOM     20  C   UNL     1       7.508   4.447  12.315  0.00  0.00    +0.000 A 
ATOM     21  C   UNL     1       6.688   3.696  11.479  0.00  0.00    +0.000 A 
ATOM     22  C   UNL     1       5.493   3.192  11.971  0.00  0.00    +0.000 A 
ATOM     23  C   UNL     1       5.120   3.446  13.293  0.00  0.00    +0.000 A 
ATOM     24  C   UNL     1       5.917   4.221  14.149  0.00  0.00    +0.000 A 
ENDBRANCH  14  24
ENDBRANCH   1  15
TORSDOF 2
ENDMDL
MODEL 6
REMARK VINA RESULT:      -7.3      3.194      7.271
REMARK  Name = 
REMARK  5 active torsions:
REMARK  status: ('A' for Active; 'I' for Inactive)
REMARK    1  A    between atoms: C_1  and  C_2
REMARK    2  A    between atoms: C_7  and  N_8
REMARK    3  A    between atoms: C_9  and  C_11
REMARK    4  A    between atoms: C_20  and  C_21
REMARK    5  A    between atoms: C_20  and  C_22
REMARK                            x       y       z     vdW  Elec       q    Type
REMARK                         _______ _______ _______ _____ _____    ______ ____
ROOT
ATOM      1  C   UNL     1       5.021   5.335  17.973  0.00  0.00    +0.000 C 
ATOM      2  C   UNL     1       4.512   6.716  17.587  0.00  0.00    +0.000 C 
ATOM      3  C   UNL     1       3.055   6.671  17.878  0.00  0.00    +0.000 C 
ATOM      4  O   UNL     1       2.324   7.642  17.968  0.00  0.00    +0.000 OA
ATOM      5  O   UNL     1       2.635   5.391  17.983  0.00  0.00    +0.000 OA
ATOM      6  C   UNL     1       3.734   4.497  18.234  0.00  0.00    +0.000 C 
ATOM      7  C   UNL     1       3.520   3.233  17.388  0.00  0.00    +0.000 C 
ATOM      8  C   UNL     1       2.313   2.416  17.835  0.00  0.00    +0.000 C 
ATOM      9  O   UNL     1       2.369   2.104  19.225  0.00  0.00    +0.000 OA
ATOM     10  C   UNL     1       2.423   3.245  20.089  0.00  0.00    +0.000 C 
ATOM     11  C   UNL     1       1.094   4.018  20.078  0.00  0.00    +0.000 C 
ATOM     12  C   UNL     1       2.613   2.694  21.513  0.00  0.00    +0.000 C 
ATOM     13  C   UNL     1       3.657   4.101  19.727  0.00  0.00    +0.000 C 
ENDROOT
BRANCH   1  15
ATOM     14  N   UNL     1       5.596   5.289  15.596  0.00  0.00    +0.000 N 
ATOM     15  C   UNL     1       5.981   4.886  16.870  0.00  0.00    +0.000 C 
ATOM     16  O   UNL     1       6.925   4.148  17.126  0.00  0.00    +0.000 OA
ATOM     17  H   UNL     1       4.715   5.777  15.499  0.00  0.00    +0.000 HD
BRANCH  14  24
ATOM     18  C   UNL     1       4.481   3.274  13.726  0.00  0.00    +0.000 C 
ATOM     19  C   UNL     1       5.762   4.026  13.485  0.00  0.00    +0.000 A 
ATOM     20  C   UNL     1       6.460   3.742  12.294  0.00  0.00    +0.000 A 
ATOM     21  C   UNL     1       7.658   4.380  11.988  0.00  0.00    +0.000 A 
ATOM     22  C   UNL     1       8.165   5.331  12.860  0.00  0.00    +0.000 A 
ATOM     23  C   UNL     1       7.478   5.636  14.037  0.00  0.00    +0.000 A 
ATOM     24  C   UNL     1       6.281   4.990  14.382  0.00  0.00    +0.000 A 
ENDBRANCH  14  24
ENDBRANCH   1  15
TORSDOF 2
ENDMDL
MODEL 7
REMARK VINA RESULT:      -7.2      1.624      4.023
REMARK  Name = 
REMARK  5 active torsions:
REMARK  status: ('A' for Active; 'I' for Inactive)
REMARK    1  A    between atoms: C_1  and  C_2
REMARK    2  A    between atoms: C_7  and  N_8
REMARK    3  A    between atoms: C_9  and  C_11
REMARK    4  A    between atoms: C_20  and  C_21
REMARK    5  A    between atoms: C_20  and  C_22
REMARK                            x       y       z     vdW  Elec       q    Type
REMARK                         _______ _______ _______ _____ _____    ______ ____
ROOT
ATOM      1  C   UNL     1       2.821   6.676  17.786  0.00  0.00    +0.000 C 
ATOM      2  C   UNL     1       4.277   6.720  17.349  0.00  0.00    +0.000 C 
ATOM      3  C   UNL     1       4.881   5.496  17.938  0.00  0.00    +0.000 C 
ATOM      4  O   UNL     1       5.950   5.010  17.612  0.00  0.00    +0.000 OA
ATOM      5  O   UNL     1       4.098   5.016  18.931  0.00  0.00    +0.000 OA
ATOM      6  C   UNL     1       2.755   5.522  18.830  0.00  0.00    +0.000 C 
ATOM      7  C   UNL     1       2.270   5.865  20.246  0.00  0.00    +0.000 C 
ATOM      8  C   UNL     1       2.102   4.634  21.131  0.00  0.00    +0.000 C 
ATOM      9  O   UNL     1       1.266   3.654  20.522  0.00  0.00    +0.000 OA
ATOM     10  C   UNL     1       1.733   3.176  19.256  0.00  0.00    +0.000 C 
ATOM     11  C   UNL     1       3.007   2.328  19.415  0.00  0.00    +0.000 C 
ATOM     12  C   UNL     1       0.634   2.243  18.719  0.00  0.00    +0.000 C 
ATOM     13  C   UNL     1       1.882   4.367  18.284  0.00  0.00    +0.000 C 
ENDROOT
BRANCH   1  15
ATOM     14  N   UNL     1       1.223   8.159  18.895  0.00  0.00    +0.000 N 
ATOM     15  C   UNL     1       2.442   8.091  18.229  0.00  0.00    +0.000 C 
ATOM     16  O   UNL     1       3.128   9.052  17.904  0.00  0.00    +0.000 OA
ATOM     17  H   UNL     1       0.679   7.311  18.978  0.00  0.00    +0.000 HD
BRANCH  14  24
ATOM     18  C   UNL     1       1.301   8.760  21.799  0.00  0.00    +0.000 C 
ATOM     19  C   UNL     1       0.634   9.639  20.776  0.00  0.00    +0.000 A 
ATOM     20  C   UNL     1       0.013  10.815  21.246  0.00  0.00    +0.000 A 
ATOM     21  C   UNL     1      -0.637  11.686  20.378  0.00  0.00    +0.000 A 
ATOM     22  C   UNL     1      -0.657  11.406  19.020  0.00  0.00    +0.000 A 
ATOM     23  C   UNL     1      -0.033  10.254  18.536  0.00  0.00    +0.000 A 
ATOM     24  C   UNL     1       0.608   9.346  19.393  0.00  0.00    +0.000 A 
ENDBRANCH  14  24
ENDBRANCH   1  15
TORSDOF 2
ENDMDL
MODEL 8
REMARK VINA RESULT:      -7.1      1.783      3.935
REMARK  Name = 
REMARK  5 active torsions:
REMARK  status: ('A' for Active; 'I' for Inactive)
REMARK    1  A    between atoms: C_1  and  C_2
REMARK    2  A    between atoms: C_7  and  N_8
REMARK    3  A    between atoms: C_9  and  C_11
REMARK    4  A    between atoms: C_20  and  C_21
REMARK    5  A    between atoms: C_20  and  C_22
REMARK                            x       y       z     vdW  Elec       q    Type
REMARK                         _______ _______ _______ _____ _____    ______ ____
ROOT
ATOM      1  C   UNL     1       2.558   7.133  17.838  0.00  0.00    +0.000 C 
ATOM      2  C   UNL     1       3.985   7.282  17.331  0.00  0.00    +0.000 C 
ATOM      3  C   UNL     1       4.690   6.077  17.842  0.00  0.00    +0.000 C 
ATOM      4  O   UNL     1       5.768   5.669  17.445  0.00  0.00    +0.000 OA
ATOM      5  O   UNL     1       3.990   5.515  18.852  0.00  0.00    +0.000 OA
ATOM      6  C   UNL     1       2.615   5.940  18.838  0.00  0.00    +0.000 C 
ATOM      7  C   UNL     1       2.185   6.203  20.289  0.00  0.00    +0.000 C 
ATOM      8  C   UNL     1       2.136   4.933  21.133  0.00  0.00    +0.000 C 
ATOM      9  O   UNL     1       1.329   3.926  20.529  0.00  0.00    +0.000 OA
ATOM     10  C   UNL     1       1.758   3.522  19.223  0.00  0.00    +0.000 C 
ATOM     11  C   UNL     1       3.086   2.750  19.286  0.00  0.00    +0.000 C 
ATOM     12  C   UNL     1       0.691   2.544  18.705  0.00  0.00    +0.000 C 
ATOM     13  C   UNL     1       1.785   4.755  18.292  0.00  0.00    +0.000 C 
ENDROOT
BRANCH   1  15
ATOM     14  N   UNL     1       0.991   8.462  19.164  0.00  0.00    +0.000 N 
ATOM     15  C   UNL     1       2.119   8.505  18.353  0.00  0.00    +0.000 C 
ATOM     16  O   UNL     1       2.677   9.525  17.967  0.00  0.00    +0.000 OA
ATOM     17  H   UNL     1       0.534   7.569  19.294  0.00  0.00    +0.000 HD
BRANCH  14  24
ATOM     18  C   UNL     1      -1.098   9.933  17.657  0.00  0.00    +0.000 C 
ATOM     19  C   UNL     1      -0.649  10.299  19.046  0.00  0.00    +0.000 A 
ATOM     20  C   UNL     1      -1.269  11.411  19.651  0.00  0.00    +0.000 A 
ATOM     21  C   UNL     1      -0.915  11.831  20.929  0.00  0.00    +0.000 A 
ATOM     22  C   UNL     1       0.052  11.129  21.632  0.00  0.00    +0.000 A 
ATOM     23  C   UNL     1       0.665  10.015  21.054  0.00  0.00    +0.000 A 
ATOM     24  C   UNL     1       0.344   9.586  19.757  0.00  0.00    +0.000 A 
ENDBRANCH  14  24
ENDBRANCH   1  15
TORSDOF 2
ENDMDL
MODEL 9
REMARK VINA RESULT:      -7.1      2.088      4.101
REMARK  Name = 
REMARK  5 active torsions:
REMARK  status: ('A' for Active; 'I' for Inactive)
REMARK    1  A    between atoms: C_1  and  C_2
REMARK    2  A    between atoms: C_7  and  N_8
REMARK    3  A    between atoms: C_9  and  C_11
REMARK    4  A    between atoms: C_20  and  C_21
REMARK    5  A    between atoms: C_20  and  C_22
REMARK                            x       y       z     vdW  Elec       q    Type
REMARK                         _______ _______ _______ _____ _____    ______ ____
ROOT
ATOM      1  C   UNL     1       2.222   7.028  18.292  0.00  0.00    +0.000 C 
ATOM      2  C   UNL     1       3.598   7.409  17.767  0.00  0.00    +0.000 C 
ATOM      3  C   UNL     1       4.451   6.229  18.064  0.00  0.00    +0.000 C 
ATOM      4  O   UNL     1       5.545   6.008  17.573  0.00  0.00    +0.000 OA
ATOM      5  O   UNL     1       3.866   5.449  19.000  0.00  0.00    +0.000 OA
ATOM      6  C   UNL     1       2.456   5.715  19.097  0.00  0.00    +0.000 C 
ATOM      7  C   UNL     1       2.074   5.711  20.585  0.00  0.00    +0.000 C 
ATOM      8  C   UNL     1       2.202   4.333  21.227  0.00  0.00    +0.000 C 
ATOM      9  O   UNL     1       1.477   3.341  20.504  0.00  0.00    +0.000 OA
ATOM     10  C   UNL     1       1.880   3.186  19.139  0.00  0.00    +0.000 C 
ATOM     11  C   UNL     1       3.284   2.566  19.039  0.00  0.00    +0.000 C 
ATOM     12  C   UNL     1       0.897   2.181  18.515  0.00  0.00    +0.000 C 
ATOM     13  C   UNL     1       1.730   4.537  18.406  0.00  0.00    +0.000 C 
ENDROOT
BRANCH   1  15
ATOM     14  N   UNL     1       0.989   9.138  18.195  0.00  0.00    +0.000 N 
ATOM     15  C   UNL     1       1.667   8.251  19.025  0.00  0.00    +0.000 C 
ATOM     16  O   UNL     1       1.919   8.438  20.208  0.00  0.00    +0.000 OA
ATOM     17  H   UNL     1       0.970   8.941  17.203  0.00  0.00    +0.000 HD
BRANCH  14  24
ATOM     18  C   UNL     1       2.527  11.665  17.972  0.00  0.00    +0.000 C 
ATOM     19  C   UNL     1       1.121  11.581  18.501  0.00  0.00    +0.000 A 
ATOM     20  C   UNL     1       0.515  12.786  18.911  0.00  0.00    +0.000 A 
ATOM     21  C   UNL     1      -0.779  12.808  19.422  0.00  0.00    +0.000 A 
ATOM     22  C   UNL     1      -1.496  11.625  19.509  0.00  0.00    +0.000 A 
ATOM     23  C   UNL     1      -0.917  10.424  19.093  0.00  0.00    +0.000 A 
ATOM     24  C   UNL     1       0.395  10.371  18.597  0.00  0.00    +0.000 A 
ENDBRANCH  14  24
ENDBRANCH   1  15
TORSDOF 2
ENDMDL
