MODEL 1
REMARK VINA RESULT:      -7.9      0.000      0.000
REMARK  Name = 
REMARK  4 active torsions:
REMARK  status: ('A' for Active; 'I' for Inactive)
REMARK    1  A    between atoms: C_2  and  C_3
REMARK    2  A    between atoms: C_3  and  N_4
REMARK    3  A    between atoms: C_13  and  C_14
REMARK    4  A    between atoms: C_23  and  C_24
REMARK                            x       y       z     vdW  Elec       q    Type
REMARK                         _______ _______ _______ _____ _____    ______ ____
ROOT
ATOM      1  O   UNL     1       1.637   9.198  17.165  0.00  0.00    +0.000 OA
ATOM      2  C   UNL     1       1.640   8.548  18.212  0.00  0.00    +0.000 C 
ATOM      3  N   UNL     1       1.429   9.144  19.462  0.00  0.00    +0.000 N 
ATOM      4  C   UNL     1       1.446  10.599  19.476  0.00  0.00    +0.000 C 
ATOM      5  C   UNL     1       1.679  11.133  20.884  0.00  0.00    +0.000 C 
ATOM      6  C   UNL     1       0.657  10.583  21.884  0.00  0.00    +0.000 C 
ATOM      7  C   UNL     1       0.555   9.052  21.786  0.00  0.00    +0.000 C 
ATOM      8  C   UNL     1       0.448   8.532  20.352  0.00  0.00    +0.000 C 
ENDROOT
BRANCH   6   9
ATOM      9  C   UNL     1      -0.679  11.241  21.707  0.00  0.00    +0.000 A 
ATOM     10  N   UNL     1      -1.247  11.579  20.570  0.00  0.00    +0.000 NA
ATOM     11  C   UNL     1      -2.450  12.146  20.902  0.00  0.00    +0.000 A 
ATOM     12  C   UNL     1      -3.450  12.671  20.075  0.00  0.00    +0.000 A 
ATOM     13  C   UNL     1      -4.607  13.190  20.668  0.00  0.00    +0.000 A 
ATOM     14  C   UNL     1      -4.760  13.192  22.057  0.00  0.00    +0.000 A 
ATOM     15  C   UNL     1      -3.764  12.673  22.904  0.00  0.00    +0.000 A 
ATOM     16  C   UNL     1      -2.625  12.162  22.280  0.00  0.00    +0.000 A 
ATOM     17  N   UNL     1      -1.481  11.589  22.770  0.00  0.00    +0.000 N 
ATOM     18  H   UNL     1      -1.263  11.444  23.747  0.00  0.00    +0.000 HD
ENDBRANCH   6   9
BRANCH   2  19
ATOM     19  C   UNL     1       2.072   7.079  18.245  0.00  0.00    +0.000 C 
BRANCH  19  20
ATOM     20  N   UNL     1       3.315   6.806  19.006  0.00  0.00    +0.000 NA
ATOM     21  C   UNL     1       3.146   5.838  20.109  0.00  0.00    +0.000 C 
ATOM     22  C   UNL     1       2.425   4.568  19.735  0.00  0.00    +0.000 A 
ATOM     23  C   UNL     1       1.230   4.251  20.402  0.00  0.00    +0.000 A 
ATOM     24  C   UNL     1       0.435   3.191  19.976  0.00  0.00    +0.000 A 
ATOM     25  C   UNL     1       0.839   2.415  18.893  0.00  0.00    +0.000 A 
ATOM     26  C   UNL     1       2.065   2.665  18.275  0.00  0.00    +0.000 A 
ATOM     27  C   UNL     1       2.856   3.735  18.696  0.00  0.00    +0.000 A 
ATOM     28  O   UNL     1       4.074   3.900  18.089  0.00  0.00    +0.000 OA
ATOM     29  C   UNL     1       4.118   5.068  17.249  0.00  0.00    +0.000 C 
ATOM     30  C   UNL     1       4.391   6.350  18.091  0.00  0.00    +0.000 C 
BRANCH  29  31
ATOM     31  C   UNL     1       5.184   4.911  16.173  0.00  0.00    +0.000 A 
ATOM     32  C   UNL     1       6.490   5.510  16.190  0.00  0.00    +0.000 A 
ATOM     33  C   UNL     1       7.245   5.176  15.086  0.00  0.00    +0.000 A 
ATOM     34  S   UNL     1       6.391   4.164  14.009  0.00  0.00    +0.000 S 
ATOM     35  C   UNL     1       5.017   4.156  15.025  0.00  0.00    +0.000 A 
ENDBRANCH  29  31
ENDBRANCH  19  20
ENDBRANCH   2  19
TORSDOF 4
ENDMDL
MODEL 2
REMARK VINA RESULT:      -7.7      0.089      1.000
REMARK  Name = 
REMARK  4 active torsions:
REMARK  status: ('A' for Active; 'I' for Inactive)
REMARK    1  A    between atoms: C_2  and  C_3
REMARK    2  A    between atoms: C_3  and  N_4
REMARK    3  A    between atoms: C_13  and  C_14
REMARK    4  A    between atoms: C_23  and  C_24
REMARK                            x       y       z     vdW  Elec       q    Type
REMARK                         _______ _______ _______ _____ _____    ______ ____
ROOT
ATOM      1  O   UNL     1       1.576   9.205  17.182  0.00  0.00    +0.000 OA
ATOM      2  C   UNL     1       1.612   8.556  18.230  0.00  0.00    +0.000 C 
ATOM      3  N   UNL     1       1.429   9.151  19.484  0.00  0.00    +0.000 N 
ATOM      4  C   UNL     1       1.434  10.606  19.497  0.00  0.00    +0.000 C 
ATOM      5  C   UNL     1       1.699  11.144  20.897  0.00  0.00    +0.000 C 
ATOM      6  C   UNL     1       0.709  10.587  21.925  0.00  0.00    +0.000 C 
ATOM      7  C   UNL     1       0.618   9.055  21.830  0.00  0.00    +0.000 C 
ATOM      8  C   UNL     1       0.476   8.532  20.400  0.00  0.00    +0.000 C 
ENDROOT
BRANCH   6   9
ATOM      9  C   UNL     1      -0.636  11.233  21.782  0.00  0.00    +0.000 A 
ATOM     10  N   UNL     1      -1.461  11.561  22.752  0.00  0.00    +0.000 NA
ATOM     11  C   UNL     1      -2.557  12.118  22.145  0.00  0.00    +0.000 A 
ATOM     12  C   UNL     1      -3.725  12.640  22.713  0.00  0.00    +0.000 A 
ATOM     13  C   UNL     1      -4.705  13.170  21.864  0.00  0.00    +0.000 A 
ATOM     14  C   UNL     1      -4.525  13.172  20.478  0.00  0.00    +0.000 A 
ATOM     15  C   UNL     1      -3.360  12.648  19.890  0.00  0.00    +0.000 A 
ATOM     16  C   UNL     1      -2.404  12.130  20.764  0.00  0.00    +0.000 A 
ATOM     17  N   UNL     1      -1.179  11.554  20.558  0.00  0.00    +0.000 N 
ATOM     18  H   UNL     1      -0.744  11.393  19.658  0.00  0.00    +0.000 HD
ENDBRANCH   6   9
BRANCH   2  19
ATOM     19  C   UNL     1       2.056   7.091  18.252  0.00  0.00    +0.000 C 
BRANCH  19  20
ATOM     20  N   UNL     1       3.303   6.824  19.011  0.00  0.00    +0.000 NA
ATOM     21  C   UNL     1       3.140   5.853  20.113  0.00  0.00    +0.000 C 
ATOM     22  C   UNL     1       2.425   4.580  19.739  0.00  0.00    +0.000 A 
ATOM     23  C   UNL     1       1.233   4.257  20.407  0.00  0.00    +0.000 A 
ATOM     24  C   UNL     1       0.443   3.192  19.982  0.00  0.00    +0.000 A 
ATOM     25  C   UNL     1       0.849   2.420  18.898  0.00  0.00    +0.000 A 
ATOM     26  C   UNL     1       2.073   2.677  18.277  0.00  0.00    +0.000 A 
ATOM     27  C   UNL     1       2.859   3.750  18.698  0.00  0.00    +0.000 A 
ATOM     28  O   UNL     1       4.075   3.922  18.090  0.00  0.00    +0.000 OA
ATOM     29  C   UNL     1       4.111   5.091  17.251  0.00  0.00    +0.000 C 
ATOM     30  C   UNL     1       4.379   6.374  18.093  0.00  0.00    +0.000 C 
BRANCH  29  31
ATOM     31  C   UNL     1       5.177   4.941  16.173  0.00  0.00    +0.000 A 
ATOM     32  C   UNL     1       6.458   5.591  16.161  0.00  0.00    +0.000 A 
ATOM     33  C   UNL     1       7.219   5.251  15.062  0.00  0.00    +0.000 A 
ATOM     34  S   UNL     1       6.399   4.171  14.026  0.00  0.00    +0.000 S 
ATOM     35  C   UNL     1       5.033   4.142  15.052  0.00  0.00    +0.000 A 
ENDBRANCH  29  31
ENDBRANCH  19  20
ENDBRANCH   2  19
TORSDOF 4
ENDMDL
MODEL 3
REMARK VINA RESULT:      -7.7      2.436      3.391
REMARK  Name = 
REMARK  4 active torsions:
REMARK  status: ('A' for Active; 'I' for Inactive)
REMARK    1  A    between atoms: C_2  and  C_3
REMARK    2  A    between atoms: C_3  and  N_4
REMARK    3  A    between atoms: C_13  and  C_14
REMARK    4  A    between atoms: C_23  and  C_24
REMARK                            x       y       z     vdW  Elec       q    Type
REMARK                         _______ _______ _______ _____ _____    ______ ____
ROOT
ATOM      1  O   UNL     1       1.868   7.280  21.150  0.00  0.00    +0.000 OA
ATOM      2  C   UNL     1       2.039   7.564  19.963  0.00  0.00    +0.000 C 
ATOM      3  N   UNL     1       1.469   8.701  19.376  0.00  0.00    +0.000 N 
ATOM      4  C   UNL     1       0.476   9.394  20.183  0.00  0.00    +0.000 C 
ATOM      5  C   UNL     1      -0.400  10.296  19.322  0.00  0.00    +0.000 C 
ATOM      6  C   UNL     1       0.428  11.285  18.497  0.00  0.00    +0.000 C 
ATOM      7  C   UNL     1       1.553  10.565  17.736  0.00  0.00    +0.000 C 
ATOM      8  C   UNL     1       2.340   9.572  18.592  0.00  0.00    +0.000 C 
ENDROOT
BRANCH   6   9
ATOM      9  C   UNL     1       0.960  12.392  19.357  0.00  0.00    +0.000 A 
ATOM     10  N   UNL     1       0.336  12.990  20.349  0.00  0.00    +0.000 NA
ATOM     11  C   UNL     1       1.208  13.929  20.834  0.00  0.00    +0.000 A 
ATOM     12  C   UNL     1       1.052  14.836  21.889  0.00  0.00    +0.000 A 
ATOM     13  C   UNL     1       2.113  15.696  22.198  0.00  0.00    +0.000 A 
ATOM     14  C   UNL     1       3.302  15.656  21.465  0.00  0.00    +0.000 A 
ATOM     15  C   UNL     1       3.476  14.755  20.399  0.00  0.00    +0.000 A 
ATOM     16  C   UNL     1       2.400  13.911  20.119  0.00  0.00    +0.000 A 
ATOM     17  N   UNL     1       2.214  12.932  19.181  0.00  0.00    +0.000 N 
ATOM     18  H   UNL     1       2.884  12.650  18.477  0.00  0.00    +0.000 HD
ENDBRANCH   6   9
BRANCH   2  19
ATOM     19  C   UNL     1       2.718   6.592  18.995  0.00  0.00    +0.000 C 
BRANCH  19  20
ATOM     20  N   UNL     1       3.951   5.950  19.510  0.00  0.00    +0.000 NA
ATOM     21  C   UNL     1       3.705   4.761  20.352  0.00  0.00    +0.000 C 
ATOM     22  C   UNL     1       2.749   3.754  19.766  0.00  0.00    +0.000 A 
ATOM     23  C   UNL     1       1.573   3.451  20.472  0.00  0.00    +0.000 A 
ATOM     24  C   UNL     1       0.576   2.668  19.897  0.00  0.00    +0.000 A 
ATOM     25  C   UNL     1       0.755   2.153  18.616  0.00  0.00    +0.000 A 
ATOM     26  C   UNL     1       1.954   2.375  17.936  0.00  0.00    +0.000 A 
ATOM     27  C   UNL     1       2.947   3.169  18.510  0.00  0.00    +0.000 A 
ATOM     28  O   UNL     1       4.125   3.307  17.821  0.00  0.00    +0.000 OA
ATOM     29  C   UNL     1       4.303   4.635  17.296  0.00  0.00    +0.000 C 
ATOM     30  C   UNL     1       4.858   5.598  18.389  0.00  0.00    +0.000 C 
BRANCH  29  31
ATOM     31  C   UNL     1       5.239   4.613  16.095  0.00  0.00    +0.000 A 
ATOM     32  C   UNL     1       6.467   5.349  15.971  0.00  0.00    +0.000 A 
ATOM     33  C   UNL     1       7.111   5.117  14.774  0.00  0.00    +0.000 A 
ATOM     34  S   UNL     1       6.242   4.035  13.780  0.00  0.00    +0.000 S 
ATOM     35  C   UNL     1       5.013   3.862  14.954  0.00  0.00    +0.000 A 
ENDBRANCH  29  31
ENDBRANCH  19  20
ENDBRANCH   2  19
TORSDOF 4
ENDMDL
MODEL 4
REMARK VINA RESULT:      -7.6      4.590     11.086
REMARK  Name = 
REMARK  4 active torsions:
REMARK  status: ('A' for Active; 'I' for Inactive)
REMARK    1  A    between atoms: C_2  and  C_3
REMARK    2  A    between atoms: C_3  and  N_4
REMARK    3  A    between atoms: C_13  and  C_14
REMARK    4  A    between atoms: C_23  and  C_24
REMARK                            x       y       z     vdW  Elec       q    Type
REMARK                         _______ _______ _______ _____ _____    ______ ____
ROOT
ATOM      1  O   UNL     1      -0.734  11.736  23.140  0.00  0.00    +0.000 OA
ATOM      2  C   UNL     1      -1.307  11.800  22.050  0.00  0.00    +0.000 C 
ATOM      3  N   UNL     1      -0.632  11.607  20.838  0.00  0.00    +0.000 N 
ATOM      4  C   UNL     1       0.820  11.567  20.926  0.00  0.00    +0.000 C 
ATOM      5  C   UNL     1       1.461  11.824  19.569  0.00  0.00    +0.000 C 
ATOM      6  C   UNL     1       0.946  10.859  18.496  0.00  0.00    +0.000 C 
ATOM      7  C   UNL     1      -0.591  10.815  18.484  0.00  0.00    +0.000 C 
ATOM      8  C   UNL     1      -1.215  10.681  19.873  0.00  0.00    +0.000 C 
ENDROOT
BRANCH   6   9
ATOM      9  C   UNL     1       1.539   9.493  18.671  0.00  0.00    +0.000 A 
ATOM     10  N   UNL     1       1.416   8.707  19.718  0.00  0.00    +0.000 NA
ATOM     11  C   UNL     1       2.126   7.572  19.425  0.00  0.00    +0.000 A 
ATOM     12  C   UNL     1       2.320   6.416  20.190  0.00  0.00    +0.000 A 
ATOM     13  C   UNL     1       3.089   5.377  19.653  0.00  0.00    +0.000 A 
ATOM     14  C   UNL     1       3.659   5.492  18.382  0.00  0.00    +0.000 A 
ATOM     15  C   UNL     1       3.479   6.648  17.601  0.00  0.00    +0.000 A 
ATOM     16  C   UNL     1       2.705   7.663  18.165  0.00  0.00    +0.000 A 
ATOM     17  N   UNL     1       2.325   8.898  17.710  0.00  0.00    +0.000 N 
ATOM     18  H   UNL     1       2.577   9.303  16.818  0.00  0.00    +0.000 HD
ENDBRANCH   6   9
BRANCH   2  19
ATOM     19  C   UNL     1      -2.752  12.290  21.930  0.00  0.00    +0.000 C 
BRANCH  19  20
ATOM     20  N   UNL     1      -2.913  13.628  21.311  0.00  0.00    +0.000 NA
ATOM     21  C   UNL     1      -4.271  13.892  20.792  0.00  0.00    +0.000 C 
ATOM     22  C   UNL     1      -5.391  13.578  21.752  0.00  0.00    +0.000 A 
ATOM     23  C   UNL     1      -6.350  12.623  21.378  0.00  0.00    +0.000 A 
ATOM     24  C   UNL     1      -7.297  12.167  22.290  0.00  0.00    +0.000 A 
ATOM     25  C   UNL     1      -7.314  12.682  23.583  0.00  0.00    +0.000 A 
ATOM     26  C   UNL     1      -6.422  13.693  23.944  0.00  0.00    +0.000 A 
ATOM     27  C   UNL     1      -5.467  14.141  23.031  0.00  0.00    +0.000 A 
ATOM     28  O   UNL     1      -4.653  15.174  23.421  0.00  0.00    +0.000 OA
ATOM     29  C   UNL     1      -3.291  14.755  23.622  0.00  0.00    +0.000 C 
ATOM     30  C   UNL     1      -2.520  14.692  22.269  0.00  0.00    +0.000 C 
BRANCH  29  31
ATOM     31  C   UNL     1      -2.580  15.698  24.584  0.00  0.00    +0.000 A 
ATOM     32  C   UNL     1      -1.709  15.305  25.657  0.00  0.00    +0.000 A 
ATOM     33  C   UNL     1      -1.197  16.381  26.351  0.00  0.00    +0.000 A 
ATOM     34  S   UNL     1      -1.771  17.867  25.740  0.00  0.00    +0.000 S 
ATOM     35  C   UNL     1      -2.691  17.077  24.536  0.00  0.00    +0.000 A 
ENDBRANCH  29  31
ENDBRANCH  19  20
ENDBRANCH   2  19
TORSDOF 4
ENDMDL
MODEL 5
REMARK VINA RESULT:      -7.6      2.374      3.167
REMARK  Name = 
REMARK  4 active torsions:
REMARK  status: ('A' for Active; 'I' for Inactive)
REMARK    1  A    between atoms: C_2  and  C_3
REMARK    2  A    between atoms: C_3  and  N_4
REMARK    3  A    between atoms: C_13  and  C_14
REMARK    4  A    between atoms: C_23  and  C_24
REMARK                            x       y       z     vdW  Elec       q    Type
REMARK                         _______ _______ _______ _____ _____    ______ ____
ROOT
ATOM      1  O   UNL     1       1.826   7.254  21.144  0.00  0.00    +0.000 OA
ATOM      2  C   UNL     1       2.023   7.561  19.967  0.00  0.00    +0.000 C 
ATOM      3  N   UNL     1       1.461   8.705  19.387  0.00  0.00    +0.000 N 
ATOM      4  C   UNL     1       0.444   9.377  20.183  0.00  0.00    +0.000 C 
ATOM      5  C   UNL     1      -0.417  10.289  19.318  0.00  0.00    +0.000 C 
ATOM      6  C   UNL     1       0.424  11.298  18.530  0.00  0.00    +0.000 C 
ATOM      7  C   UNL     1       1.572  10.598  17.783  0.00  0.00    +0.000 C 
ATOM      8  C   UNL     1       2.344   9.594  18.640  0.00  0.00    +0.000 C 
ENDROOT
BRANCH   6   9
ATOM      9  C   UNL     1       0.929  12.392  19.423  0.00  0.00    +0.000 A 
ATOM     10  N   UNL     1       2.141  12.903  19.438  0.00  0.00    +0.000 NA
ATOM     11  C   UNL     1       2.133  13.866  20.413  0.00  0.00    +0.000 A 
ATOM     12  C   UNL     1       3.161  14.717  20.838  0.00  0.00    +0.000 A 
ATOM     13  C   UNL     1       2.892  15.636  21.859  0.00  0.00    +0.000 A 
ATOM     14  C   UNL     1       1.627  15.700  22.449  0.00  0.00    +0.000 A 
ATOM     15  C   UNL     1       0.583  14.851  22.037  0.00  0.00    +0.000 A 
ATOM     16  C   UNL     1       0.884  13.949  21.016  0.00  0.00    +0.000 A 
ATOM     17  N   UNL     1       0.139  12.995  20.376  0.00  0.00    +0.000 N 
ATOM     18  H   UNL     1      -0.829  12.773  20.568  0.00  0.00    +0.000 HD
ENDBRANCH   6   9
BRANCH   2  19
ATOM     19  C   UNL     1       2.731   6.610  18.997  0.00  0.00    +0.000 C 
BRANCH  19  20
ATOM     20  N   UNL     1       3.962   5.973  19.526  0.00  0.00    +0.000 NA
ATOM     21  C   UNL     1       3.710   4.794  20.381  0.00  0.00    +0.000 C 
ATOM     22  C   UNL     1       2.757   3.781  19.800  0.00  0.00    +0.000 A 
ATOM     23  C   UNL     1       1.578   3.486  20.504  0.00  0.00    +0.000 A 
ATOM     24  C   UNL     1       0.584   2.697  19.932  0.00  0.00    +0.000 A 
ATOM     25  C   UNL     1       0.769   2.168  18.658  0.00  0.00    +0.000 A 
ATOM     26  C   UNL     1       1.971   2.381  17.982  0.00  0.00    +0.000 A 
ATOM     27  C   UNL     1       2.962   3.181  18.552  0.00  0.00    +0.000 A 
ATOM     28  O   UNL     1       4.143   3.312  17.868  0.00  0.00    +0.000 OA
ATOM     29  C   UNL     1       4.324   4.634  17.329  0.00  0.00    +0.000 C 
ATOM     30  C   UNL     1       4.874   5.609  18.414  0.00  0.00    +0.000 C 
BRANCH  29  31
ATOM     31  C   UNL     1       5.267   4.598  16.133  0.00  0.00    +0.000 A 
ATOM     32  C   UNL     1       6.569   5.201  16.070  0.00  0.00    +0.000 A 
ATOM     33  C   UNL     1       7.198   4.989  14.861  0.00  0.00    +0.000 A 
ATOM     34  S   UNL     1       6.228   4.087  13.785  0.00  0.00    +0.000 S 
ATOM     35  C   UNL     1       4.973   3.964  14.938  0.00  0.00    +0.000 A 
ENDBRANCH  29  31
ENDBRANCH  19  20
ENDBRANCH   2  19
TORSDOF 4
ENDMDL
MODEL 6
REMARK VINA RESULT:      -7.6      4.604     11.024
REMARK  Name = 
REMARK  4 active torsions:
REMARK  status: ('A' for Active; 'I' for Inactive)
REMARK    1  A    between atoms: C_2  and  C_3
REMARK    2  A    between atoms: C_3  and  N_4
REMARK    3  A    between atoms: C_13  and  C_14
REMARK    4  A    between atoms: C_23  and  C_24
REMARK                            x       y       z     vdW  Elec       q    Type
REMARK                         _______ _______ _______ _____ _____    ______ ____
ROOT
ATOM      1  O   UNL     1      -0.653  11.769  23.080  0.00  0.00    +0.000 OA
ATOM      2  C   UNL     1      -1.248  11.862  22.004  0.00  0.00    +0.000 C 
ATOM      3  N   UNL     1      -0.596  11.711  20.774  0.00  0.00    +0.000 N 
ATOM      4  C   UNL     1       0.858  11.678  20.833  0.00  0.00    +0.000 C 
ATOM      5  C   UNL     1       1.471  11.981  19.472  0.00  0.00    +0.000 C 
ATOM      6  C   UNL     1       0.942  11.046  18.380  0.00  0.00    +0.000 C 
ATOM      7  C   UNL     1      -0.595  10.992  18.396  0.00  0.00    +0.000 C 
ATOM      8  C   UNL     1      -1.192  10.811  19.792  0.00  0.00    +0.000 C 
ENDROOT
BRANCH   6   9
ATOM      9  C   UNL     1       1.547   9.679  18.502  0.00  0.00    +0.000 A 
ATOM     10  N   UNL     1       2.297   9.067  17.613  0.00  0.00    +0.000 NA
ATOM     11  C   UNL     1       2.613   7.850  18.158  0.00  0.00    +0.000 A 
ATOM     12  C   UNL     1       3.392   6.810  17.635  0.00  0.00    +0.000 A 
ATOM     13  C   UNL     1       3.575   5.656  18.407  0.00  0.00    +0.000 A 
ATOM     14  C   UNL     1       2.988   5.539  19.669  0.00  0.00    +0.000 A 
ATOM     15  C   UNL     1       2.199   6.571  20.209  0.00  0.00    +0.000 A 
ATOM     16  C   UNL     1       2.038   7.708  19.415  0.00  0.00    +0.000 A 
ATOM     17  N   UNL     1       1.358   8.881  19.607  0.00  0.00    +0.000 N 
ATOM     18  H   UNL     1       0.811   9.121  20.424  0.00  0.00    +0.000 HD
ENDBRANCH   6   9
BRANCH   2  19
ATOM     19  C   UNL     1      -2.698  12.346  21.927  0.00  0.00    +0.000 C 
BRANCH  19  20
ATOM     20  N   UNL     1      -2.883  13.688  21.322  0.00  0.00    +0.000 NA
ATOM     21  C   UNL     1      -4.249  13.939  20.818  0.00  0.00    +0.000 C 
ATOM     22  C   UNL     1      -5.355  13.600  21.786  0.00  0.00    +0.000 A 
ATOM     23  C   UNL     1      -6.305  12.636  21.412  0.00  0.00    +0.000 A 
ATOM     24  C   UNL     1      -7.237  12.160  22.329  0.00  0.00    +0.000 A 
ATOM     25  C   UNL     1      -7.249  12.662  23.628  0.00  0.00    +0.000 A 
ATOM     26  C   UNL     1      -6.366  13.681  23.989  0.00  0.00    +0.000 A 
ATOM     27  C   UNL     1      -5.426  14.151  23.071  0.00  0.00    +0.000 A 
ATOM     28  O   UNL     1      -4.621  15.190  23.463  0.00  0.00    +0.000 OA
ATOM     29  C   UNL     1      -3.252  14.787  23.647  0.00  0.00    +0.000 C 
ATOM     30  C   UNL     1      -2.494  14.747  22.286  0.00  0.00    +0.000 C 
BRANCH  29  31
ATOM     31  C   UNL     1      -2.544  15.730  24.611  0.00  0.00    +0.000 A 
ATOM     32  C   UNL     1      -1.707  15.336  25.710  0.00  0.00    +0.000 A 
ATOM     33  C   UNL     1      -1.189  16.412  26.400  0.00  0.00    +0.000 A 
ATOM     34  S   UNL     1      -1.718  17.901  25.753  0.00  0.00    +0.000 S 
ATOM     35  C   UNL     1      -2.626  17.111  24.540  0.00  0.00    +0.000 A 
ENDBRANCH  29  31
ENDBRANCH  19  20
ENDBRANCH   2  19
TORSDOF 4
ENDMDL
MODEL 7
REMARK VINA RESULT:      -7.5      6.132     10.186
REMARK  Name = 
REMARK  4 active torsions:
REMARK  status: ('A' for Active; 'I' for Inactive)
REMARK    1  A    between atoms: C_2  and  C_3
REMARK    2  A    between atoms: C_3  and  N_4
REMARK    3  A    between atoms: C_13  and  C_14
REMARK    4  A    between atoms: C_23  and  C_24
REMARK                            x       y       z     vdW  Elec       q    Type
REMARK                         _______ _______ _______ _____ _____    ______ ____
ROOT
ATOM      1  O   UNL     1       2.481  13.226  21.611  0.00  0.00    +0.000 OA
ATOM      2  C   UNL     1       2.106  13.571  20.489  0.00  0.00    +0.000 C 
ATOM      3  N   UNL     1       2.813  14.504  19.718  0.00  0.00    +0.000 N 
ATOM      4  C   UNL     1       3.876  15.215  20.412  0.00  0.00    +0.000 C 
ATOM      5  C   UNL     1       4.258  16.491  19.672  0.00  0.00    +0.000 C 
ATOM      6  C   UNL     1       4.636  16.220  18.213  0.00  0.00    +0.000 C 
ATOM      7  C   UNL     1       3.565  15.366  17.514  0.00  0.00    +0.000 C 
ATOM      8  C   UNL     1       3.107  14.158  18.332  0.00  0.00    +0.000 C 
ENDROOT
BRANCH   6   9
ATOM      9  C   UNL     1       5.995  15.593  18.116  0.00  0.00    +0.000 A 
ATOM     10  N   UNL     1       7.150  16.172  18.361  0.00  0.00    +0.000 NA
ATOM     11  C   UNL     1       8.107  15.216  18.140  0.00  0.00    +0.000 A 
ATOM     12  C   UNL     1       9.499  15.300  18.259  0.00  0.00    +0.000 A 
ATOM     13  C   UNL     1      10.266  14.161  17.983  0.00  0.00    +0.000 A 
ATOM     14  C   UNL     1       9.657  12.967  17.590  0.00  0.00    +0.000 A 
ATOM     15  C   UNL     1       8.260  12.865  17.461  0.00  0.00    +0.000 A 
ATOM     16  C   UNL     1       7.526  14.018  17.745  0.00  0.00    +0.000 A 
ATOM     17  N   UNL     1       6.183  14.286  17.729  0.00  0.00    +0.000 N 
ATOM     18  H   UNL     1       5.452  13.633  17.477  0.00  0.00    +0.000 HD
ENDBRANCH   6   9
BRANCH   2  19
ATOM     19  C   UNL     1       0.738  13.161  19.937  0.00  0.00    +0.000 C 
BRANCH  19  20
ATOM     20  N   UNL     1       0.297  11.793  20.304  0.00  0.00    +0.000 NA
ATOM     21  C   UNL     1      -0.269  11.688  21.665  0.00  0.00    +0.000 C 
ATOM     22  C   UNL     1      -1.309  12.725  22.003  0.00  0.00    +0.000 A 
ATOM     23  C   UNL     1      -1.071  13.590  23.083  0.00  0.00    +0.000 A 
ATOM     24  C   UNL     1      -1.909  14.674  23.328  0.00  0.00    +0.000 A 
ATOM     25  C   UNL     1      -3.014  14.892  22.510  0.00  0.00    +0.000 A 
ATOM     26  C   UNL     1      -3.312  13.992  21.485  0.00  0.00    +0.000 A 
ATOM     27  C   UNL     1      -2.465  12.911  21.235  0.00  0.00    +0.000 A 
ATOM     28  O   UNL     1      -2.835  12.030  20.252  0.00  0.00    +0.000 OA
ATOM     29  C   UNL     1      -1.983  12.105  19.095  0.00  0.00    +0.000 C 
ATOM     30  C   UNL     1      -0.678  11.280  19.308  0.00  0.00    +0.000 C 
BRANCH  29  31
ATOM     31  C   UNL     1      -2.718  11.608  17.857  0.00  0.00    +0.000 A 
ATOM     32  C   UNL     1      -4.136  11.680  17.636  0.00  0.00    +0.000 A 
ATOM     33  C   UNL     1      -4.513  11.163  16.414  0.00  0.00    +0.000 A 
ATOM     34  S   UNL     1      -3.178  10.567  15.533  0.00  0.00    +0.000 S 
ATOM     35  C   UNL     1      -2.092  11.014  16.774  0.00  0.00    +0.000 A 
ENDBRANCH  29  31
ENDBRANCH  19  20
ENDBRANCH   2  19
TORSDOF 4
ENDMDL
MODEL 8
REMARK VINA RESULT:      -7.5      4.650     11.253
REMARK  Name = 
REMARK  4 active torsions:
REMARK  status: ('A' for Active; 'I' for Inactive)
REMARK    1  A    between atoms: C_2  and  C_3
REMARK    2  A    between atoms: C_3  and  N_4
REMARK    3  A    between atoms: C_13  and  C_14
REMARK    4  A    between atoms: C_23  and  C_24
REMARK                            x       y       z     vdW  Elec       q    Type
REMARK                         _______ _______ _______ _____ _____    ______ ____
ROOT
ATOM      1  O   UNL     1      -0.807  11.979  23.184  0.00  0.00    +0.000 OA
ATOM      2  C   UNL     1      -1.393  12.022  22.100  0.00  0.00    +0.000 C 
ATOM      3  N   UNL     1      -0.731  11.815  20.884  0.00  0.00    +0.000 N 
ATOM      4  C   UNL     1       0.723  11.785  20.956  0.00  0.00    +0.000 C 
ATOM      5  C   UNL     1       1.347  12.025  19.588  0.00  0.00    +0.000 C 
ATOM      6  C   UNL     1       0.826  11.041  18.536  0.00  0.00    +0.000 C 
ATOM      7  C   UNL     1      -0.711  10.987  18.542  0.00  0.00    +0.000 C 
ATOM      8  C   UNL     1      -1.319  10.870  19.940  0.00  0.00    +0.000 C 
ENDROOT
BRANCH   6   9
ATOM      9  C   UNL     1       1.430   9.681  18.725  0.00  0.00    +0.000 A 
ATOM     10  N   UNL     1       1.234   8.864  19.737  0.00  0.00    +0.000 NA
ATOM     11  C   UNL     1       1.989   7.751  19.476  0.00  0.00    +0.000 A 
ATOM     12  C   UNL     1       2.141   6.577  20.224  0.00  0.00    +0.000 A 
ATOM     13  C   UNL     1       2.974   5.568  19.727  0.00  0.00    +0.000 A 
ATOM     14  C   UNL     1       3.647   5.729  18.513  0.00  0.00    +0.000 A 
ATOM     15  C   UNL     1       3.511   6.903  17.750  0.00  0.00    +0.000 A 
ATOM     16  C   UNL     1       2.672   7.887  18.273  0.00  0.00    +0.000 A 
ATOM     17  N   UNL     1       2.307   9.127  17.820  0.00  0.00    +0.000 N 
ATOM     18  H   UNL     1       2.625   9.561  16.963  0.00  0.00    +0.000 HD
ENDBRANCH   6   9
BRANCH   2  19
ATOM     19  C   UNL     1      -2.843  12.501  21.989  0.00  0.00    +0.000 C 
BRANCH  19  20
ATOM     20  N   UNL     1      -3.048  13.689  21.124  0.00  0.00    +0.000 NA
ATOM     21  C   UNL     1      -4.198  13.571  20.204  0.00  0.00    +0.000 C 
ATOM     22  C   UNL     1      -5.483  13.115  20.848  0.00  0.00    +0.000 A 
ATOM     23  C   UNL     1      -6.079  11.928  20.392  0.00  0.00    +0.000 A 
ATOM     24  C   UNL     1      -7.162  11.369  21.064  0.00  0.00    +0.000 A 
ATOM     25  C   UNL     1      -7.681  12.006  22.188  0.00  0.00    +0.000 A 
ATOM     26  C   UNL     1      -7.153  13.230  22.602  0.00  0.00    +0.000 A 
ATOM     27  C   UNL     1      -6.061  13.784  21.933  0.00  0.00    +0.000 A 
ATOM     28  O   UNL     1      -5.619  15.013  22.349  0.00  0.00    +0.000 OA
ATOM     29  C   UNL     1      -4.336  14.946  22.998  0.00  0.00    +0.000 C 
ATOM     30  C   UNL     1      -3.182  14.914  21.951  0.00  0.00    +0.000 C 
BRANCH  29  31
ATOM     31  C   UNL     1      -4.153  16.129  23.940  0.00  0.00    +0.000 A 
ATOM     32  C   UNL     1      -5.203  16.818  24.639  0.00  0.00    +0.000 A 
ATOM     33  C   UNL     1      -4.732  17.841  25.435  0.00  0.00    +0.000 A 
ATOM     34  S   UNL     1      -3.036  18.001  25.334  0.00  0.00    +0.000 S 
ATOM     35  C   UNL     1      -2.925  16.693  24.241  0.00  0.00    +0.000 A 
ENDBRANCH  29  31
ENDBRANCH  19  20
ENDBRANCH   2  19
TORSDOF 4
ENDMDL
MODEL 9
REMARK VINA RESULT:      -7.5      2.364      3.289
REMARK  Name = 
REMARK  4 active torsions:
REMARK  status: ('A' for Active; 'I' for Inactive)
REMARK    1  A    between atoms: C_2  and  C_3
REMARK    2  A    between atoms: C_3  and  N_4
REMARK    3  A    between atoms: C_13  and  C_14
REMARK    4  A    between atoms: C_23  and  C_24
REMARK                            x       y       z     vdW  Elec       q    Type
REMARK                         _______ _______ _______ _____ _____    ______ ____
ROOT
ATOM      1  O   UNL     1       2.203   7.628  21.296  0.00  0.00    +0.000 OA
ATOM      2  C   UNL     1       2.049   7.674  20.074  0.00  0.00    +0.000 C 
ATOM      3  N   UNL     1       1.180   8.587  19.463  0.00  0.00    +0.000 N 
ATOM      4  C   UNL     1       0.296   9.312  20.364  0.00  0.00    +0.000 C 
ATOM      5  C   UNL     1      -0.890   9.903  19.612  0.00  0.00    +0.000 C 
ATOM      6  C   UNL     1      -0.448  10.787  18.442  0.00  0.00    +0.000 C 
ATOM      7  C   UNL     1       0.577  10.060  17.556  0.00  0.00    +0.000 C 
ATOM      8  C   UNL     1       1.692   9.369  18.343  0.00  0.00    +0.000 C 
ENDROOT
BRANCH   6   9
ATOM      9  C   UNL     1       0.075  12.104  18.930  0.00  0.00    +0.000 A 
ATOM     10  N   UNL     1      -0.279  12.736  20.028  0.00  0.00    +0.000 NA
ATOM     11  C   UNL     1       0.459  13.891  20.055  0.00  0.00    +0.000 A 
ATOM     12  C   UNL     1       0.476  14.919  21.005  0.00  0.00    +0.000 A 
ATOM     13  C   UNL     1       1.340  16.003  20.804  0.00  0.00    +0.000 A 
ATOM     14  C   UNL     1       2.163  16.062  19.676  0.00  0.00    +0.000 A 
ATOM     15  C   UNL     1       2.155  15.041  18.709  0.00  0.00    +0.000 A 
ATOM     16  C   UNL     1       1.285  13.975  18.941  0.00  0.00    +0.000 A 
ATOM     17  N   UNL     1       1.016  12.832  18.237  0.00  0.00    +0.000 N 
ATOM     18  H   UNL     1       1.438  12.565  17.357  0.00  0.00    +0.000 HD
ENDBRANCH   6   9
BRANCH   2  19
ATOM     19  C   UNL     1       2.640   6.606  19.150  0.00  0.00    +0.000 C 
BRANCH  19  20
ATOM     20  N   UNL     1       3.863   5.939  19.660  0.00  0.00    +0.000 NA
ATOM     21  C   UNL     1       3.596   4.737  20.478  0.00  0.00    +0.000 C 
ATOM     22  C   UNL     1       2.631   3.754  19.866  0.00  0.00    +0.000 A 
ATOM     23  C   UNL     1       1.447   3.452  20.558  0.00  0.00    +0.000 A 
ATOM     24  C   UNL     1       0.445   2.692  19.961  0.00  0.00    +0.000 A 
ATOM     25  C   UNL     1       0.626   2.200  18.672  0.00  0.00    +0.000 A 
ATOM     26  C   UNL     1       1.832   2.420  18.004  0.00  0.00    +0.000 A 
ATOM     27  C   UNL     1       2.832   3.190  18.600  0.00  0.00    +0.000 A 
ATOM     28  O   UNL     1       4.015   3.328  17.922  0.00  0.00    +0.000 OA
ATOM     29  C   UNL     1       4.213   4.663  17.424  0.00  0.00    +0.000 C 
ATOM     30  C   UNL     1       4.772   5.598  18.539  0.00  0.00    +0.000 C 
BRANCH  29  31
ATOM     31  C   UNL     1       5.158   4.652  16.229  0.00  0.00    +0.000 A 
ATOM     32  C   UNL     1       4.934   3.968  14.986  0.00  0.00    +0.000 A 
ATOM     33  C   UNL     1       5.959   4.152  14.082  0.00  0.00    +0.000 A 
ATOM     34  S   UNL     1       7.206   5.127  14.720  0.00  0.00    +0.000 S 
ATOM     35  C   UNL     1       6.372   5.318  16.199  0.00  0.00    +0.000 A 
ENDBRANCH  29  31
ENDBRANCH  19  20
ENDBRANCH   2  19
TORSDOF 4
ENDMDL
