MODEL 1
REMARK VINA RESULT:      -6.5      0.000      0.000
REMARK  Name = 
REMARK  10 active torsions:
REMARK  status: ('A' for Active; 'I' for Inactive)
REMARK    1  A    between atoms: C_1  and  C_2
REMARK    2  A    between atoms: C_2  and  C_3
REMARK    3  A    between atoms: C_3  and  N_4
REMARK    4  A    between atoms: N_4  and  C_5
REMARK    5  A    between atoms: N_4  and  C_6
REMARK    6  A    between atoms: C_8  and  C_9
REMARK    7  A    between atoms: C_9  and  O_11
REMARK    8  A    between atoms: C_13  and  N_14
REMARK    9  A    between atoms: C_15  and  N_16
REMARK   10  A    between atoms: C_17  and  C_18
REMARK                            x       y       z     vdW  Elec       q    Type
REMARK                         _______ _______ _______ _____ _____    ______ ____
ROOT
ATOM      1  C   UNL     1       3.672   6.127  19.070  0.00  0.00    +0.000 C 
ATOM      2  C   UNL     1       4.614   6.461  17.906  0.00  0.00    +0.000 C 
ATOM      3  C   UNL     1       5.310   5.568  17.171  0.00  0.00    +0.000 C 
ATOM      4  C   UNL     1       5.341   4.103  17.519  0.00  0.00    +0.000 C 
ATOM      5  C   UNL     1       4.877   3.856  18.961  0.00  0.00    +0.000 C 
ATOM      6  C   UNL     1       3.493   4.546  19.170  0.00  0.00    +0.000 C 
ENDROOT
BRANCH   6   7
ATOM      7  N   UNL     1       2.822   4.042  20.384  0.00  0.00    +0.000 N 
ATOM      8  C   UNL     1       1.934   2.993  20.393  0.00  0.00    +0.000 C 
ATOM      9  C   UNL     1       1.388   2.663  21.756  0.00  0.00    +0.000 C 
ATOM     10  O   UNL     1       1.598   2.384  19.386  0.00  0.00    +0.000 OA
ATOM     11  H   UNL     1       3.029   4.518  21.252  0.00  0.00    +0.000 HD
ENDBRANCH   6   7
BRANCH   5  12
ATOM     12  N   UNL     1       4.883   2.407  19.240  0.00  0.00    +0.000 NA
ATOM     13  H   UNL     1       5.695   1.963  18.822  0.00  0.00    +0.000 HD
ATOM     14  H   UNL     1       4.058   1.998  18.803  0.00  0.00    +0.000 HD
ENDBRANCH   5  12
BRANCH   1  15
ATOM     15  N   UNL     1       2.397   6.912  18.921  0.00  0.00    +0.000 NA
ATOM     16  C   UNL     1       1.911   7.482  20.185  0.00  0.00    +0.000 C 
BRANCH  15  17
ATOM     17  C   UNL     1       2.453   8.002  17.914  0.00  0.00    +0.000 C 
BRANCH  17  19
ATOM     18  C   UNL     1       1.996  10.487  18.021  0.00  0.00    +0.000 C 
ATOM     19  C   UNL     1       1.377   9.096  18.016  0.00  0.00    +0.000 C 
ENDBRANCH  17  19
ENDBRANCH  15  17
ENDBRANCH   1  15
BRANCH   3  20
ATOM     20  C   UNL     1       6.205   5.952  16.041  0.00  0.00    +0.000 C 
ATOM     21  O   UNL     1       7.398   5.703  16.021  0.00  0.00    +0.000 OA
BRANCH  20  22
ATOM     22  O   UNL     1       5.580   6.552  15.007  0.00  0.00    +0.000 OA
ATOM     23  H   UNL     1       5.195   5.944  14.354  0.00  0.00    +0.000 HD
ENDBRANCH  20  22
ENDBRANCH   3  20
TORSDOF 7
ENDMDL
MODEL 2
REMARK VINA RESULT:      -6.3      2.701      3.814
REMARK  Name = 
REMARK  10 active torsions:
REMARK  status: ('A' for Active; 'I' for Inactive)
REMARK    1  A    between atoms: C_1  and  C_2
REMARK    2  A    between atoms: C_2  and  C_3
REMARK    3  A    between atoms: C_3  and  N_4
REMARK    4  A    between atoms: N_4  and  C_5
REMARK    5  A    between atoms: N_4  and  C_6
REMARK    6  A    between atoms: C_8  and  C_9
REMARK    7  A    between atoms: C_9  and  O_11
REMARK    8  A    between atoms: C_13  and  N_14
REMARK    9  A    between atoms: C_15  and  N_16
REMARK   10  A    between atoms: C_17  and  C_18
REMARK                            x       y       z     vdW  Elec       q    Type
REMARK                         _______ _______ _______ _____ _____    ______ ____
ROOT
ATOM      1  C   UNL     1       6.348   4.738  18.082  0.00  0.00    +0.000 C 
ATOM      2  C   UNL     1       6.884   4.683  16.646  0.00  0.00    +0.000 C 
ATOM      3  C   UNL     1       6.149   4.467  15.534  0.00  0.00    +0.000 C 
ATOM      4  C   UNL     1       4.688   4.110  15.605  0.00  0.00    +0.000 C 
ATOM      5  C   UNL     1       4.292   3.625  17.006  0.00  0.00    +0.000 C 
ATOM      6  C   UNL     1       4.754   4.683  18.054  0.00  0.00    +0.000 C 
ENDROOT
BRANCH   6   7
ATOM      7  N   UNL     1       4.088   4.476  19.354  0.00  0.00    +0.000 N 
ATOM      8  C   UNL     1       2.891   5.055  19.706  0.00  0.00    +0.000 C 
ATOM      9  C   UNL     1       2.412   4.683  21.084  0.00  0.00    +0.000 C 
ATOM     10  O   UNL     1       2.269   5.816  18.978  0.00  0.00    +0.000 OA
ATOM     11  H   UNL     1       4.559   3.880  20.020  0.00  0.00    +0.000 HD
ENDBRANCH   6   7
BRANCH   5  12
ATOM     12  N   UNL     1       2.846   3.329  17.036  0.00  0.00    +0.000 NA
ATOM     13  H   UNL     1       2.507   3.095  16.107  0.00  0.00    +0.000 HD
ATOM     14  H   UNL     1       2.358   4.173  17.332  0.00  0.00    +0.000 HD
ENDBRANCH   5  12
BRANCH   1  15
ATOM     15  N   UNL     1       6.940   5.926  18.791  0.00  0.00    +0.000 NA
ATOM     16  C   UNL     1       7.996   5.567  19.747  0.00  0.00    +0.000 C 
BRANCH  15  17
ATOM     17  C   UNL     1       7.468   6.985  17.894  0.00  0.00    +0.000 C 
BRANCH  17  19
ATOM     18  C   UNL     1       8.217   9.400  17.909  0.00  0.00    +0.000 C 
ATOM     19  C   UNL     1       8.411   8.022  18.525  0.00  0.00    +0.000 C 
ENDBRANCH  17  19
ENDBRANCH  15  17
ENDBRANCH   1  15
BRANCH   3  20
ATOM     20  C   UNL     1       6.727   4.436  14.159  0.00  0.00    +0.000 C 
ATOM     21  O   UNL     1       7.481   5.294  13.734  0.00  0.00    +0.000 OA
BRANCH  20  22
ATOM     22  O   UNL     1       6.395   3.349  13.434  0.00  0.00    +0.000 OA
ATOM     23  H   UNL     1       6.169   3.530  12.506  0.00  0.00    +0.000 HD
ENDBRANCH  20  22
ENDBRANCH   3  20
TORSDOF 7
ENDMDL
MODEL 3
REMARK VINA RESULT:      -6.3      2.059      4.852
REMARK  Name = 
REMARK  10 active torsions:
REMARK  status: ('A' for Active; 'I' for Inactive)
REMARK    1  A    between atoms: C_1  and  C_2
REMARK    2  A    between atoms: C_2  and  C_3
REMARK    3  A    between atoms: C_3  and  N_4
REMARK    4  A    between atoms: N_4  and  C_5
REMARK    5  A    between atoms: N_4  and  C_6
REMARK    6  A    between atoms: C_8  and  C_9
REMARK    7  A    between atoms: C_9  and  O_11
REMARK    8  A    between atoms: C_13  and  N_14
REMARK    9  A    between atoms: C_15  and  N_16
REMARK   10  A    between atoms: C_17  and  C_18
REMARK                            x       y       z     vdW  Elec       q    Type
REMARK                         _______ _______ _______ _____ _____    ______ ____
ROOT
ATOM      1  C   UNL     1       2.744   6.234  18.192  0.00  0.00    +0.000 C 
ATOM      2  C   UNL     1       1.689   5.196  18.595  0.00  0.00    +0.000 C 
ATOM      3  C   UNL     1       1.912   3.880  18.799  0.00  0.00    +0.000 C 
ATOM      4  C   UNL     1       3.245   3.245  18.509  0.00  0.00    +0.000 C 
ATOM      5  C   UNL     1       4.108   4.133  17.602  0.00  0.00    +0.000 C 
ATOM      6  C   UNL     1       4.190   5.560  18.225  0.00  0.00    +0.000 C 
ENDROOT
BRANCH   6   7
ATOM      7  N   UNL     1       5.287   6.344  17.626  0.00  0.00    +0.000 N 
ATOM      8  C   UNL     1       6.573   6.361  18.110  0.00  0.00    +0.000 C 
ATOM      9  C   UNL     1       7.514   7.232  17.322  0.00  0.00    +0.000 C 
ATOM     10  O   UNL     1       6.931   5.738  19.100  0.00  0.00    +0.000 OA
ATOM     11  H   UNL     1       5.058   6.909  16.819  0.00  0.00    +0.000 HD
ENDBRANCH   6   7
BRANCH   5  12
ATOM     12  N   UNL     1       5.418   3.489  17.382  0.00  0.00    +0.000 NA
ATOM     13  H   UNL     1       5.592   3.354  16.391  0.00  0.00    +0.000 HD
ATOM     14  H   UNL     1       5.391   2.564  17.812  0.00  0.00    +0.000 HD
ENDBRANCH   5  12
BRANCH   1  15
ATOM     15  N   UNL     1       2.586   7.464  19.043  0.00  0.00    +0.000 NA
ATOM     16  C   UNL     1       2.040   8.615  18.311  0.00  0.00    +0.000 C 
BRANCH  15  17
ATOM     17  C   UNL     1       1.772   7.269  20.271  0.00  0.00    +0.000 C 
BRANCH  17  19
ATOM     18  C   UNL     1      -0.085   8.436  21.529  0.00  0.00    +0.000 C 
ATOM     19  C   UNL     1       1.350   8.537  21.031  0.00  0.00    +0.000 C 
ENDBRANCH  17  19
ENDBRANCH  15  17
ENDBRANCH   1  15
BRANCH   3  20
ATOM     20  C   UNL     1       0.844   2.919  19.203  0.00  0.00    +0.000 C 
ATOM     21  O   UNL     1       0.337   2.125  18.430  0.00  0.00    +0.000 OA
BRANCH  20  22
ATOM     22  O   UNL     1       0.519   2.955  20.511  0.00  0.00    +0.000 OA
ATOM     23  H   UNL     1       0.214   3.819  20.832  0.00  0.00    +0.000 HD
ENDBRANCH  20  22
ENDBRANCH   3  20
TORSDOF 7
ENDMDL
MODEL 4
REMARK VINA RESULT:      -6.2      1.976      4.953
REMARK  Name = 
REMARK  10 active torsions:
REMARK  status: ('A' for Active; 'I' for Inactive)
REMARK    1  A    between atoms: C_1  and  C_2
REMARK    2  A    between atoms: C_2  and  C_3
REMARK    3  A    between atoms: C_3  and  N_4
REMARK    4  A    between atoms: N_4  and  C_5
REMARK    5  A    between atoms: N_4  and  C_6
REMARK    6  A    between atoms: C_8  and  C_9
REMARK    7  A    between atoms: C_9  and  O_11
REMARK    8  A    between atoms: C_13  and  N_14
REMARK    9  A    between atoms: C_15  and  N_16
REMARK   10  A    between atoms: C_17  and  C_18
REMARK                            x       y       z     vdW  Elec       q    Type
REMARK                         _______ _______ _______ _____ _____    ______ ____
ROOT
ATOM      1  C   UNL     1       2.805   6.023  18.872  0.00  0.00    +0.000 C 
ATOM      2  C   UNL     1       1.861   5.065  19.610  0.00  0.00    +0.000 C 
ATOM      3  C   UNL     1       2.201   3.868  20.135  0.00  0.00    +0.000 C 
ATOM      4  C   UNL     1       3.564   3.265  19.923  0.00  0.00    +0.000 C 
ATOM      5  C   UNL     1       4.301   3.933  18.753  0.00  0.00    +0.000 C 
ATOM      6  C   UNL     1       4.300   5.476  18.973  0.00  0.00    +0.000 C 
ENDROOT
BRANCH   6   7
ATOM      7  N   UNL     1       5.295   6.141  18.110  0.00  0.00    +0.000 N 
ATOM      8  C   UNL     1       6.636   6.223  18.404  0.00  0.00    +0.000 C 
ATOM      9  C   UNL     1       7.449   6.944  17.363  0.00  0.00    +0.000 C 
ATOM     10  O   UNL     1       7.133   5.766  19.424  0.00  0.00    +0.000 OA
ATOM     11  H   UNL     1       4.952   6.568  17.260  0.00  0.00    +0.000 HD
ENDBRANCH   6   7
BRANCH   5  12
ATOM     12  N   UNL     1       5.645   3.338  18.613  0.00  0.00    +0.000 NA
ATOM     13  H   UNL     1       5.897   3.246  17.633  0.00  0.00    +0.000 HD
ATOM     14  H   UNL     1       5.616   2.398  19.006  0.00  0.00    +0.000 HD
ENDBRANCH   5  12
BRANCH   1  15
ATOM     15  N   UNL     1       2.594   7.423  19.382  0.00  0.00    +0.000 NA
ATOM     16  C   UNL     1       2.129   8.356  18.347  0.00  0.00    +0.000 C 
BRANCH  15  17
ATOM     17  C   UNL     1       1.679   7.529  20.546  0.00  0.00    +0.000 C 
BRANCH  17  19
ATOM     18  C   UNL     1       1.029   9.296  22.234  0.00  0.00    +0.000 C 
ATOM     19  C   UNL     1       0.994   8.887  20.768  0.00  0.00    +0.000 C 
ENDBRANCH  17  19
ENDBRANCH  15  17
ENDBRANCH   1  15
BRANCH   3  20
ATOM     20  C   UNL     1       1.239   2.983  20.854  0.00  0.00    +0.000 C 
ATOM     21  O   UNL     1       1.390   2.640  22.014  0.00  0.00    +0.000 OA
BRANCH  20  22
ATOM     22  O   UNL     1       0.153   2.632  20.137  0.00  0.00    +0.000 OA
ATOM     23  H   UNL     1       0.342   2.299  19.244  0.00  0.00    +0.000 HD
ENDBRANCH  20  22
ENDBRANCH   3  20
TORSDOF 7
ENDMDL
MODEL 5
REMARK VINA RESULT:      -6.1      1.776      4.905
REMARK  Name = 
REMARK  10 active torsions:
REMARK  status: ('A' for Active; 'I' for Inactive)
REMARK    1  A    between atoms: C_1  and  C_2
REMARK    2  A    between atoms: C_2  and  C_3
REMARK    3  A    between atoms: C_3  and  N_4
REMARK    4  A    between atoms: N_4  and  C_5
REMARK    5  A    between atoms: N_4  and  C_6
REMARK    6  A    between atoms: C_8  and  C_9
REMARK    7  A    between atoms: C_9  and  O_11
REMARK    8  A    between atoms: C_13  and  N_14
REMARK    9  A    between atoms: C_15  and  N_16
REMARK   10  A    between atoms: C_17  and  C_18
REMARK                            x       y       z     vdW  Elec       q    Type
REMARK                         _______ _______ _______ _____ _____    ______ ____
ROOT
ATOM      1  C   UNL     1       3.103   5.039  18.060  0.00  0.00    +0.000 C 
ATOM      2  C   UNL     1       2.390   4.655  19.363  0.00  0.00    +0.000 C 
ATOM      3  C   UNL     1       2.520   3.482  20.019  0.00  0.00    +0.000 C 
ATOM      4  C   UNL     1       3.305   2.333  19.446  0.00  0.00    +0.000 C 
ATOM      5  C   UNL     1       3.541   2.506  17.939  0.00  0.00    +0.000 C 
ATOM      6  C   UNL     1       4.167   3.912  17.686  0.00  0.00    +0.000 C 
ENDROOT
BRANCH   6   7
ATOM      7  N   UNL     1       4.761   3.999  16.338  0.00  0.00    +0.000 N 
ATOM      8  C   UNL     1       6.103   4.178  16.098  0.00  0.00    +0.000 C 
ATOM      9  C   UNL     1       6.464   4.228  14.638  0.00  0.00    +0.000 C 
ATOM     10  O   UNL     1       6.937   4.300  16.985  0.00  0.00    +0.000 OA
ATOM     11  H   UNL     1       4.126   3.935  15.553  0.00  0.00    +0.000 HD
ENDBRANCH   6   7
BRANCH   5  12
ATOM     12  N   UNL     1       4.349   1.380  17.433  0.00  0.00    +0.000 NA
ATOM     13  H   UNL     1       4.930   1.674  16.653  0.00  0.00    +0.000 HD
ATOM     14  H   UNL     1       3.710   0.667  17.080  0.00  0.00    +0.000 HD
ENDBRANCH   5  12
BRANCH   1  15
ATOM     15  N   UNL     1       3.656   6.433  18.185  0.00  0.00    +0.000 NA
ATOM     16  C   UNL     1       4.247   6.940  16.941  0.00  0.00    +0.000 C 
BRANCH  15  17
ATOM     17  C   UNL     1       2.686   7.443  18.682  0.00  0.00    +0.000 C 
BRANCH  17  19
ATOM     18  C   UNL     1       1.224   9.470  18.298  0.00  0.00    +0.000 C 
ATOM     19  C   UNL     1       2.311   8.577  17.715  0.00  0.00    +0.000 C 
ENDBRANCH  17  19
ENDBRANCH  15  17
ENDBRANCH   1  15
BRANCH   3  20
ATOM     20  C   UNL     1       1.809   3.169  21.293  0.00  0.00    +0.000 C 
ATOM     21  O   UNL     1       2.339   3.245  22.388  0.00  0.00    +0.000 OA
BRANCH  20  22
ATOM     22  O   UNL     1       0.508   2.848  21.146  0.00  0.00    +0.000 OA
ATOM     23  H   UNL     1      -0.111   3.411  21.640  0.00  0.00    +0.000 HD
ENDBRANCH  20  22
ENDBRANCH   3  20
TORSDOF 7
ENDMDL
MODEL 6
REMARK VINA RESULT:      -6.1      2.666      4.395
REMARK  Name = 
REMARK  10 active torsions:
REMARK  status: ('A' for Active; 'I' for Inactive)
REMARK    1  A    between atoms: C_1  and  C_2
REMARK    2  A    between atoms: C_2  and  C_3
REMARK    3  A    between atoms: C_3  and  N_4
REMARK    4  A    between atoms: N_4  and  C_5
REMARK    5  A    between atoms: N_4  and  C_6
REMARK    6  A    between atoms: C_8  and  C_9
REMARK    7  A    between atoms: C_9  and  O_11
REMARK    8  A    between atoms: C_13  and  N_14
REMARK    9  A    between atoms: C_15  and  N_16
REMARK   10  A    between atoms: C_17  and  C_18
REMARK                            x       y       z     vdW  Elec       q    Type
REMARK                         _______ _______ _______ _____ _____    ______ ____
ROOT
ATOM      1  C   UNL     1       3.764   5.649  17.587  0.00  0.00    +0.000 C 
ATOM      2  C   UNL     1       3.161   7.059  17.573  0.00  0.00    +0.000 C 
ATOM      3  C   UNL     1       2.467   7.632  18.579  0.00  0.00    +0.000 C 
ATOM      4  C   UNL     1       2.082   6.865  19.817  0.00  0.00    +0.000 C 
ATOM      5  C   UNL     1       2.188   5.349  19.598  0.00  0.00    +0.000 C 
ATOM      6  C   UNL     1       3.607   5.019  19.043  0.00  0.00    +0.000 C 
ENDROOT
BRANCH   6   7
ATOM      7  N   UNL     1       3.908   3.580  19.166  0.00  0.00    +0.000 N 
ATOM      8  C   UNL     1       3.391   2.613  18.336  0.00  0.00    +0.000 C 
ATOM      9  C   UNL     1       3.853   1.217  18.659  0.00  0.00    +0.000 C 
ATOM     10  O   UNL     1       2.614   2.852  17.422  0.00  0.00    +0.000 OA
ATOM     11  H   UNL     1       4.522   3.302  19.919  0.00  0.00    +0.000 HD
ENDBRANCH   6   7
BRANCH   5  12
ATOM     12  N   UNL     1       1.842   4.645  20.848  0.00  0.00    +0.000 NA
ATOM     13  H   UNL     1       1.716   5.304  21.611  0.00  0.00    +0.000 HD
ATOM     14  H   UNL     1       2.627   4.043  21.097  0.00  0.00    +0.000 HD
ENDBRANCH   5  12
BRANCH   1  15
ATOM     15  N   UNL     1       5.171   5.702  17.055  0.00  0.00    +0.000 NA
ATOM     16  C   UNL     1       5.286   5.253  15.662  0.00  0.00    +0.000 C 
BRANCH  15  17
ATOM     17  C   UNL     1       5.828   7.030  17.169  0.00  0.00    +0.000 C 
BRANCH  17  19
ATOM     18  C   UNL     1       7.849   8.442  17.729  0.00  0.00    +0.000 C 
ATOM     19  C   UNL     1       7.336   7.034  17.462  0.00  0.00    +0.000 C 
ENDBRANCH  17  19
ENDBRANCH  15  17
ENDBRANCH   1  15
BRANCH   3  20
ATOM     20  C   UNL     1       1.912   9.015  18.513  0.00  0.00    +0.000 C 
ATOM     21  O   UNL     1       1.378   9.565  19.461  0.00  0.00    +0.000 OA
BRANCH  20  22
ATOM     22  O   UNL     1       2.097   9.640  17.333  0.00  0.00    +0.000 OA
ATOM     23  H   UNL     1       2.084  10.610  17.377  0.00  0.00    +0.000 HD
ENDBRANCH  20  22
ENDBRANCH   3  20
TORSDOF 7
ENDMDL
MODEL 7
REMARK VINA RESULT:      -6.0      2.822      5.094
REMARK  Name = 
REMARK  10 active torsions:
REMARK  status: ('A' for Active; 'I' for Inactive)
REMARK    1  A    between atoms: C_1  and  C_2
REMARK    2  A    between atoms: C_2  and  C_3
REMARK    3  A    between atoms: C_3  and  N_4
REMARK    4  A    between atoms: N_4  and  C_5
REMARK    5  A    between atoms: N_4  and  C_6
REMARK    6  A    between atoms: C_8  and  C_9
REMARK    7  A    between atoms: C_9  and  O_11
REMARK    8  A    between atoms: C_13  and  N_14
REMARK    9  A    between atoms: C_15  and  N_16
REMARK   10  A    between atoms: C_17  and  C_18
REMARK                            x       y       z     vdW  Elec       q    Type
REMARK                         _______ _______ _______ _____ _____    ______ ____
ROOT
ATOM      1  C   UNL     1       4.716   5.514  18.837  0.00  0.00    +0.000 C 
ATOM      2  C   UNL     1       5.025   4.085  19.302  0.00  0.00    +0.000 C 
ATOM      3  C   UNL     1       4.307   2.983  19.000  0.00  0.00    +0.000 C 
ATOM      4  C   UNL     1       3.000   3.063  18.256  0.00  0.00    +0.000 C 
ATOM      5  C   UNL     1       2.423   4.485  18.282  0.00  0.00    +0.000 C 
ATOM      6  C   UNL     1       3.516   5.481  17.786  0.00  0.00    +0.000 C 
ENDROOT
BRANCH   6   7
ATOM      7  N   UNL     1       2.929   6.786  17.428  0.00  0.00    +0.000 N 
ATOM      8  C   UNL     1       2.416   7.676  18.343  0.00  0.00    +0.000 C 
ATOM      9  C   UNL     1       1.880   8.943  17.733  0.00  0.00    +0.000 C 
ATOM     10  O   UNL     1       2.382   7.462  19.547  0.00  0.00    +0.000 OA
ATOM     11  H   UNL     1       2.896   7.020  16.445  0.00  0.00    +0.000 HD
ENDBRANCH   6   7
BRANCH   5  12
ATOM     12  N   UNL     1       1.168   4.523  17.506  0.00  0.00    +0.000 NA
ATOM     13  H   UNL     1       1.359   4.469  16.509  0.00  0.00    +0.000 HD
ATOM     14  H   UNL     1       0.717   5.421  17.679  0.00  0.00    +0.000 HD
ENDBRANCH   5  12
BRANCH   1  15
ATOM     15  N   UNL     1       5.982   6.165  18.350  0.00  0.00    +0.000 NA
ATOM     16  C   UNL     1       7.191   5.661  19.015  0.00  0.00    +0.000 C 
BRANCH  15  17
ATOM     17  C   UNL     1       6.195   6.089  16.882  0.00  0.00    +0.000 C 
BRANCH  17  19
ATOM     18  C   UNL     1       6.075   3.881  15.657  0.00  0.00    +0.000 C 
ATOM     19  C   UNL     1       6.985   4.880  16.359  0.00  0.00    +0.000 C 
ENDBRANCH  17  19
ENDBRANCH  15  17
ENDBRANCH   1  15
BRANCH   3  20
ATOM     20  C   UNL     1       4.664   1.613  19.474  0.00  0.00    +0.000 C 
ATOM     21  O   UNL     1       5.201   1.399  20.548  0.00  0.00    +0.000 OA
BRANCH  20  22
ATOM     22  O   UNL     1       4.296   0.617  18.645  0.00  0.00    +0.000 OA
ATOM     23  H   UNL     1       3.345   0.415  18.644  0.00  0.00    +0.000 HD
ENDBRANCH  20  22
ENDBRANCH   3  20
TORSDOF 7
ENDMDL
MODEL 8
REMARK VINA RESULT:      -6.0      1.594      4.781
REMARK  Name = 
REMARK  10 active torsions:
REMARK  status: ('A' for Active; 'I' for Inactive)
REMARK    1  A    between atoms: C_1  and  C_2
REMARK    2  A    between atoms: C_2  and  C_3
REMARK    3  A    between atoms: C_3  and  N_4
REMARK    4  A    between atoms: N_4  and  C_5
REMARK    5  A    between atoms: N_4  and  C_6
REMARK    6  A    between atoms: C_8  and  C_9
REMARK    7  A    between atoms: C_9  and  O_11
REMARK    8  A    between atoms: C_13  and  N_14
REMARK    9  A    between atoms: C_15  and  N_16
REMARK   10  A    between atoms: C_17  and  C_18
REMARK                            x       y       z     vdW  Elec       q    Type
REMARK                         _______ _______ _______ _____ _____    ______ ____
ROOT
ATOM      1  C   UNL     1       3.032   6.160  18.379  0.00  0.00    +0.000 C 
ATOM      2  C   UNL     1       1.873   5.183  18.612  0.00  0.00    +0.000 C 
ATOM      3  C   UNL     1       1.981   3.928  19.097  0.00  0.00    +0.000 C 
ATOM      4  C   UNL     1       3.320   3.284  19.342  0.00  0.00    +0.000 C 
ATOM      5  C   UNL     1       4.445   4.022  18.604  0.00  0.00    +0.000 C 
ATOM      6  C   UNL     1       4.377   5.537  18.967  0.00  0.00    +0.000 C 
ENDROOT
BRANCH   6   7
ATOM      7  N   UNL     1       5.628   6.231  18.607  0.00  0.00    +0.000 N 
ATOM      8  C   UNL     1       5.950   6.622  17.329  0.00  0.00    +0.000 C 
ATOM      9  C   UNL     1       7.279   7.319  17.217  0.00  0.00    +0.000 C 
ATOM     10  O   UNL     1       5.234   6.416  16.359  0.00  0.00    +0.000 OA
ATOM     11  H   UNL     1       6.284   6.410  19.355  0.00  0.00    +0.000 HD
ENDBRANCH   6   7
BRANCH   5  12
ATOM     12  N   UNL     1       5.739   3.380  18.909  0.00  0.00    +0.000 NA
ATOM     13  H   UNL     1       5.602   2.424  19.222  0.00  0.00    +0.000 HD
ATOM     14  H   UNL     1       6.171   3.891  19.679  0.00  0.00    +0.000 HD
ENDBRANCH   5  12
BRANCH   1  15
ATOM     15  N   UNL     1       2.659   7.515  18.917  0.00  0.00    +0.000 NA
ATOM     16  C   UNL     1       1.955   8.357  17.941  0.00  0.00    +0.000 C 
BRANCH  15  17
ATOM     17  C   UNL     1       1.859   7.488  20.168  0.00  0.00    +0.000 C 
BRANCH  17  19
ATOM     18  C   UNL     1       1.186   9.030  22.055  0.00  0.00    +0.000 C 
ATOM     19  C   UNL     1       1.132   8.786  20.554  0.00  0.00    +0.000 C 
ENDBRANCH  17  19
ENDBRANCH  15  17
ENDBRANCH   1  15
BRANCH   3  20
ATOM     20  C   UNL     1       0.813   3.026  19.314  0.00  0.00    +0.000 C 
ATOM     21  O   UNL     1       0.320   2.350  18.427  0.00  0.00    +0.000 OA
BRANCH  20  22
ATOM     22  O   UNL     1       0.374   2.970  20.587  0.00  0.00    +0.000 OA
ATOM     23  H   UNL     1      -0.571   3.167  20.702  0.00  0.00    +0.000 HD
ENDBRANCH  20  22
ENDBRANCH   3  20
TORSDOF 7
ENDMDL
MODEL 9
REMARK VINA RESULT:      -6.0      2.180      4.765
REMARK  Name = 
REMARK  10 active torsions:
REMARK  status: ('A' for Active; 'I' for Inactive)
REMARK    1  A    between atoms: C_1  and  C_2
REMARK    2  A    between atoms: C_2  and  C_3
REMARK    3  A    between atoms: C_3  and  N_4
REMARK    4  A    between atoms: N_4  and  C_5
REMARK    5  A    between atoms: N_4  and  C_6
REMARK    6  A    between atoms: C_8  and  C_9
REMARK    7  A    between atoms: C_9  and  O_11
REMARK    8  A    between atoms: C_13  and  N_14
REMARK    9  A    between atoms: C_15  and  N_16
REMARK   10  A    between atoms: C_17  and  C_18
REMARK                            x       y       z     vdW  Elec       q    Type
REMARK                         _______ _______ _______ _____ _____    ______ ____
ROOT
ATOM      1  C   UNL     1       3.284   6.315  17.737  0.00  0.00    +0.000 C 
ATOM      2  C   UNL     1       2.343   5.122  17.948  0.00  0.00    +0.000 C 
ATOM      3  C   UNL     1       2.717   3.830  18.063  0.00  0.00    +0.000 C 
ATOM      4  C   UNL     1       4.143   3.394  17.852  0.00  0.00    +0.000 C 
ATOM      5  C   UNL     1       4.957   4.463  17.110  0.00  0.00    +0.000 C 
ATOM      6  C   UNL     1       4.796   5.824  17.854  0.00  0.00    +0.000 C 
ENDROOT
BRANCH   6   7
ATOM      7  N   UNL     1       5.829   6.790  17.432  0.00  0.00    +0.000 N 
ATOM      8  C   UNL     1       7.077   6.879  18.000  0.00  0.00    +0.000 C 
ATOM      9  C   UNL     1       7.955   7.939  17.390  0.00  0.00    +0.000 C 
ATOM     10  O   UNL     1       7.449   6.173  18.928  0.00  0.00    +0.000 OA
ATOM     11  H   UNL     1       5.582   7.427  16.687  0.00  0.00    +0.000 HD
ENDBRANCH   6   7
BRANCH   5  12
ATOM     12  N   UNL     1       6.353   4.008  16.965  0.00  0.00    +0.000 NA
ATOM     13  H   UNL     1       6.914   4.307  17.758  0.00  0.00    +0.000 HD
ATOM     14  H   UNL     1       6.745   4.452  16.135  0.00  0.00    +0.000 HD
ENDBRANCH   5  12
BRANCH   1  15
ATOM     15  N   UNL     1       2.893   7.430  18.669  0.00  0.00    +0.000 NA
ATOM     16  C   UNL     1       2.094   8.479  18.021  0.00  0.00    +0.000 C 
BRANCH  15  17
ATOM     17  C   UNL     1       2.177   6.993  19.894  0.00  0.00    +0.000 C 
BRANCH  17  19
ATOM     18  C   UNL     1       1.460   8.527  21.772  0.00  0.00    +0.000 C 
ATOM     19  C   UNL     1       1.079   7.929  20.425  0.00  0.00    +0.000 C 
ENDBRANCH  17  19
ENDBRANCH  15  17
ENDBRANCH   1  15
BRANCH   3  20
ATOM     20  C   UNL     1       1.755   2.711  18.280  0.00  0.00    +0.000 C 
ATOM     21  O   UNL     1       0.551   2.878  18.380  0.00  0.00    +0.000 OA
BRANCH  20  22
ATOM     22  O   UNL     1       2.313   1.484  18.301  0.00  0.00    +0.000 OA
ATOM     23  H   UNL     1       2.032   0.920  19.041  0.00  0.00    +0.000 HD
ENDBRANCH  20  22
ENDBRANCH   3  20
TORSDOF 7
ENDMDL
