MODEL 1
REMARK VINA RESULT:      -8.1      0.000      0.000
REMARK  Name = 
REMARK  5 active torsions:
REMARK  status: ('A' for Active; 'I' for Inactive)
REMARK    1  A    between atoms: C_1  and  C_2
REMARK    2  A    between atoms: C_3  and  C_4
REMARK    3  A    between atoms: N_6  and  C_7
REMARK    4  A    between atoms: C_10  and  C_11
REMARK    5  A    between atoms: C_17  and  C_18
REMARK                            x       y       z     vdW  Elec       q    Type
REMARK                         _______ _______ _______ _____ _____    ______ ____
ROOT
ATOM      1  C   UNL     1       3.536   2.825  18.457  0.00  0.00    +0.000 C 
ATOM      2  C   UNL     1       4.389   3.761  17.640  0.00  0.00    +0.000 C 
ATOM      3  C   UNL     1       4.424   5.118  17.759  0.00  0.00    +0.000 C 
ATOM      4  C   UNL     1       5.301   5.979  16.810  0.00  0.00    +0.000 C 
ATOM      5  C   UNL     1       5.760   5.176  15.630  0.00  0.00    +0.000 A 
ATOM      6  C   UNL     1       6.312   5.535  14.421  0.00  0.00    +0.000 A 
ATOM      7  N   UNL     1       6.555   4.359  13.774  0.00  0.00    +0.000 N 
ATOM      8  N   UNL     1       6.183   3.264  14.473  0.00  0.00    +0.000 NA
ATOM      9  C   UNL     1       5.688   3.775  15.598  0.00  0.00    +0.000 A 
ATOM     10  N   UNL     1       5.130   3.119  16.635  0.00  0.00    +0.000 N 
ATOM     11  H   UNL     1       6.974   4.225  12.859  0.00  0.00    +0.000 HD
ATOM     12  H   UNL     1       4.993   2.120  16.527  0.00  0.00    +0.000 HD
ENDROOT
BRANCH   4  13
ATOM     13  C   UNL     1       6.518   6.575  17.505  0.00  0.00    +0.000 A 
ATOM     14  C   UNL     1       7.106   7.810  17.283  0.00  0.00    +0.000 A 
ATOM     15  C   UNL     1       8.192   8.060  18.168  0.00  0.00    +0.000 A 
ATOM     16  C   UNL     1       8.409   7.006  19.028  0.00  0.00    +0.000 A 
ATOM     17  S   UNL     1       7.307   5.725  18.765  0.00  0.00    +0.000 S 
ENDBRANCH   4  13
BRANCH   3  18
ATOM     18  C   UNL     1       3.580   5.998  18.636  0.00  0.00    +0.000 C 
ATOM     19  O   UNL     1       3.470   5.663  19.815  0.00  0.00    +0.000 OA
ATOM     20  N   UNL     1       2.927   7.066  18.064  0.00  0.00    +0.000 N 
ATOM     21  H   UNL     1       2.980   7.178  17.062  0.00  0.00    +0.000 HD
BRANCH  20  22
ATOM     22  C   UNL     1       2.115   8.001  18.767  0.00  0.00    +0.000 A 
ATOM     23  C   UNL     1       1.814   7.888  20.129  0.00  0.00    +0.000 A 
ATOM     24  C   UNL     1       0.989   8.812  20.775  0.00  0.00    +0.000 A 
ATOM     25  C   UNL     1       0.450   9.894  20.079  0.00  0.00    +0.000 A 
ATOM     26  C   UNL     1       0.762  10.028  18.716  0.00  0.00    +0.000 A 
ATOM     27  C   UNL     1       1.588   9.094  18.068  0.00  0.00    +0.000 A 
BRANCH  25  28
ATOM     28  C   UNL     1      -0.433  10.894  20.782  0.00  0.00    +0.000 C 
ATOM     29  F   UNL     1       0.197  12.067  21.076  0.00  0.00    +0.000 F 
ATOM     30  F   UNL     1      -1.522  11.237  20.038  0.00  0.00    +0.000 F 
ATOM     31  F   UNL     1      -0.919  10.427  21.964  0.00  0.00    +0.000 F 
ENDBRANCH  25  28
ENDBRANCH  20  22
ENDBRANCH   3  18
TORSDOF 4
ENDMDL
MODEL 2
REMARK VINA RESULT:      -7.9      2.737      4.517
REMARK  Name = 
REMARK  5 active torsions:
REMARK  status: ('A' for Active; 'I' for Inactive)
REMARK    1  A    between atoms: C_1  and  C_2
REMARK    2  A    between atoms: C_3  and  C_4
REMARK    3  A    between atoms: N_6  and  C_7
REMARK    4  A    between atoms: C_10  and  C_11
REMARK    5  A    between atoms: C_17  and  C_18
REMARK                            x       y       z     vdW  Elec       q    Type
REMARK                         _______ _______ _______ _____ _____    ______ ____
ROOT
ATOM      1  C   UNL     1       2.635   8.651  17.282  0.00  0.00    +0.000 C 
ATOM      2  C   UNL     1       3.096   7.402  17.988  0.00  0.00    +0.000 C 
ATOM      3  C   UNL     1       2.677   6.977  19.213  0.00  0.00    +0.000 C 
ATOM      4  C   UNL     1       3.279   5.701  19.863  0.00  0.00    +0.000 C 
ATOM      5  C   UNL     1       4.529   5.277  19.152  0.00  0.00    +0.000 A 
ATOM      6  C   UNL     1       5.538   4.403  19.490  0.00  0.00    +0.000 A 
ATOM      7  N   UNL     1       6.386   4.405  18.422  0.00  0.00    +0.000 N 
ATOM      8  N   UNL     1       6.006   5.232  17.423  0.00  0.00    +0.000 NA
ATOM      9  C   UNL     1       4.878   5.768  17.885  0.00  0.00    +0.000 A 
ATOM     10  N   UNL     1       4.102   6.703  17.302  0.00  0.00    +0.000 N 
ATOM     11  H   UNL     1       7.239   3.868  18.302  0.00  0.00    +0.000 HD
ATOM     12  H   UNL     1       4.445   7.115  16.441  0.00  0.00    +0.000 HD
ENDROOT
BRANCH   4  13
ATOM     13  C   UNL     1       2.303   4.531  19.886  0.00  0.00    +0.000 A 
ATOM     14  C   UNL     1       1.511   4.062  18.850  0.00  0.00    +0.000 A 
ATOM     15  C   UNL     1       0.771   2.904  19.216  0.00  0.00    +0.000 A 
ATOM     16  C   UNL     1       1.009   2.531  20.520  0.00  0.00    +0.000 A 
ATOM     17  S   UNL     1       2.119   3.576  21.295  0.00  0.00    +0.000 S 
ENDBRANCH   4  13
BRANCH   3  18
ATOM     18  C   UNL     1       1.758   7.672  20.175  0.00  0.00    +0.000 C 
ATOM     19  O   UNL     1       1.391   7.026  21.157  0.00  0.00    +0.000 OA
ATOM     20  N   UNL     1       1.325   8.943  19.872  0.00  0.00    +0.000 N 
ATOM     21  H   UNL     1       1.583   9.335  18.978  0.00  0.00    +0.000 HD
BRANCH  20  22
ATOM     22  C   UNL     1       0.476   9.737  20.694  0.00  0.00    +0.000 A 
ATOM     23  C   UNL     1       0.291   9.505  22.062  0.00  0.00    +0.000 A 
ATOM     24  C   UNL     1      -0.574  10.290  22.828  0.00  0.00    +0.000 A 
ATOM     25  C   UNL     1      -1.274  11.349  22.248  0.00  0.00    +0.000 A 
ATOM     26  C   UNL     1      -1.082  11.603  20.880  0.00  0.00    +0.000 A 
ATOM     27  C   UNL     1      -0.214  10.808  20.113  0.00  0.00    +0.000 A 
BRANCH  25  28
ATOM     28  C   UNL     1      -2.201  12.200  23.080  0.00  0.00    +0.000 C 
ATOM     29  F   UNL     1      -1.556  13.140  23.828  0.00  0.00    +0.000 F 
ATOM     30  F   UNL     1      -3.098  12.886  22.318  0.00  0.00    +0.000 F 
ATOM     31  F   UNL     1      -2.938  11.469  23.960  0.00  0.00    +0.000 F 
ENDBRANCH  25  28
ENDBRANCH  20  22
ENDBRANCH   3  18
TORSDOF 4
ENDMDL
MODEL 3
REMARK VINA RESULT:      -7.9      2.690      4.540
REMARK  Name = 
REMARK  5 active torsions:
REMARK  status: ('A' for Active; 'I' for Inactive)
REMARK    1  A    between atoms: C_1  and  C_2
REMARK    2  A    between atoms: C_3  and  C_4
REMARK    3  A    between atoms: N_6  and  C_7
REMARK    4  A    between atoms: C_10  and  C_11
REMARK    5  A    between atoms: C_17  and  C_18
REMARK                            x       y       z     vdW  Elec       q    Type
REMARK                         _______ _______ _______ _____ _____    ______ ____
ROOT
ATOM      1  C   UNL     1       2.691   8.549  17.220  0.00  0.00    +0.000 C 
ATOM      2  C   UNL     1       3.163   7.313  17.941  0.00  0.00    +0.000 C 
ATOM      3  C   UNL     1       2.747   6.899  19.171  0.00  0.00    +0.000 C 
ATOM      4  C   UNL     1       3.360   5.637  19.836  0.00  0.00    +0.000 C 
ATOM      5  C   UNL     1       4.615   5.217  19.131  0.00  0.00    +0.000 A 
ATOM      6  C   UNL     1       5.633   4.357  19.481  0.00  0.00    +0.000 A 
ATOM      7  N   UNL     1       6.482   4.355  18.414  0.00  0.00    +0.000 N 
ATOM      8  N   UNL     1       6.095   5.166  17.405  0.00  0.00    +0.000 NA
ATOM      9  C   UNL     1       4.962   5.696  17.859  0.00  0.00    +0.000 A 
ATOM     10  N   UNL     1       4.176   6.616  17.264  0.00  0.00    +0.000 N 
ATOM     11  H   UNL     1       7.341   3.825  18.301  0.00  0.00    +0.000 HD
ATOM     12  H   UNL     1       4.517   7.022  16.399  0.00  0.00    +0.000 HD
ENDROOT
BRANCH   4  13
ATOM     13  C   UNL     1       2.397   4.457  19.871  0.00  0.00    +0.000 A 
ATOM     14  C   UNL     1       2.013   3.704  20.969  0.00  0.00    +0.000 A 
ATOM     15  C   UNL     1       1.040   2.720  20.638  0.00  0.00    +0.000 A 
ATOM     16  C   UNL     1       0.721   2.742  19.299  0.00  0.00    +0.000 A 
ATOM     17  S   UNL     1       1.591   3.944  18.450  0.00  0.00    +0.000 S 
ENDBRANCH   4  13
BRANCH   3  18
ATOM     18  C   UNL     1       1.819   7.596  20.124  0.00  0.00    +0.000 C 
ATOM     19  O   UNL     1       1.407   6.937  21.078  0.00  0.00    +0.000 OA
ATOM     20  N   UNL     1       1.430   8.885  19.840  0.00  0.00    +0.000 N 
ATOM     21  H   UNL     1       1.725   9.291  18.963  0.00  0.00    +0.000 HD
BRANCH  20  22
ATOM     22  C   UNL     1       0.580   9.683  20.657  0.00  0.00    +0.000 A 
ATOM     23  C   UNL     1       0.446   9.500  22.038  0.00  0.00    +0.000 A 
ATOM     24  C   UNL     1      -0.423  10.286  22.800  0.00  0.00    +0.000 A 
ATOM     25  C   UNL     1      -1.176  11.296  22.202  0.00  0.00    +0.000 A 
ATOM     26  C   UNL     1      -1.036  11.501  20.820  0.00  0.00    +0.000 A 
ATOM     27  C   UNL     1      -0.164  10.705  20.057  0.00  0.00    +0.000 A 
BRANCH  25  28
ATOM     28  C   UNL     1      -2.106  12.148  23.029  0.00  0.00    +0.000 C 
ATOM     29  F   UNL     1      -2.995  12.867  22.286  0.00  0.00    +0.000 F 
ATOM     30  F   UNL     1      -2.860  11.409  23.891  0.00  0.00    +0.000 F 
ATOM     31  F   UNL     1      -1.444  13.057  23.796  0.00  0.00    +0.000 F 
ENDBRANCH  25  28
ENDBRANCH  20  22
ENDBRANCH   3  18
TORSDOF 4
ENDMDL
MODEL 4
REMARK VINA RESULT:      -7.9      5.453      9.254
REMARK  Name = 
REMARK  5 active torsions:
REMARK  status: ('A' for Active; 'I' for Inactive)
REMARK    1  A    between atoms: C_1  and  C_2
REMARK    2  A    between atoms: C_3  and  C_4
REMARK    3  A    between atoms: N_6  and  C_7
REMARK    4  A    between atoms: C_10  and  C_11
REMARK    5  A    between atoms: C_17  and  C_18
REMARK                            x       y       z     vdW  Elec       q    Type
REMARK                         _______ _______ _______ _____ _____    ______ ____
ROOT
ATOM      1  C   UNL     1      -0.948  10.944  23.074  0.00  0.00    +0.000 C 
ATOM      2  C   UNL     1      -0.941  11.470  21.661  0.00  0.00    +0.000 C 
ATOM      3  C   UNL     1      -0.543  10.781  20.555  0.00  0.00    +0.000 C 
ATOM      4  C   UNL     1      -0.522  11.459  19.159  0.00  0.00    +0.000 C 
ATOM      5  C   UNL     1      -0.644  12.947  19.285  0.00  0.00    +0.000 A 
ATOM      6  C   UNL     1      -0.417  13.976  18.398  0.00  0.00    +0.000 A 
ATOM      7  N   UNL     1      -0.738  15.114  19.078  0.00  0.00    +0.000 N 
ATOM      8  N   UNL     1      -1.139  14.895  20.349  0.00  0.00    +0.000 NA
ATOM      9  C   UNL     1      -1.067  13.571  20.468  0.00  0.00    +0.000 A 
ATOM     10  N   UNL     1      -1.316  12.819  21.558  0.00  0.00    +0.000 N 
ATOM     11  H   UNL     1      -0.710  16.071  18.741  0.00  0.00    +0.000 HD
ATOM     12  H   UNL     1      -1.508  13.312  22.424  0.00  0.00    +0.000 HD
ENDROOT
BRANCH   4  13
ATOM     13  C   UNL     1      -1.623  10.950  18.236  0.00  0.00    +0.000 A 
ATOM     14  C   UNL     1      -1.519  10.007  17.226  0.00  0.00    +0.000 A 
ATOM     15  C   UNL     1      -2.772   9.729  16.613  0.00  0.00    +0.000 A 
ATOM     16  C   UNL     1      -3.790  10.475  17.162  0.00  0.00    +0.000 A 
ATOM     17  S   UNL     1      -3.233  11.504  18.409  0.00  0.00    +0.000 S 
ENDBRANCH   4  13
BRANCH   3  18
ATOM     18  C   UNL     1       0.058   9.407  20.481  0.00  0.00    +0.000 C 
ATOM     19  O   UNL     1      -0.447   8.541  21.196  0.00  0.00    +0.000 OA
ATOM     20  N   UNL     1       1.168   9.215  19.689  0.00  0.00    +0.000 N 
ATOM     21  H   UNL     1       1.582  10.021  19.243  0.00  0.00    +0.000 HD
BRANCH  20  22
ATOM     22  C   UNL     1       1.831   7.970  19.497  0.00  0.00    +0.000 A 
ATOM     23  C   UNL     1       1.832   6.943  20.448  0.00  0.00    +0.000 A 
ATOM     24  C   UNL     1       2.520   5.746  20.232  0.00  0.00    +0.000 A 
ATOM     25  C   UNL     1       3.220   5.532  19.045  0.00  0.00    +0.000 A 
ATOM     26  C   UNL     1       3.210   6.549  18.076  0.00  0.00    +0.000 A 
ATOM     27  C   UNL     1       2.520   7.753  18.298  0.00  0.00    +0.000 A 
BRANCH  25  28
ATOM     28  C   UNL     1       3.955   4.236  18.812  0.00  0.00    +0.000 C 
ATOM     29  F   UNL     1       3.658   3.645  17.619  0.00  0.00    +0.000 F 
ATOM     30  F   UNL     1       5.308   4.398  18.816  0.00  0.00    +0.000 F 
ATOM     31  F   UNL     1       3.687   3.301  19.765  0.00  0.00    +0.000 F 
ENDBRANCH  25  28
ENDBRANCH  20  22
ENDBRANCH   3  18
TORSDOF 4
ENDMDL
MODEL 5
REMARK VINA RESULT:      -7.8      1.071      1.431
REMARK  Name = 
REMARK  5 active torsions:
REMARK  status: ('A' for Active; 'I' for Inactive)
REMARK    1  A    between atoms: C_1  and  C_2
REMARK    2  A    between atoms: C_3  and  C_4
REMARK    3  A    between atoms: N_6  and  C_7
REMARK    4  A    between atoms: C_10  and  C_11
REMARK    5  A    between atoms: C_17  and  C_18
REMARK                            x       y       z     vdW  Elec       q    Type
REMARK                         _______ _______ _______ _____ _____    ______ ____
ROOT
ATOM      1  C   UNL     1       2.483   4.037  18.446  0.00  0.00    +0.000 C 
ATOM      2  C   UNL     1       3.643   4.555  17.635  0.00  0.00    +0.000 C 
ATOM      3  C   UNL     1       3.993   5.864  17.491  0.00  0.00    +0.000 C 
ATOM      4  C   UNL     1       5.176   6.276  16.573  0.00  0.00    +0.000 C 
ATOM      5  C   UNL     1       5.580   5.142  15.680  0.00  0.00    +0.000 A 
ATOM      6  C   UNL     1       6.363   5.084  14.549  0.00  0.00    +0.000 A 
ATOM      7  N   UNL     1       6.395   3.766  14.201  0.00  0.00    +0.000 N 
ATOM      8  N   UNL     1       5.674   2.968  15.019  0.00  0.00    +0.000 NA
ATOM      9  C   UNL     1       5.171   3.820  15.909  0.00  0.00    +0.000 A 
ATOM     10  N   UNL     1       4.333   3.556  16.932  0.00  0.00    +0.000 N 
ATOM     11  H   UNL     1       6.889   3.337  13.425  0.00  0.00    +0.000 HD
ATOM     12  H   UNL     1       3.971   2.611  16.998  0.00  0.00    +0.000 HD
ENDROOT
BRANCH   4  13
ATOM     13  C   UNL     1       6.396   6.749  17.353  0.00  0.00    +0.000 A 
ATOM     14  C   UNL     1       7.043   7.971  17.264  0.00  0.00    +0.000 A 
ATOM     15  C   UNL     1       8.111   8.088  18.197  0.00  0.00    +0.000 A 
ATOM     16  C   UNL     1       8.256   6.950  18.959  0.00  0.00    +0.000 A 
ATOM     17  S   UNL     1       7.109   5.751  18.548  0.00  0.00    +0.000 S 
ENDBRANCH   4  13
BRANCH   3  18
ATOM     18  C   UNL     1       3.280   7.082  18.005  0.00  0.00    +0.000 C 
ATOM     19  O   UNL     1       3.403   8.115  17.349  0.00  0.00    +0.000 OA
ATOM     20  N   UNL     1       2.603   6.993  19.200  0.00  0.00    +0.000 N 
ATOM     21  H   UNL     1       2.671   6.132  19.725  0.00  0.00    +0.000 HD
BRANCH  20  22
ATOM     22  C   UNL     1       1.860   8.048  19.802  0.00  0.00    +0.000 A 
ATOM     23  C   UNL     1       1.423   9.178  19.101  0.00  0.00    +0.000 A 
ATOM     24  C   UNL     1       0.722  10.207  19.735  0.00  0.00    +0.000 A 
ATOM     25  C   UNL     1       0.419  10.128  21.095  0.00  0.00    +0.000 A 
ATOM     26  C   UNL     1       0.837   8.989  21.804  0.00  0.00    +0.000 A 
ATOM     27  C   UNL     1       1.546   7.959  21.163  0.00  0.00    +0.000 A 
BRANCH  25  28
ATOM     28  C   UNL     1      -0.346  11.236  21.775  0.00  0.00    +0.000 C 
ATOM     29  F   UNL     1       0.288  12.443  21.734  0.00  0.00    +0.000 F 
ATOM     30  F   UNL     1      -1.570  11.443  21.212  0.00  0.00    +0.000 F 
ATOM     31  F   UNL     1      -0.577  10.984  23.092  0.00  0.00    +0.000 F 
ENDBRANCH  25  28
ENDBRANCH  20  22
ENDBRANCH   3  18
TORSDOF 4
ENDMDL
MODEL 6
REMARK VINA RESULT:      -7.8      0.239      1.198
REMARK  Name = 
REMARK  5 active torsions:
REMARK  status: ('A' for Active; 'I' for Inactive)
REMARK    1  A    between atoms: C_1  and  C_2
REMARK    2  A    between atoms: C_3  and  C_4
REMARK    3  A    between atoms: N_6  and  C_7
REMARK    4  A    between atoms: C_10  and  C_11
REMARK    5  A    between atoms: C_17  and  C_18
REMARK                            x       y       z     vdW  Elec       q    Type
REMARK                         _______ _______ _______ _____ _____    ______ ____
ROOT
ATOM      1  C   UNL     1       3.317   2.949  18.199  0.00  0.00    +0.000 C 
ATOM      2  C   UNL     1       4.265   3.855  17.457  0.00  0.00    +0.000 C 
ATOM      3  C   UNL     1       4.368   5.205  17.616  0.00  0.00    +0.000 C 
ATOM      4  C   UNL     1       5.343   6.038  16.742  0.00  0.00    +0.000 C 
ATOM      5  C   UNL     1       5.823   5.240  15.567  0.00  0.00    +0.000 A 
ATOM      6  C   UNL     1       6.462   5.598  14.401  0.00  0.00    +0.000 A 
ATOM      7  N   UNL     1       6.676   4.426  13.736  0.00  0.00    +0.000 N 
ATOM      8  N   UNL     1       6.205   3.337  14.382  0.00  0.00    +0.000 NA
ATOM      9  C   UNL     1       5.676   3.847  15.492  0.00  0.00    +0.000 A 
ATOM     10  N   UNL     1       5.025   3.198  16.477  0.00  0.00    +0.000 N 
ATOM     11  H   UNL     1       7.138   4.292  12.842  0.00  0.00    +0.000 HD
ATOM     12  H   UNL     1       4.840   2.211  16.334  0.00  0.00    +0.000 HD
ENDROOT
BRANCH   4  13
ATOM     13  C   UNL     1       6.550   6.547  17.519  0.00  0.00    +0.000 A 
ATOM     14  C   UNL     1       7.209   7.757  17.374  0.00  0.00    +0.000 A 
ATOM     15  C   UNL     1       8.257   7.921  18.322  0.00  0.00    +0.000 A 
ATOM     16  C   UNL     1       8.377   6.828  19.151  0.00  0.00    +0.000 A 
ATOM     17  S   UNL     1       7.229   5.615  18.785  0.00  0.00    +0.000 S 
ENDBRANCH   4  13
BRANCH   3  18
ATOM     18  C   UNL     1       3.525   6.109  18.469  0.00  0.00    +0.000 C 
ATOM     19  O   UNL     1       3.342   5.759  19.635  0.00  0.00    +0.000 OA
ATOM     20  N   UNL     1       2.953   7.218  17.889  0.00  0.00    +0.000 N 
ATOM     21  H   UNL     1       3.060   7.345  16.893  0.00  0.00    +0.000 HD
BRANCH  20  22
ATOM     22  C   UNL     1       2.153   8.179  18.572  0.00  0.00    +0.000 A 
ATOM     23  C   UNL     1       1.662   9.341  17.967  0.00  0.00    +0.000 A 
ATOM     24  C   UNL     1       0.904  10.273  18.680  0.00  0.00    +0.000 A 
ATOM     25  C   UNL     1       0.599  10.062  20.024  0.00  0.00    +0.000 A 
ATOM     26  C   UNL     1       1.071   8.890  20.637  0.00  0.00    +0.000 A 
ATOM     27  C   UNL     1       1.837   7.957  19.917  0.00  0.00    +0.000 A 
BRANCH  25  28
ATOM     28  C   UNL     1      -0.226  11.067  20.789  0.00  0.00    +0.000 C 
ATOM     29  F   UNL     1      -1.468  11.267  20.263  0.00  0.00    +0.000 F 
ATOM     30  F   UNL     1      -0.430  10.694  22.084  0.00  0.00    +0.000 F 
ATOM     31  F   UNL     1       0.357  12.296  20.840  0.00  0.00    +0.000 F 
ENDBRANCH  25  28
ENDBRANCH  20  22
ENDBRANCH   3  18
TORSDOF 4
ENDMDL
MODEL 7
REMARK VINA RESULT:      -7.8      5.471      9.308
REMARK  Name = 
REMARK  5 active torsions:
REMARK  status: ('A' for Active; 'I' for Inactive)
REMARK    1  A    between atoms: C_1  and  C_2
REMARK    2  A    between atoms: C_3  and  C_4
REMARK    3  A    between atoms: N_6  and  C_7
REMARK    4  A    between atoms: C_10  and  C_11
REMARK    5  A    between atoms: C_17  and  C_18
REMARK                            x       y       z     vdW  Elec       q    Type
REMARK                         _______ _______ _______ _____ _____    ______ ____
ROOT
ATOM      1  C   UNL     1      -0.845  10.860  23.105  0.00  0.00    +0.000 C 
ATOM      2  C   UNL     1      -0.873  11.425  21.708  0.00  0.00    +0.000 C 
ATOM      3  C   UNL     1      -0.513  10.763  20.572  0.00  0.00    +0.000 C 
ATOM      4  C   UNL     1      -0.525  11.480  19.195  0.00  0.00    +0.000 C 
ATOM      5  C   UNL     1      -0.629  12.965  19.365  0.00  0.00    +0.000 A 
ATOM      6  C   UNL     1      -0.418  14.016  18.501  0.00  0.00    +0.000 A 
ATOM      7  N   UNL     1      -0.709  15.137  19.222  0.00  0.00    +0.000 N 
ATOM      8  N   UNL     1      -1.076  14.887  20.497  0.00  0.00    +0.000 NA
ATOM      9  C   UNL     1      -1.013  13.559  20.577  0.00  0.00    +0.000 A 
ATOM     10  N   UNL     1      -1.238  12.779  21.653  0.00  0.00    +0.000 N 
ATOM     11  H   UNL     1      -0.681  16.103  18.910  0.00  0.00    +0.000 HD
ATOM     12  H   UNL     1      -1.401  13.250  22.537  0.00  0.00    +0.000 HD
ENDROOT
BRANCH   4  13
ATOM     13  C   UNL     1      -1.656  11.006  18.290  0.00  0.00    +0.000 A 
ATOM     14  C   UNL     1      -1.597  10.064  17.276  0.00  0.00    +0.000 A 
ATOM     15  C   UNL     1      -2.869   9.825  16.685  0.00  0.00    +0.000 A 
ATOM     16  C   UNL     1      -3.855  10.598  17.254  0.00  0.00    +0.000 A 
ATOM     17  S   UNL     1      -3.247  11.606  18.493  0.00  0.00    +0.000 S 
ENDBRANCH   4  13
BRANCH   3  18
ATOM     18  C   UNL     1       0.073   9.387  20.443  0.00  0.00    +0.000 C 
ATOM     19  O   UNL     1      -0.462   8.492  21.097  0.00  0.00    +0.000 OA
ATOM     20  N   UNL     1       1.202   9.221  19.673  0.00  0.00    +0.000 N 
ATOM     21  H   UNL     1       1.639  10.043  19.282  0.00  0.00    +0.000 HD
BRANCH  20  22
ATOM     22  C   UNL     1       1.856   7.978  19.435  0.00  0.00    +0.000 A 
ATOM     23  C   UNL     1       2.470   7.651  18.221  0.00  0.00    +0.000 A 
ATOM     24  C   UNL     1       3.076   6.409  18.018  0.00  0.00    +0.000 A 
ATOM     25  C   UNL     1       3.101   5.456  19.035  0.00  0.00    +0.000 A 
ATOM     26  C   UNL     1       2.504   5.780  20.265  0.00  0.00    +0.000 A 
ATOM     27  C   UNL     1       1.892   7.030  20.463  0.00  0.00    +0.000 A 
BRANCH  25  28
ATOM     28  C   UNL     1       3.764   4.118  18.816  0.00  0.00    +0.000 C 
ATOM     29  F   UNL     1       4.993   4.016  19.397  0.00  0.00    +0.000 F 
ATOM     30  F   UNL     1       3.030   3.087  19.319  0.00  0.00    +0.000 F 
ATOM     31  F   UNL     1       3.953   3.836  17.498  0.00  0.00    +0.000 F 
ENDBRANCH  25  28
ENDBRANCH  20  22
ENDBRANCH   3  18
TORSDOF 4
ENDMDL
MODEL 8
REMARK VINA RESULT:      -7.7      1.046      1.302
REMARK  Name = 
REMARK  5 active torsions:
REMARK  status: ('A' for Active; 'I' for Inactive)
REMARK    1  A    between atoms: C_1  and  C_2
REMARK    2  A    between atoms: C_3  and  C_4
REMARK    3  A    between atoms: N_6  and  C_7
REMARK    4  A    between atoms: C_10  and  C_11
REMARK    5  A    between atoms: C_17  and  C_18
REMARK                            x       y       z     vdW  Elec       q    Type
REMARK                         _______ _______ _______ _____ _____    ______ ____
ROOT
ATOM      1  C   UNL     1       2.356   4.026  18.197  0.00  0.00    +0.000 C 
ATOM      2  C   UNL     1       3.574   4.538  17.472  0.00  0.00    +0.000 C 
ATOM      3  C   UNL     1       3.993   5.835  17.434  0.00  0.00    +0.000 C 
ATOM      4  C   UNL     1       5.234   6.247  16.596  0.00  0.00    +0.000 C 
ATOM      5  C   UNL     1       5.621   5.156  15.643  0.00  0.00    +0.000 A 
ATOM      6  C   UNL     1       6.450   5.135  14.543  0.00  0.00    +0.000 A 
ATOM      7  N   UNL     1       6.434   3.843  14.106  0.00  0.00    +0.000 N 
ATOM      8  N   UNL     1       5.639   3.030  14.836  0.00  0.00    +0.000 NA
ATOM      9  C   UNL     1       5.139   3.844  15.763  0.00  0.00    +0.000 A 
ATOM     10  N   UNL     1       4.245   3.555  16.730  0.00  0.00    +0.000 N 
ATOM     11  H   UNL     1       6.940   3.443  13.322  0.00  0.00    +0.000 HD
ATOM     12  H   UNL     1       3.836   2.627  16.715  0.00  0.00    +0.000 HD
ENDROOT
BRANCH   4  13
ATOM     13  C   UNL     1       6.440   6.602  17.456  0.00  0.00    +0.000 A 
ATOM     14  C   UNL     1       7.216   7.749  17.402  0.00  0.00    +0.000 A 
ATOM     15  C   UNL     1       8.223   7.769  18.407  0.00  0.00    +0.000 A 
ATOM     16  C   UNL     1       8.195   6.635  19.186  0.00  0.00    +0.000 A 
ATOM     17  S   UNL     1       6.960   5.555  18.706  0.00  0.00    +0.000 S 
ENDBRANCH   4  13
BRANCH   3  18
ATOM     18  C   UNL     1       3.317   7.049  18.003  0.00  0.00    +0.000 C 
ATOM     19  O   UNL     1       3.514   8.116  17.422  0.00  0.00    +0.000 OA
ATOM     20  N   UNL     1       2.590   6.916  19.164  0.00  0.00    +0.000 N 
ATOM     21  H   UNL     1       2.598   6.021  19.632  0.00  0.00    +0.000 HD
BRANCH  20  22
ATOM     22  C   UNL     1       1.875   7.965  19.807  0.00  0.00    +0.000 A 
ATOM     23  C   UNL     1       1.595   7.979  21.178  0.00  0.00    +0.000 A 
ATOM     24  C   UNL     1       0.864   9.014  21.766  0.00  0.00    +0.000 A 
ATOM     25  C   UNL     1       0.403  10.083  20.999  0.00  0.00    +0.000 A 
ATOM     26  C   UNL     1       0.694  10.090  19.625  0.00  0.00    +0.000 A 
ATOM     27  C   UNL     1       1.426   9.044  19.037  0.00  0.00    +0.000 A 
BRANCH  25  28
ATOM     28  C   UNL     1      -0.379  11.204  21.638  0.00  0.00    +0.000 C 
ATOM     29  F   UNL     1      -1.551  11.486  21.001  0.00  0.00    +0.000 F 
ATOM     30  F   UNL     1      -0.717  10.930  22.929  0.00  0.00    +0.000 F 
ATOM     31  F   UNL     1       0.314  12.375  21.673  0.00  0.00    +0.000 F 
ENDBRANCH  25  28
ENDBRANCH  20  22
ENDBRANCH   3  18
TORSDOF 4
ENDMDL
MODEL 9
REMARK VINA RESULT:      -7.7      2.705      4.609
REMARK  Name = 
REMARK  5 active torsions:
REMARK  status: ('A' for Active; 'I' for Inactive)
REMARK    1  A    between atoms: C_1  and  C_2
REMARK    2  A    between atoms: C_3  and  C_4
REMARK    3  A    between atoms: N_6  and  C_7
REMARK    4  A    between atoms: C_10  and  C_11
REMARK    5  A    between atoms: C_17  and  C_18
REMARK                            x       y       z     vdW  Elec       q    Type
REMARK                         _______ _______ _______ _____ _____    ______ ____
ROOT
ATOM      1  C   UNL     1       2.770   8.571  17.173  0.00  0.00    +0.000 C 
ATOM      2  C   UNL     1       3.203   7.330  17.912  0.00  0.00    +0.000 C 
ATOM      3  C   UNL     1       2.747   6.930  19.133  0.00  0.00    +0.000 C 
ATOM      4  C   UNL     1       3.321   5.661  19.820  0.00  0.00    +0.000 C 
ATOM      5  C   UNL     1       4.587   5.217  19.151  0.00  0.00    +0.000 A 
ATOM      6  C   UNL     1       5.579   4.342  19.532  0.00  0.00    +0.000 A 
ATOM      7  N   UNL     1       6.457   4.319  18.487  0.00  0.00    +0.000 N 
ATOM      8  N   UNL     1       6.110   5.131  17.465  0.00  0.00    +0.000 NA
ATOM      9  C   UNL     1       4.974   5.683  17.886  0.00  0.00    +0.000 A 
ATOM     10  N   UNL     1       4.221   6.613  17.266  0.00  0.00    +0.000 N 
ATOM     11  H   UNL     1       7.308   3.774  18.400  0.00  0.00    +0.000 HD
ATOM     12  H   UNL     1       4.591   7.008  16.408  0.00  0.00    +0.000 HD
ENDROOT
BRANCH   4  13
ATOM     13  C   UNL     1       2.336   4.499  19.836  0.00  0.00    +0.000 A 
ATOM     14  C   UNL     1       1.557   4.028  18.792  0.00  0.00    +0.000 A 
ATOM     15  C   UNL     1       0.802   2.878  19.155  0.00  0.00    +0.000 A 
ATOM     16  C   UNL     1       1.017   2.514  20.465  0.00  0.00    +0.000 A 
ATOM     17  S   UNL     1       2.122   3.556  21.250  0.00  0.00    +0.000 S 
ENDBRANCH   4  13
BRANCH   3  18
ATOM     18  C   UNL     1       1.807   7.648  20.058  0.00  0.00    +0.000 C 
ATOM     19  O   UNL     1       1.416   7.025  21.045  0.00  0.00    +0.000 OA
ATOM     20  N   UNL     1       1.383   8.912  19.715  0.00  0.00    +0.000 N 
ATOM     21  H   UNL     1       1.662   9.283  18.818  0.00  0.00    +0.000 HD
BRANCH  20  22
ATOM     22  C   UNL     1       0.516   9.726  20.499  0.00  0.00    +0.000 A 
ATOM     23  C   UNL     1      -0.321  10.706  19.955  0.00  0.00    +0.000 A 
ATOM     24  C   UNL     1      -1.136  11.504  20.762  0.00  0.00    +0.000 A 
ATOM     25  C   UNL     1      -1.151  11.332  22.146  0.00  0.00    +0.000 A 
ATOM     26  C   UNL     1      -0.328  10.339  22.702  0.00  0.00    +0.000 A 
ATOM     27  C   UNL     1       0.493   9.542  21.886  0.00  0.00    +0.000 A 
BRANCH  25  28
ATOM     28  C   UNL     1      -2.039  12.189  23.014  0.00  0.00    +0.000 C 
ATOM     29  F   UNL     1      -2.822  11.473  23.869  0.00  0.00    +0.000 F 
ATOM     30  F   UNL     1      -1.326  13.047  23.797  0.00  0.00    +0.000 F 
ATOM     31  F   UNL     1      -2.892  12.964  22.290  0.00  0.00    +0.000 F 
ENDBRANCH  25  28
ENDBRANCH  20  22
ENDBRANCH   3  18
TORSDOF 4
ENDMDL
