MODEL 1
REMARK VINA RESULT:      -8.0      0.000      0.000
REMARK  Name = 
REMARK  4 active torsions:
REMARK  status: ('A' for Active; 'I' for Inactive)
REMARK    1  A    between atoms: C_1  and  O_2
REMARK    2  A    between atoms: O_2  and  C_3
REMARK    3  A    between atoms: C_3  and  C_4
REMARK    4  A    between atoms: N_12  and  C_13
REMARK                            x       y       z     vdW  Elec       q    Type
REMARK                         _______ _______ _______ _____ _____    ______ ____
ROOT
ATOM      1  C   UNL     1      -0.336  10.022  22.355  0.00  0.00    +0.000 A 
ATOM      2  C   UNL     1       0.640   9.313  23.064  0.00  0.00    +0.000 A 
ATOM      3  C   UNL     1       1.676   8.741  22.356  0.00  0.00    +0.000 A 
ATOM      4  N   UNL     1       1.784   8.815  21.018  0.00  0.00    +0.000 NA
ATOM      5  C   UNL     1       0.859   9.523  20.338  0.00  0.00    +0.000 A 
ATOM      6  N   UNL     1       0.986   9.625  18.951  0.00  0.00    +0.000 N 
ATOM      7  C   UNL     1       1.845   8.919  18.139  0.00  0.00    +0.000 C 
ATOM      8  O   UNL     1       1.908   9.206  16.952  0.00  0.00    +0.000 OA
ATOM      9  N   UNL     1       2.483   7.863  18.740  0.00  0.00    +0.000 N 
ATOM     10  C   UNL     1      -0.212  10.138  20.964  0.00  0.00    +0.000 A 
ATOM     11  H   UNL     1       0.398  10.275  18.455  0.00  0.00    +0.000 HD
ATOM     12  H   UNL     1       2.093   7.617  19.638  0.00  0.00    +0.000 HD
ENDROOT
BRANCH   9  13
ATOM     13  C   UNL     1       3.264   6.934  18.055  0.00  0.00    +0.000 A 
ATOM     14  C   UNL     1       4.273   7.381  17.197  0.00  0.00    +0.000 A 
ATOM     15  C   UNL     1       5.052   6.471  16.468  0.00  0.00    +0.000 A 
ATOM     16  C   UNL     1       4.837   5.099  16.590  0.00  0.00    +0.000 A 
ATOM     17  C   UNL     1       3.873   4.684  17.490  0.00  0.00    +0.000 A 
ATOM     18  C   UNL     1       3.089   5.573  18.236  0.00  0.00    +0.000 A 
ATOM     19  C   UNL     1       2.055   4.788  18.978  0.00  0.00    +0.000 C 
ATOM     20  C   UNL     1       1.772   5.122  20.435  0.00  0.00    +0.000 C 
ATOM     21  C   UNL     1       0.789   4.081  20.971  0.00  0.00    +0.000 C 
ATOM     22  C   UNL     1       1.477   2.717  20.971  0.00  0.00    +0.000 C 
ATOM     23  C   UNL     1       1.926   2.318  19.562  0.00  0.00    +0.000 C 
ATOM     24  N   UNL     1       2.561   3.425  18.866  0.00  0.00    +0.000 N 
ATOM     25  C   UNL     1       3.500   3.306  17.859  0.00  0.00    +0.000 C 
ATOM     26  O   UNL     1       3.974   2.297  17.380  0.00  0.00    +0.000 OA
ENDBRANCH   9  13
BRANCH   1  27
ATOM     27  C   UNL     1      -1.500  10.648  23.067  0.00  0.00    +0.000 C 
BRANCH  27  29
ATOM     28  C   UNL     1      -1.954  12.922  22.672  0.00  0.00    +0.000 C 
ATOM     29  O   UNL     1      -1.151  11.992  23.386  0.00  0.00    +0.000 OA
ENDBRANCH  27  29
ENDBRANCH   1  27
TORSDOF 3
ENDMDL
MODEL 2
REMARK VINA RESULT:      -7.5      2.740      8.980
REMARK  Name = 
REMARK  4 active torsions:
REMARK  status: ('A' for Active; 'I' for Inactive)
REMARK    1  A    between atoms: C_1  and  O_2
REMARK    2  A    between atoms: O_2  and  C_3
REMARK    3  A    between atoms: C_3  and  C_4
REMARK    4  A    between atoms: N_12  and  C_13
REMARK                            x       y       z     vdW  Elec       q    Type
REMARK                         _______ _______ _______ _____ _____    ______ ____
ROOT
ATOM      1  C   UNL     1       2.406   6.722  18.672  0.00  0.00    +0.000 A 
ATOM      2  C   UNL     1       2.199   7.773  17.773  0.00  0.00    +0.000 A 
ATOM      3  C   UNL     1       1.747   8.978  18.268  0.00  0.00    +0.000 A 
ATOM      4  N   UNL     1       1.478   9.187  19.568  0.00  0.00    +0.000 NA
ATOM      5  C   UNL     1       1.706   8.182  20.439  0.00  0.00    +0.000 A 
ATOM      6  N   UNL     1       1.454   8.407  21.794  0.00  0.00    +0.000 N 
ATOM      7  C   UNL     1       0.804   9.484  22.354  0.00  0.00    +0.000 C 
ATOM      8  O   UNL     1       0.762   9.583  23.572  0.00  0.00    +0.000 OA
ATOM      9  N   UNL     1       0.158  10.304  21.463  0.00  0.00    +0.000 N 
ATOM     10  C   UNL     1       2.166   6.940  20.035  0.00  0.00    +0.000 A 
ATOM     11  H   UNL     1       1.767   7.725  22.467  0.00  0.00    +0.000 HD
ATOM     12  H   UNL     1       0.073   9.906  20.539  0.00  0.00    +0.000 HD
ENDROOT
BRANCH   9  13
ATOM     13  C   UNL     1      -0.685  11.349  21.838  0.00  0.00    +0.000 A 
ATOM     14  C   UNL     1      -1.540  11.187  22.931  0.00  0.00    +0.000 A 
ATOM     15  C   UNL     1      -2.423  12.207  23.311  0.00  0.00    +0.000 A 
ATOM     16  C   UNL     1      -2.462  13.408  22.603  0.00  0.00    +0.000 A 
ATOM     17  C   UNL     1      -1.564  13.564  21.564  0.00  0.00    +0.000 A 
ATOM     18  C   UNL     1      -0.666  12.563  21.172  0.00  0.00    +0.000 A 
ATOM     19  C   UNL     1       0.033  13.011  19.929  0.00  0.00    +0.000 C 
ATOM     20  C   UNL     1       1.536  12.803  19.806  0.00  0.00    +0.000 C 
ATOM     21  C   UNL     1       1.995  13.477  18.512  0.00  0.00    +0.000 C 
ATOM     22  C   UNL     1       1.782  14.983  18.646  0.00  0.00    +0.000 C 
ATOM     23  C   UNL     1       0.308  15.318  18.901  0.00  0.00    +0.000 C 
ATOM     24  N   UNL     1      -0.280  14.435  19.893  0.00  0.00    +0.000 N 
ATOM     25  C   UNL     1      -1.349  14.747  20.711  0.00  0.00    +0.000 C 
ATOM     26  O   UNL     1      -1.980  15.782  20.772  0.00  0.00    +0.000 OA
ENDBRANCH   9  13
BRANCH   1  27
ATOM     27  C   UNL     1       2.875   5.379  18.192  0.00  0.00    +0.000 C 
BRANCH  27  29
ATOM     28  C   UNL     1       1.425   3.546  18.449  0.00  0.00    +0.000 C 
ATOM     29  O   UNL     1       1.751   4.682  17.662  0.00  0.00    +0.000 OA
ENDBRANCH  27  29
ENDBRANCH   1  27
TORSDOF 3
ENDMDL
MODEL 3
REMARK VINA RESULT:      -7.4      2.759      8.412
REMARK  Name = 
REMARK  4 active torsions:
REMARK  status: ('A' for Active; 'I' for Inactive)
REMARK    1  A    between atoms: C_1  and  O_2
REMARK    2  A    between atoms: O_2  and  C_3
REMARK    3  A    between atoms: C_3  and  C_4
REMARK    4  A    between atoms: N_12  and  C_13
REMARK                            x       y       z     vdW  Elec       q    Type
REMARK                         _______ _______ _______ _____ _____    ______ ____
ROOT
ATOM      1  C   UNL     1       2.669   6.558  18.795  0.00  0.00    +0.000 A 
ATOM      2  C   UNL     1       2.476   7.526  17.803  0.00  0.00    +0.000 A 
ATOM      3  C   UNL     1       1.937   8.741  18.171  0.00  0.00    +0.000 A 
ATOM      4  N   UNL     1       1.571   9.034  19.431  0.00  0.00    +0.000 NA
ATOM      5  C   UNL     1       1.784   8.112  20.392  0.00  0.00    +0.000 A 
ATOM      6  N   UNL     1       1.431   8.425  21.706  0.00  0.00    +0.000 N 
ATOM      7  C   UNL     1       0.696   9.507  22.135  0.00  0.00    +0.000 C 
ATOM      8  O   UNL     1       0.566   9.696  23.336  0.00  0.00    +0.000 OA
ATOM      9  N   UNL     1       0.075  10.223  21.143  0.00  0.00    +0.000 N 
ATOM     10  C   UNL     1       2.326   6.867  20.118  0.00  0.00    +0.000 A 
ATOM     11  H   UNL     1       1.727   7.813  22.449  0.00  0.00    +0.000 HD
ATOM     12  H   UNL     1       0.072   9.753  20.249  0.00  0.00    +0.000 HD
ENDROOT
BRANCH   9  13
ATOM     13  C   UNL     1      -0.838  11.250  21.378  0.00  0.00    +0.000 A 
ATOM     14  C   UNL     1      -0.706  12.041  22.523  0.00  0.00    +0.000 A 
ATOM     15  C   UNL     1      -1.628  13.058  22.805  0.00  0.00    +0.000 A 
ATOM     16  C   UNL     1      -2.696  13.303  21.943  0.00  0.00    +0.000 A 
ATOM     17  C   UNL     1      -2.769  12.545  20.789  0.00  0.00    +0.000 A 
ATOM     18  C   UNL     1      -1.854  11.530  20.481  0.00  0.00    +0.000 A 
ATOM     19  C   UNL     1      -2.325  10.823  19.251  0.00  0.00    +0.000 C 
ATOM     20  C   UNL     1      -1.319  10.477  18.162  0.00  0.00    +0.000 C 
ATOM     21  C   UNL     1      -2.093   9.897  16.978  0.00  0.00    +0.000 C 
ATOM     22  C   UNL     1      -2.989  10.990  16.400  0.00  0.00    +0.000 C 
ATOM     23  C   UNL     1      -3.976  11.516  17.448  0.00  0.00    +0.000 C 
ATOM     24  N   UNL     1      -3.330  11.742  18.729  0.00  0.00    +0.000 N 
ATOM     25  C   UNL     1      -3.744  12.648  19.688  0.00  0.00    +0.000 C 
ATOM     26  O   UNL     1      -4.685  13.413  19.650  0.00  0.00    +0.000 OA
ENDBRANCH   9  13
BRANCH   1  27
ATOM     27  C   UNL     1       3.231   5.209  18.453  0.00  0.00    +0.000 C 
BRANCH  27  29
ATOM     28  C   UNL     1       1.378   3.795  18.138  0.00  0.00    +0.000 C 
ATOM     29  O   UNL     1       2.363   4.597  17.503  0.00  0.00    +0.000 OA
ENDBRANCH  27  29
ENDBRANCH   1  27
TORSDOF 3
ENDMDL
MODEL 4
REMARK VINA RESULT:      -7.1      6.016      8.999
REMARK  Name = 
REMARK  4 active torsions:
REMARK  status: ('A' for Active; 'I' for Inactive)
REMARK    1  A    between atoms: C_1  and  O_2
REMARK    2  A    between atoms: O_2  and  C_3
REMARK    3  A    between atoms: C_3  and  C_4
REMARK    4  A    between atoms: N_12  and  C_13
REMARK                            x       y       z     vdW  Elec       q    Type
REMARK                         _______ _______ _______ _____ _____    ______ ____
ROOT
ATOM      1  C   UNL     1       3.390  14.884  18.272  0.00  0.00    +0.000 A 
ATOM      2  C   UNL     1       2.393  15.816  18.581  0.00  0.00    +0.000 A 
ATOM      3  C   UNL     1       1.112  15.355  18.802  0.00  0.00    +0.000 A 
ATOM      4  N   UNL     1       0.770  14.058  18.716  0.00  0.00    +0.000 NA
ATOM      5  C   UNL     1       1.737  13.157  18.446  0.00  0.00    +0.000 A 
ATOM      6  N   UNL     1       1.390  11.806  18.385  0.00  0.00    +0.000 N 
ATOM      7  C   UNL     1       0.121  11.272  18.372  0.00  0.00    +0.000 C 
ATOM      8  O   UNL     1      -0.011  10.057  18.427  0.00  0.00    +0.000 OA
ATOM      9  N   UNL     1      -0.893  12.178  18.186  0.00  0.00    +0.000 N 
ATOM     10  C   UNL     1       3.053  13.525  18.218  0.00  0.00    +0.000 A 
ATOM     11  H   UNL     1       2.123  11.116  18.342  0.00  0.00    +0.000 HD
ATOM     12  H   UNL     1      -0.570  13.086  17.884  0.00  0.00    +0.000 HD
ENDROOT
BRANCH   9  13
ATOM     13  C   UNL     1      -2.226  11.824  17.984  0.00  0.00    +0.000 A 
ATOM     14  C   UNL     1      -2.600  11.203  16.789  0.00  0.00    +0.000 A 
ATOM     15  C   UNL     1      -3.939  10.867  16.542  0.00  0.00    +0.000 A 
ATOM     16  C   UNL     1      -4.924  11.143  17.490  0.00  0.00    +0.000 A 
ATOM     17  C   UNL     1      -4.516  11.704  18.686  0.00  0.00    +0.000 A 
ATOM     18  C   UNL     1      -3.184  12.040  18.959  0.00  0.00    +0.000 A 
ATOM     19  C   UNL     1      -3.134  12.761  20.267  0.00  0.00    +0.000 C 
ATOM     20  C   UNL     1      -2.045  12.408  21.270  0.00  0.00    +0.000 C 
ATOM     21  C   UNL     1      -2.322  13.190  22.555  0.00  0.00    +0.000 C 
ATOM     22  C   UNL     1      -3.634  12.689  23.155  0.00  0.00    +0.000 C 
ATOM     23  C   UNL     1      -4.802  12.877  22.181  0.00  0.00    +0.000 C 
ATOM     24  N   UNL     1      -4.447  12.472  20.832  0.00  0.00    +0.000 N 
ATOM     25  C   UNL     1      -5.333  12.026  19.870  0.00  0.00    +0.000 C 
ATOM     26  O   UNL     1      -6.535  11.879  19.956  0.00  0.00    +0.000 OA
ENDBRANCH   9  13
BRANCH   1  27
ATOM     27  C   UNL     1       4.798  15.327  17.999  0.00  0.00    +0.000 C 
BRANCH  27  29
ATOM     28  C   UNL     1       6.974  14.499  17.665  0.00  0.00    +0.000 C 
ATOM     29  O   UNL     1       5.608  14.162  17.861  0.00  0.00    +0.000 OA
ENDBRANCH  27  29
ENDBRANCH   1  27
TORSDOF 3
ENDMDL
MODEL 5
REMARK VINA RESULT:      -7.0      3.024      8.823
REMARK  Name = 
REMARK  4 active torsions:
REMARK  status: ('A' for Active; 'I' for Inactive)
REMARK    1  A    between atoms: C_1  and  O_2
REMARK    2  A    between atoms: O_2  and  C_3
REMARK    3  A    between atoms: C_3  and  C_4
REMARK    4  A    between atoms: N_12  and  C_13
REMARK                            x       y       z     vdW  Elec       q    Type
REMARK                         _______ _______ _______ _____ _____    ______ ____
ROOT
ATOM      1  C   UNL     1       2.342   7.649  18.636  0.00  0.00    +0.000 A 
ATOM      2  C   UNL     1       2.240   8.720  17.741  0.00  0.00    +0.000 A 
ATOM      3  C   UNL     1       1.685   9.899  18.191  0.00  0.00    +0.000 A 
ATOM      4  N   UNL     1       1.220  10.065  19.441  0.00  0.00    +0.000 NA
ATOM      5  C   UNL     1       1.345   9.043  20.312  0.00  0.00    +0.000 A 
ATOM      6  N   UNL     1       0.888   9.223  21.620  0.00  0.00    +0.000 N 
ATOM      7  C   UNL     1       0.131  10.267  22.101  0.00  0.00    +0.000 C 
ATOM      8  O   UNL     1      -0.094  10.332  23.301  0.00  0.00    +0.000 OA
ATOM      9  N   UNL     1      -0.399  11.095  21.143  0.00  0.00    +0.000 N 
ATOM     10  C   UNL     1       1.896   7.824  19.953  0.00  0.00    +0.000 A 
ATOM     11  H   UNL     1       1.117   8.531  22.315  0.00  0.00    +0.000 HD
ATOM     12  H   UNL     1      -0.334  10.721  20.208  0.00  0.00    +0.000 HD
ENDROOT
BRANCH   9  13
ATOM     13  C   UNL     1      -1.319  12.108  21.413  0.00  0.00    +0.000 A 
ATOM     14  C   UNL     1      -1.051  13.028  22.430  0.00  0.00    +0.000 A 
ATOM     15  C   UNL     1      -1.972  14.037  22.747  0.00  0.00    +0.000 A 
ATOM     16  C   UNL     1      -3.174  14.143  22.048  0.00  0.00    +0.000 A 
ATOM     17  C   UNL     1      -3.385  13.256  21.008  0.00  0.00    +0.000 A 
ATOM     18  C   UNL     1      -2.476  12.247  20.666  0.00  0.00    +0.000 A 
ATOM     19  C   UNL     1      -3.094  11.387  19.611  0.00  0.00    +0.000 C 
ATOM     20  C   UNL     1      -2.254  10.957  18.417  0.00  0.00    +0.000 C 
ATOM     21  C   UNL     1      -3.172  10.217  17.443  0.00  0.00    +0.000 C 
ATOM     22  C   UNL     1      -4.205  11.204  16.904  0.00  0.00    +0.000 C 
ATOM     23  C   UNL     1      -5.043  11.810  18.035  0.00  0.00    +0.000 C 
ATOM     24  N   UNL     1      -4.217  12.204  19.164  0.00  0.00    +0.000 N 
ATOM     25  C   UNL     1      -4.524  13.197  20.074  0.00  0.00    +0.000 C 
ATOM     26  O   UNL     1      -5.499  13.919  20.108  0.00  0.00    +0.000 OA
ENDBRANCH   9  13
BRANCH   1  27
ATOM     27  C   UNL     1       2.917   6.333  18.200  0.00  0.00    +0.000 C 
BRANCH  27  29
ATOM     28  C   UNL     1       1.836   4.247  18.107  0.00  0.00    +0.000 C 
ATOM     29  O   UNL     1       2.278   5.302  18.948  0.00  0.00    +0.000 OA
ENDBRANCH  27  29
ENDBRANCH   1  27
TORSDOF 3
ENDMDL
MODEL 6
REMARK VINA RESULT:      -7.0      3.260      8.794
REMARK  Name = 
REMARK  4 active torsions:
REMARK  status: ('A' for Active; 'I' for Inactive)
REMARK    1  A    between atoms: C_1  and  O_2
REMARK    2  A    between atoms: O_2  and  C_3
REMARK    3  A    between atoms: C_3  and  C_4
REMARK    4  A    between atoms: N_12  and  C_13
REMARK                            x       y       z     vdW  Elec       q    Type
REMARK                         _______ _______ _______ _____ _____    ______ ____
ROOT
ATOM      1  C   UNL     1       2.355   7.485  19.029  0.00  0.00    +0.000 A 
ATOM      2  C   UNL     1       2.155   8.361  17.956  0.00  0.00    +0.000 A 
ATOM      3  C   UNL     1       1.482   9.541  18.191  0.00  0.00    +0.000 A 
ATOM      4  N   UNL     1       0.992   9.883  19.396  0.00  0.00    +0.000 NA
ATOM      5  C   UNL     1       1.211   9.052  20.436  0.00  0.00    +0.000 A 
ATOM      6  N   UNL     1       0.728   9.420  21.694  0.00  0.00    +0.000 N 
ATOM      7  C   UNL     1      -0.133  10.453  21.986  0.00  0.00    +0.000 C 
ATOM      8  O   UNL     1      -0.373  10.710  23.157  0.00  0.00    +0.000 OA
ATOM      9  N   UNL     1      -0.735  11.037  20.901  0.00  0.00    +0.000 N 
ATOM     10  C   UNL     1       1.883   7.849  20.297  0.00  0.00    +0.000 A 
ATOM     11  H   UNL     1       1.019   8.891  22.500  0.00  0.00    +0.000 HD
ATOM     12  H   UNL     1      -0.626  10.509  20.047  0.00  0.00    +0.000 HD
ENDROOT
BRANCH   9  13
ATOM     13  C   UNL     1      -1.753  11.986  20.992  0.00  0.00    +0.000 A 
ATOM     14  C   UNL     1      -1.717  12.939  22.014  0.00  0.00    +0.000 A 
ATOM     15  C   UNL     1      -2.744  13.883  22.152  0.00  0.00    +0.000 A 
ATOM     16  C   UNL     1      -3.821  13.892  21.267  0.00  0.00    +0.000 A 
ATOM     17  C   UNL     1      -3.800  12.977  20.230  0.00  0.00    +0.000 A 
ATOM     18  C   UNL     1      -2.781  12.030  20.066  0.00  0.00    +0.000 A 
ATOM     19  C   UNL     1      -3.160  11.113  18.948  0.00  0.00    +0.000 C 
ATOM     20  C   UNL     1      -2.110  10.726  17.917  0.00  0.00    +0.000 C 
ATOM     21  C   UNL     1      -2.805   9.908  16.827  0.00  0.00    +0.000 C 
ATOM     22  C   UNL     1      -3.802  10.811  16.103  0.00  0.00    +0.000 C 
ATOM     23  C   UNL     1      -4.851  11.371  17.069  0.00  0.00    +0.000 C 
ATOM     24  N   UNL     1      -4.248  11.840  18.305  0.00  0.00    +0.000 N 
ATOM     25  C   UNL     1      -4.766  12.823  19.128  0.00  0.00    +0.000 C 
ATOM     26  O   UNL     1      -5.780  13.473  18.985  0.00  0.00    +0.000 OA
ENDBRANCH   9  13
BRANCH   1  27
ATOM     27  C   UNL     1       3.062   6.176  18.831  0.00  0.00    +0.000 C 
BRANCH  27  29
ATOM     28  C   UNL     1       4.672   5.378  17.315  0.00  0.00    +0.000 C 
ATOM     29  O   UNL     1       3.449   6.085  17.463  0.00  0.00    +0.000 OA
ENDBRANCH  27  29
ENDBRANCH   1  27
TORSDOF 3
ENDMDL
MODEL 7
REMARK VINA RESULT:      -6.9      2.151      7.574
REMARK  Name = 
REMARK  4 active torsions:
REMARK  status: ('A' for Active; 'I' for Inactive)
REMARK    1  A    between atoms: C_1  and  O_2
REMARK    2  A    between atoms: O_2  and  C_3
REMARK    3  A    between atoms: C_3  and  C_4
REMARK    4  A    between atoms: N_12  and  C_13
REMARK                            x       y       z     vdW  Elec       q    Type
REMARK                         _______ _______ _______ _____ _____    ______ ____
ROOT
ATOM      1  C   UNL     1       3.980   4.835  18.438  0.00  0.00    +0.000 A 
ATOM      2  C   UNL     1       2.718   4.270  18.225  0.00  0.00    +0.000 A 
ATOM      3  C   UNL     1       1.672   5.109  17.902  0.00  0.00    +0.000 A 
ATOM      4  N   UNL     1       1.802   6.443  17.800  0.00  0.00    +0.000 NA
ATOM      5  C   UNL     1       3.025   6.984  17.976  0.00  0.00    +0.000 A 
ATOM      6  N   UNL     1       3.167   8.367  17.842  0.00  0.00    +0.000 N 
ATOM      7  C   UNL     1       2.162   9.301  17.741  0.00  0.00    +0.000 C 
ATOM      8  O   UNL     1       2.456  10.467  17.518  0.00  0.00    +0.000 OA
ATOM      9  N   UNL     1       0.900   8.835  18.014  0.00  0.00    +0.000 N 
ATOM     10  C   UNL     1       4.135   6.220  18.297  0.00  0.00    +0.000 A 
ATOM     11  H   UNL     1       4.094   8.760  17.815  0.00  0.00    +0.000 HD
ATOM     12  H   UNL     1       0.894   7.923  18.447  0.00  0.00    +0.000 HD
ENDROOT
BRANCH   9  13
ATOM     13  C   UNL     1      -0.225   9.652  18.122  0.00  0.00    +0.000 A 
ATOM     14  C   UNL     1      -1.020   9.882  16.996  0.00  0.00    +0.000 A 
ATOM     15  C   UNL     1      -2.137  10.726  17.065  0.00  0.00    +0.000 A 
ATOM     16  C   UNL     1      -2.480  11.349  18.264  0.00  0.00    +0.000 A 
ATOM     17  C   UNL     1      -1.711  11.057  19.375  0.00  0.00    +0.000 A 
ATOM     18  C   UNL     1      -0.596  10.210  19.333  0.00  0.00    +0.000 A 
ATOM     19  C   UNL     1       0.081  10.248  20.666  0.00  0.00    +0.000 C 
ATOM     20  C   UNL     1       0.556   8.946  21.295  0.00  0.00    +0.000 C 
ATOM     21  C   UNL     1       1.072   9.267  22.698  0.00  0.00    +0.000 C 
ATOM     22  C   UNL     1      -0.101   9.748  23.549  0.00  0.00    +0.000 C 
ATOM     23  C   UNL     1      -0.752  10.998  22.946  0.00  0.00    +0.000 C 
ATOM     24  N   UNL     1      -0.932  10.871  21.511  0.00  0.00    +0.000 N 
ATOM     25  C   UNL     1      -1.897  11.518  20.763  0.00  0.00    +0.000 C 
ATOM     26  O   UNL     1      -2.760  12.284  21.139  0.00  0.00    +0.000 OA
ENDBRANCH   9  13
BRANCH   1  27
ATOM     27  C   UNL     1       5.153   3.977  18.815  0.00  0.00    +0.000 C 
BRANCH  27  29
ATOM     28  C   UNL     1       7.249   4.648  17.987  0.00  0.00    +0.000 C 
ATOM     29  O   UNL     1       6.279   4.828  19.008  0.00  0.00    +0.000 OA
ENDBRANCH  27  29
ENDBRANCH   1  27
TORSDOF 3
ENDMDL
MODEL 8
REMARK VINA RESULT:      -6.9      3.956      8.923
REMARK  Name = 
REMARK  4 active torsions:
REMARK  status: ('A' for Active; 'I' for Inactive)
REMARK    1  A    between atoms: C_1  and  O_2
REMARK    2  A    between atoms: O_2  and  C_3
REMARK    3  A    between atoms: C_3  and  C_4
REMARK    4  A    between atoms: N_12  and  C_13
REMARK                            x       y       z     vdW  Elec       q    Type
REMARK                         _______ _______ _______ _____ _____    ______ ____
ROOT
ATOM      1  C   UNL     1       6.445   2.748  12.072  0.00  0.00    +0.000 A 
ATOM      2  C   UNL     1       5.089   2.978  11.815  0.00  0.00    +0.000 A 
ATOM      3  C   UNL     1       4.419   3.891  12.602  0.00  0.00    +0.000 A 
ATOM      4  N   UNL     1       5.000   4.556  13.616  0.00  0.00    +0.000 NA
ATOM      5  C   UNL     1       6.314   4.356  13.845  0.00  0.00    +0.000 A 
ATOM      6  N   UNL     1       6.926   5.067  14.879  0.00  0.00    +0.000 N 
ATOM      7  C   UNL     1       6.307   5.824  15.849  0.00  0.00    +0.000 C 
ATOM      8  O   UNL     1       6.996   6.476  16.621  0.00  0.00    +0.000 OA
ATOM      9  N   UNL     1       4.944   5.682  15.920  0.00  0.00    +0.000 N 
ATOM     10  C   UNL     1       7.070   3.464  13.101  0.00  0.00    +0.000 A 
ATOM     11  H   UNL     1       7.930   5.046  14.958  0.00  0.00    +0.000 HD
ATOM     12  H   UNL     1       4.594   4.897  15.392  0.00  0.00    +0.000 HD
ENDROOT
BRANCH   9  13
ATOM     13  C   UNL     1       4.156   6.235  16.929  0.00  0.00    +0.000 A 
ATOM     14  C   UNL     1       3.848   7.598  16.894  0.00  0.00    +0.000 A 
ATOM     15  C   UNL     1       3.087   8.189  17.912  0.00  0.00    +0.000 A 
ATOM     16  C   UNL     1       2.618   7.424  18.980  0.00  0.00    +0.000 A 
ATOM     17  C   UNL     1       2.888   6.068  18.957  0.00  0.00    +0.000 A 
ATOM     18  C   UNL     1       3.638   5.453  17.947  0.00  0.00    +0.000 A 
ATOM     19  C   UNL     1       3.862   4.024  18.324  0.00  0.00    +0.000 C 
ATOM     20  C   UNL     1       3.693   2.942  17.267  0.00  0.00    +0.000 C 
ATOM     21  C   UNL     1       3.842   1.586  17.960  0.00  0.00    +0.000 C 
ATOM     22  C   UNL     1       2.684   1.411  18.940  0.00  0.00    +0.000 C 
ATOM     23  C   UNL     1       2.670   2.524  19.993  0.00  0.00    +0.000 C 
ATOM     24  N   UNL     1       2.895   3.830  19.398  0.00  0.00    +0.000 N 
ATOM     25  C   UNL     1       2.453   5.034  19.914  0.00  0.00    +0.000 C 
ATOM     26  O   UNL     1       1.805   5.234  20.920  0.00  0.00    +0.000 OA
ENDBRANCH   9  13
BRANCH   1  27
ATOM     27  C   UNL     1       7.223   1.750  11.264  0.00  0.00    +0.000 C 
BRANCH  27  29
ATOM     28  C   UNL     1       6.236  -0.382  11.356  0.00  0.00    +0.000 C 
ATOM     29  O   UNL     1       6.296   0.853  10.659  0.00  0.00    +0.000 OA
ENDBRANCH  27  29
ENDBRANCH   1  27
TORSDOF 3
ENDMDL
MODEL 9
REMARK VINA RESULT:      -6.9      2.733      7.940
REMARK  Name = 
REMARK  4 active torsions:
REMARK  status: ('A' for Active; 'I' for Inactive)
REMARK    1  A    between atoms: C_1  and  O_2
REMARK    2  A    between atoms: O_2  and  C_3
REMARK    3  A    between atoms: C_3  and  C_4
REMARK    4  A    between atoms: N_12  and  C_13
REMARK                            x       y       z     vdW  Elec       q    Type
REMARK                         _______ _______ _______ _____ _____    ______ ____
ROOT
ATOM      1  C   UNL     1       3.576   5.248  19.142  0.00  0.00    +0.000 A 
ATOM      2  C   UNL     1       2.613   5.073  20.142  0.00  0.00    +0.000 A 
ATOM      3  C   UNL     1       1.700   6.084  20.356  0.00  0.00    +0.000 A 
ATOM      4  N   UNL     1       1.701   7.236  19.664  0.00  0.00    +0.000 NA
ATOM      5  C   UNL     1       2.610   7.393  18.679  0.00  0.00    +0.000 A 
ATOM      6  N   UNL     1       2.594   8.577  17.940  0.00  0.00    +0.000 N 
ATOM      7  C   UNL     1       1.878   9.720  18.214  0.00  0.00    +0.000 C 
ATOM      8  O   UNL     1       1.890  10.636  17.404  0.00  0.00    +0.000 OA
ATOM      9  N   UNL     1       1.293   9.761  19.455  0.00  0.00    +0.000 N 
ATOM     10  C   UNL     1       3.561   6.429  18.388  0.00  0.00    +0.000 A 
ATOM     11  H   UNL     1       3.159   8.640  17.108  0.00  0.00    +0.000 HD
ATOM     12  H   UNL     1       1.626   9.041  20.080  0.00  0.00    +0.000 HD
ENDROOT
BRANCH   9  13
ATOM     13  C   UNL     1       0.664  10.887  19.983  0.00  0.00    +0.000 A 
ATOM     14  C   UNL     1       1.369  11.728  20.849  0.00  0.00    +0.000 A 
ATOM     15  C   UNL     1       0.753  12.849  21.423  0.00  0.00    +0.000 A 
ATOM     16  C   UNL     1      -0.578  13.148  21.137  0.00  0.00    +0.000 A 
ATOM     17  C   UNL     1      -1.233  12.333  20.232  0.00  0.00    +0.000 A 
ATOM     18  C   UNL     1      -0.636  11.214  19.638  0.00  0.00    +0.000 A 
ATOM     19  C   UNL     1      -1.674  10.485  18.846  0.00  0.00    +0.000 C 
ATOM     20  C   UNL     1      -1.324   9.974  17.456  0.00  0.00    +0.000 C 
ATOM     21  C   UNL     1      -2.600   9.406  16.833  0.00  0.00    +0.000 C 
ATOM     22  C   UNL     1      -3.593  10.547  16.631  0.00  0.00    +0.000 C 
ATOM     23  C   UNL     1      -3.935  11.232  17.959  0.00  0.00    +0.000 C 
ATOM     24  N   UNL     1      -2.748  11.468  18.763  0.00  0.00    +0.000 N 
ATOM     25  C   UNL     1      -2.604  12.468  19.706  0.00  0.00    +0.000 C 
ATOM     26  O   UNL     1      -3.402  13.321  20.034  0.00  0.00    +0.000 OA
ENDBRANCH   9  13
BRANCH   1  27
ATOM     27  C   UNL     1       4.610   4.193  18.877  0.00  0.00    +0.000 C 
BRANCH  27  29
ATOM     28  C   UNL     1       6.769   4.853  18.219  0.00  0.00    +0.000 C 
ATOM     29  O   UNL     1       5.872   4.694  19.309  0.00  0.00    +0.000 OA
ENDBRANCH  27  29
ENDBRANCH   1  27
TORSDOF 3
ENDMDL
