MODEL 1
REMARK VINA RESULT:      -8.0      0.000      0.000
REMARK  Name = 
REMARK  9 active torsions:
REMARK  status: ('A' for Active; 'I' for Inactive)
REMARK    1  A    between atoms: C_1  and  C_2
REMARK    2  A    between atoms: C_5  and  C_6
REMARK    3  A    between atoms: C_7  and  C_8
REMARK    4  A    between atoms: C_8  and  C_9
REMARK    5  A    between atoms: C_9  and  C_10
REMARK    6  A    between atoms: C_10  and  N_11
REMARK    7  A    between atoms: C_12  and  C_14
REMARK    8  A    between atoms: C_22  and  C_23
REMARK    9  A    between atoms: C_23  and  O_24
REMARK                            x       y       z     vdW  Elec       q    Type
REMARK                         _______ _______ _______ _____ _____    ______ ____
ROOT
ATOM      1  N   UNL     1       7.357   8.127  17.817  0.00  0.00    +0.000 N 
ATOM      2  C   UNL     1       7.140   6.963  17.103  0.00  0.00    +0.000 C 
ATOM      3  O   UNL     1       7.852   6.588  16.187  0.00  0.00    +0.000 OA
ATOM      4  H   UNL     1       6.824   8.317  18.652  0.00  0.00    +0.000 HD
ENDROOT
BRANCH   2   5
ATOM      5  C   UNL     1       5.968   6.150  17.497  0.00  0.00    +0.000 A 
ATOM      6  C   UNL     1       4.703   6.681  17.649  0.00  0.00    +0.000 A 
ATOM      7  C   UNL     1       3.657   5.824  17.956  0.00  0.00    +0.000 A 
ATOM      8  C   UNL     1       3.866   4.455  18.141  0.00  0.00    +0.000 A 
ATOM      9  N   UNL     1       2.817   3.657  18.487  0.00  0.00    +0.000 N 
ATOM     10  C   UNL     1       1.444   3.921  18.099  0.00  0.00    +0.000 C 
ATOM     11  C   UNL     1       0.670   3.207  19.188  0.00  0.00    +0.000 C 
ATOM     12  C   UNL     1       1.463   1.915  19.360  0.00  0.00    +0.000 C 
ATOM     13  C   UNL     1       2.941   2.315  19.083  0.00  0.00    +0.000 C 
ATOM     14  N   UNL     1       5.107   3.939  18.026  0.00  0.00    +0.000 NA
ATOM     15  C   UNL     1       6.120   4.778  17.676  0.00  0.00    +0.000 A 
BRANCH  13  16
ATOM     16  C   UNL     1       3.773   2.317  20.378  0.00  0.00    +0.000 C 
BRANCH  16  17
ATOM     17  O   UNL     1       5.068   1.751  20.167  0.00  0.00    +0.000 OA
ATOM     18  H   UNL     1       5.155   1.614  19.209  0.00  0.00    +0.000 HD
ENDBRANCH  16  17
ENDBRANCH  13  16
ENDBRANCH   2   5
BRANCH   1  19
ATOM     19  C   UNL     1       8.474   9.002  17.499  0.00  0.00    +0.000 C 
BRANCH  19  20
ATOM     20  C   UNL     1       8.757  10.021  18.609  0.00  0.00    +0.000 C 
BRANCH  20  21
ATOM     21  C   UNL     1       8.878  11.467  18.105  0.00  0.00    +0.000 C 
BRANCH  21  28
ATOM     22  C   UNL     1      11.357  13.204  16.839  0.00  0.00    +0.000 C 
ATOM     23  C   UNL     1      10.986  13.030  18.264  0.00  0.00    +0.000 A 
ATOM     24  N   UNL     1      11.711  13.644  19.203  0.00  0.00    +0.000 NA
ATOM     25  O   UNL     1      11.136  13.305  20.403  0.00  0.00    +0.000 OA
ATOM     26  C   UNL     1      10.065  12.493  20.190  0.00  0.00    +0.000 A 
ATOM     27  C   UNL     1       9.362  12.067  21.413  0.00  0.00    +0.000 C 
ATOM     28  C   UNL     1       9.916  12.272  18.832  0.00  0.00    +0.000 A 
ENDBRANCH  21  28
ENDBRANCH  20  21
ENDBRANCH  19  20
ENDBRANCH   1  19
TORSDOF 7
ENDMDL
MODEL 2
REMARK VINA RESULT:      -7.8      5.218      8.376
REMARK  Name = 
REMARK  9 active torsions:
REMARK  status: ('A' for Active; 'I' for Inactive)
REMARK    1  A    between atoms: C_1  and  C_2
REMARK    2  A    between atoms: C_5  and  C_6
REMARK    3  A    between atoms: C_7  and  C_8
REMARK    4  A    between atoms: C_8  and  C_9
REMARK    5  A    between atoms: C_9  and  C_10
REMARK    6  A    between atoms: C_10  and  N_11
REMARK    7  A    between atoms: C_12  and  C_14
REMARK    8  A    between atoms: C_22  and  C_23
REMARK    9  A    between atoms: C_23  and  O_24
REMARK                            x       y       z     vdW  Elec       q    Type
REMARK                         _______ _______ _______ _____ _____    ______ ____
ROOT
ATOM      1  N   UNL     1       2.258   5.159  18.379  0.00  0.00    +0.000 N 
ATOM      2  C   UNL     1       2.915   6.127  19.116  0.00  0.00    +0.000 C 
ATOM      3  O   UNL     1       4.071   6.023  19.491  0.00  0.00    +0.000 OA
ATOM      4  H   UNL     1       1.355   5.355  17.975  0.00  0.00    +0.000 HD
ENDROOT
BRANCH   2   5
ATOM      5  C   UNL     1       2.146   7.345  19.450  0.00  0.00    +0.000 A 
ATOM      6  C   UNL     1       1.475   7.505  20.646  0.00  0.00    +0.000 A 
ATOM      7  C   UNL     1       0.838   8.711  20.893  0.00  0.00    +0.000 A 
ATOM      8  C   UNL     1       0.838   9.743  19.951  0.00  0.00    +0.000 A 
ATOM      9  N   UNL     1       0.159  10.894  20.216  0.00  0.00    +0.000 N 
ATOM     10  C   UNL     1      -0.042  11.419  21.554  0.00  0.00    +0.000 C 
ATOM     11  C   UNL     1      -1.299  12.246  21.379  0.00  0.00    +0.000 C 
ATOM     12  C   UNL     1      -1.062  12.920  20.032  0.00  0.00    +0.000 C 
ATOM     13  C   UNL     1      -0.253  11.882  19.203  0.00  0.00    +0.000 C 
ATOM     14  N   UNL     1       1.464   9.577  18.767  0.00  0.00    +0.000 NA
ATOM     15  C   UNL     1       2.129   8.409  18.553  0.00  0.00    +0.000 A 
BRANCH  13  16
ATOM     16  C   UNL     1      -1.113  11.261  18.088  0.00  0.00    +0.000 C 
BRANCH  16  17
ATOM     17  O   UNL     1      -1.726  12.267  17.279  0.00  0.00    +0.000 OA
ATOM     18  H   UNL     1      -2.681  12.214  17.455  0.00  0.00    +0.000 HD
ENDBRANCH  16  17
ENDBRANCH  13  16
ENDBRANCH   2   5
BRANCH   1  19
ATOM     19  C   UNL     1       2.923   3.920  18.011  0.00  0.00    +0.000 C 
BRANCH  19  20
ATOM     20  C   UNL     1       3.726   4.047  16.711  0.00  0.00    +0.000 C 
BRANCH  20  21
ATOM     21  C   UNL     1       5.180   3.567  16.834  0.00  0.00    +0.000 C 
BRANCH  21  28
ATOM     22  C   UNL     1       5.879   3.787  13.635  0.00  0.00    +0.000 C 
ATOM     23  C   UNL     1       6.457   4.560  14.761  0.00  0.00    +0.000 A 
ATOM     24  N   UNL     1       7.383   5.489  14.503  0.00  0.00    +0.000 NA
ATOM     25  O   UNL     1       7.721   6.029  15.719  0.00  0.00    +0.000 OA
ATOM     26  C   UNL     1       7.002   5.432  16.708  0.00  0.00    +0.000 A 
ATOM     27  C   UNL     1       7.280   5.937  18.064  0.00  0.00    +0.000 C 
ATOM     28  C   UNL     1       6.171   4.471  16.158  0.00  0.00    +0.000 A 
ENDBRANCH  21  28
ENDBRANCH  20  21
ENDBRANCH  19  20
ENDBRANCH   1  19
TORSDOF 7
ENDMDL
MODEL 3
REMARK VINA RESULT:      -7.7      1.463      1.638
REMARK  Name = 
REMARK  9 active torsions:
REMARK  status: ('A' for Active; 'I' for Inactive)
REMARK    1  A    between atoms: C_1  and  C_2
REMARK    2  A    between atoms: C_5  and  C_6
REMARK    3  A    between atoms: C_7  and  C_8
REMARK    4  A    between atoms: C_8  and  C_9
REMARK    5  A    between atoms: C_9  and  C_10
REMARK    6  A    between atoms: C_10  and  N_11
REMARK    7  A    between atoms: C_12  and  C_14
REMARK    8  A    between atoms: C_22  and  C_23
REMARK    9  A    between atoms: C_23  and  O_24
REMARK                            x       y       z     vdW  Elec       q    Type
REMARK                         _______ _______ _______ _____ _____    ______ ____
ROOT
ATOM      1  N   UNL     1       7.189   7.861  17.824  0.00  0.00    +0.000 N 
ATOM      2  C   UNL     1       6.962   6.719  17.079  0.00  0.00    +0.000 C 
ATOM      3  O   UNL     1       7.648   6.383  16.129  0.00  0.00    +0.000 OA
ATOM      4  H   UNL     1       6.682   8.017  18.682  0.00  0.00    +0.000 HD
ENDROOT
BRANCH   2   5
ATOM      5  C   UNL     1       5.814   5.878  17.485  0.00  0.00    +0.000 A 
ATOM      6  C   UNL     1       5.064   5.147  16.586  0.00  0.00    +0.000 A 
ATOM      7  C   UNL     1       4.050   4.337  17.073  0.00  0.00    +0.000 A 
ATOM      8  C   UNL     1       3.759   4.273  18.438  0.00  0.00    +0.000 A 
ATOM      9  N   UNL     1       2.723   3.499  18.868  0.00  0.00    +0.000 N 
ATOM     10  C   UNL     1       2.287   2.292  18.191  0.00  0.00    +0.000 C 
ATOM     11  C   UNL     1       0.838   2.199  18.623  0.00  0.00    +0.000 C 
ATOM     12  C   UNL     1       0.911   2.586  20.097  0.00  0.00    +0.000 C 
ATOM     13  C   UNL     1       2.063   3.628  20.179  0.00  0.00    +0.000 C 
ATOM     14  N   UNL     1       4.469   5.011  19.316  0.00  0.00    +0.000 NA
ATOM     15  C   UNL     1       5.495   5.766  18.835  0.00  0.00    +0.000 A 
BRANCH  13  16
ATOM     16  C   UNL     1       1.520   5.046  20.431  0.00  0.00    +0.000 C 
BRANCH  16  17
ATOM     17  O   UNL     1       2.367   5.781  21.315  0.00  0.00    +0.000 OA
ATOM     18  H   UNL     1       2.211   6.721  21.126  0.00  0.00    +0.000 HD
ENDBRANCH  16  17
ENDBRANCH  13  16
ENDBRANCH   2   5
BRANCH   1  19
ATOM     19  C   UNL     1       8.284   8.761  17.498  0.00  0.00    +0.000 C 
BRANCH  19  20
ATOM     20  C   UNL     1       8.587   9.752  18.628  0.00  0.00    +0.000 C 
BRANCH  20  21
ATOM     21  C   UNL     1       9.905  10.518  18.442  0.00  0.00    +0.000 C 
BRANCH  21  28
ATOM     22  C   UNL     1      10.799  13.359  17.065  0.00  0.00    +0.000 C 
ATOM     23  C   UNL     1      10.281  13.120  18.433  0.00  0.00    +0.000 A 
ATOM     24  N   UNL     1      10.125  14.158  19.260  0.00  0.00    +0.000 NA
ATOM     25  O   UNL     1       9.635  13.636  20.431  0.00  0.00    +0.000 OA
ATOM     26  C   UNL     1       9.492  12.289  20.313  0.00  0.00    +0.000 A 
ATOM     27  C   UNL     1       8.965  11.617  21.515  0.00  0.00    +0.000 C 
ATOM     28  C   UNL     1       9.895  11.890  19.050  0.00  0.00    +0.000 A 
ENDBRANCH  21  28
ENDBRANCH  20  21
ENDBRANCH  19  20
ENDBRANCH   1  19
TORSDOF 7
ENDMDL
MODEL 4
REMARK VINA RESULT:      -7.7      5.261      8.150
REMARK  Name = 
REMARK  9 active torsions:
REMARK  status: ('A' for Active; 'I' for Inactive)
REMARK    1  A    between atoms: C_1  and  C_2
REMARK    2  A    between atoms: C_5  and  C_6
REMARK    3  A    between atoms: C_7  and  C_8
REMARK    4  A    between atoms: C_8  and  C_9
REMARK    5  A    between atoms: C_9  and  C_10
REMARK    6  A    between atoms: C_10  and  N_11
REMARK    7  A    between atoms: C_12  and  C_14
REMARK    8  A    between atoms: C_22  and  C_23
REMARK    9  A    between atoms: C_23  and  O_24
REMARK                            x       y       z     vdW  Elec       q    Type
REMARK                         _______ _______ _______ _____ _____    ______ ____
ROOT
ATOM      1  N   UNL     1       3.979   6.080  19.460  0.00  0.00    +0.000 N 
ATOM      2  C   UNL     1       2.722   6.113  20.034  0.00  0.00    +0.000 C 
ATOM      3  O   UNL     1       2.225   5.171  20.629  0.00  0.00    +0.000 OA
ATOM      4  H   UNL     1       4.398   6.927  19.106  0.00  0.00    +0.000 HD
ENDROOT
BRANCH   2   5
ATOM      5  C   UNL     1       1.963   7.376  19.902  0.00  0.00    +0.000 A 
ATOM      6  C   UNL     1       2.069   8.204  18.802  0.00  0.00    +0.000 A 
ATOM      7  C   UNL     1       1.265   9.332  18.742  0.00  0.00    +0.000 A 
ATOM      8  C   UNL     1       0.384   9.656  19.777  0.00  0.00    +0.000 A 
ATOM      9  N   UNL     1      -0.352  10.799  19.698  0.00  0.00    +0.000 N 
ATOM     10  C   UNL     1      -0.789  11.389  18.446  0.00  0.00    +0.000 C 
ATOM     11  C   UNL     1      -0.959  12.845  18.829  0.00  0.00    +0.000 C 
ATOM     12  C   UNL     1      -1.608  12.748  20.206  0.00  0.00    +0.000 C 
ATOM     13  C   UNL     1      -1.007  11.461  20.841  0.00  0.00    +0.000 C 
ATOM     14  N   UNL     1       0.303   8.867  20.868  0.00  0.00    +0.000 NA
ATOM     15  C   UNL     1       1.059   7.735  20.897  0.00  0.00    +0.000 A 
BRANCH  13  16
ATOM     16  C   UNL     1      -0.020  11.803  21.971  0.00  0.00    +0.000 C 
BRANCH  16  17
ATOM     17  O   UNL     1      -0.152  10.901  23.071  0.00  0.00    +0.000 OA
ATOM     18  H   UNL     1       0.269  10.070  22.795  0.00  0.00    +0.000 HD
ENDBRANCH  16  17
ENDBRANCH  13  16
ENDBRANCH   2   5
BRANCH   1  19
ATOM     19  C   UNL     1       4.800   4.882  19.523  0.00  0.00    +0.000 C 
BRANCH  19  20
ATOM     20  C   UNL     1       4.739   4.058  18.231  0.00  0.00    +0.000 C 
BRANCH  20  21
ATOM     21  C   UNL     1       4.534   4.905  16.967  0.00  0.00    +0.000 C 
BRANCH  21  28
ATOM     22  C   UNL     1       5.543   3.868  14.021  0.00  0.00    +0.000 C 
ATOM     23  C   UNL     1       6.233   4.781  14.964  0.00  0.00    +0.000 A 
ATOM     24  N   UNL     1       7.420   5.290  14.622  0.00  0.00    +0.000 NA
ATOM     25  O   UNL     1       7.803   6.087  15.673  0.00  0.00    +0.000 OA
ATOM     26  C   UNL     1       6.850   6.064  16.643  0.00  0.00    +0.000 A 
ATOM     27  C   UNL     1       7.152   6.891  17.825  0.00  0.00    +0.000 C 
ATOM     28  C   UNL     1       5.812   5.236  16.251  0.00  0.00    +0.000 A 
ENDBRANCH  21  28
ENDBRANCH  20  21
ENDBRANCH  19  20
ENDBRANCH   1  19
TORSDOF 7
ENDMDL
MODEL 5
REMARK VINA RESULT:      -7.7      4.832      7.915
REMARK  Name = 
REMARK  9 active torsions:
REMARK  status: ('A' for Active; 'I' for Inactive)
REMARK    1  A    between atoms: C_1  and  C_2
REMARK    2  A    between atoms: C_5  and  C_6
REMARK    3  A    between atoms: C_7  and  C_8
REMARK    4  A    between atoms: C_8  and  C_9
REMARK    5  A    between atoms: C_9  and  C_10
REMARK    6  A    between atoms: C_10  and  N_11
REMARK    7  A    between atoms: C_12  and  C_14
REMARK    8  A    between atoms: C_22  and  C_23
REMARK    9  A    between atoms: C_23  and  O_24
REMARK                            x       y       z     vdW  Elec       q    Type
REMARK                         _______ _______ _______ _____ _____    ______ ____
ROOT
ATOM      1  N   UNL     1       2.429   4.277  18.232  0.00  0.00    +0.000 N 
ATOM      2  C   UNL     1       3.066   5.052  19.184  0.00  0.00    +0.000 C 
ATOM      3  O   UNL     1       4.156   4.782  19.658  0.00  0.00    +0.000 OA
ATOM      4  H   UNL     1       1.599   4.618  17.772  0.00  0.00    +0.000 HD
ENDROOT
BRANCH   2   5
ATOM      5  C   UNL     1       2.357   6.271  19.631  0.00  0.00    +0.000 A 
ATOM      6  C   UNL     1       1.733   6.369  20.859  0.00  0.00    +0.000 A 
ATOM      7  C   UNL     1       1.154   7.578  21.213  0.00  0.00    +0.000 A 
ATOM      8  C   UNL     1       1.163   8.674  20.346  0.00  0.00    +0.000 A 
ATOM      9  N   UNL     1       0.541   9.828  20.717  0.00  0.00    +0.000 N 
ATOM     10  C   UNL     1       0.406  10.262  22.095  0.00  0.00    +0.000 C 
ATOM     11  C   UNL     1      -0.822  11.146  22.024  0.00  0.00    +0.000 C 
ATOM     12  C   UNL     1      -0.604  11.906  20.720  0.00  0.00    +0.000 C 
ATOM     13  C   UNL     1       0.135  10.901  19.791  0.00  0.00    +0.000 C 
ATOM     14  N   UNL     1       1.743   8.571  19.132  0.00  0.00    +0.000 NA
ATOM     15  C   UNL     1       2.353   7.397  18.812  0.00  0.00    +0.000 A 
BRANCH  13  16
ATOM     16  C   UNL     1      -0.786  10.394  18.667  0.00  0.00    +0.000 C 
BRANCH  16  17
ATOM     17  O   UNL     1      -0.063  10.183  17.453  0.00  0.00    +0.000 OA
ATOM     18  H   UNL     1       0.529   9.429  17.616  0.00  0.00    +0.000 HD
ENDBRANCH  16  17
ENDBRANCH  13  16
ENDBRANCH   2   5
BRANCH   1  19
ATOM     19  C   UNL     1       3.037   3.053  17.737  0.00  0.00    +0.000 C 
BRANCH  19  20
ATOM     20  C   UNL     1       4.378   3.302  17.038  0.00  0.00    +0.000 C 
BRANCH  20  21
ATOM     21  C   UNL     1       4.365   4.505  16.083  0.00  0.00    +0.000 C 
BRANCH  21  28
ATOM     22  C   UNL     1       6.141   3.789  13.418  0.00  0.00    +0.000 C 
ATOM     23  C   UNL     1       6.492   4.682  14.548  0.00  0.00    +0.000 A 
ATOM     24  N   UNL     1       7.668   5.316  14.534  0.00  0.00    +0.000 NA
ATOM     25  O   UNL     1       7.709   6.060  15.687  0.00  0.00    +0.000 OA
ATOM     26  C   UNL     1       6.561   5.879  16.395  0.00  0.00    +0.000 A 
ATOM     27  C   UNL     1       6.490   6.636  17.658  0.00  0.00    +0.000 C 
ATOM     28  C   UNL     1       5.735   4.999  15.718  0.00  0.00    +0.000 A 
ENDBRANCH  21  28
ENDBRANCH  20  21
ENDBRANCH  19  20
ENDBRANCH   1  19
TORSDOF 7
ENDMDL
MODEL 6
REMARK VINA RESULT:      -7.6      5.885      8.483
REMARK  Name = 
REMARK  9 active torsions:
REMARK  status: ('A' for Active; 'I' for Inactive)
REMARK    1  A    between atoms: C_1  and  C_2
REMARK    2  A    between atoms: C_5  and  C_6
REMARK    3  A    between atoms: C_7  and  C_8
REMARK    4  A    between atoms: C_8  and  C_9
REMARK    5  A    between atoms: C_9  and  C_10
REMARK    6  A    between atoms: C_10  and  N_11
REMARK    7  A    between atoms: C_12  and  C_14
REMARK    8  A    between atoms: C_22  and  C_23
REMARK    9  A    between atoms: C_23  and  O_24
REMARK                            x       y       z     vdW  Elec       q    Type
REMARK                         _______ _______ _______ _____ _____    ______ ____
ROOT
ATOM      1  N   UNL     1       2.454   6.454  18.812  0.00  0.00    +0.000 N 
ATOM      2  C   UNL     1       2.534   7.763  18.372  0.00  0.00    +0.000 C 
ATOM      3  O   UNL     1       3.326   8.146  17.528  0.00  0.00    +0.000 OA
ATOM      4  H   UNL     1       1.691   6.163  19.403  0.00  0.00    +0.000 HD
ENDROOT
BRANCH   2   5
ATOM      5  C   UNL     1       1.590   8.727  18.980  0.00  0.00    +0.000 A 
ATOM      6  C   UNL     1       1.162   8.634  20.289  0.00  0.00    +0.000 A 
ATOM      7  C   UNL     1       0.329   9.625  20.786  0.00  0.00    +0.000 A 
ATOM      8  C   UNL     1      -0.102  10.685  19.984  0.00  0.00    +0.000 A 
ATOM      9  N   UNL     1      -0.957  11.612  20.500  0.00  0.00    +0.000 N 
ATOM     10  C   UNL     1      -0.993  11.979  21.904  0.00  0.00    +0.000 C 
ATOM     11  C   UNL     1      -2.415  12.478  22.059  0.00  0.00    +0.000 C 
ATOM     12  C   UNL     1      -2.622  13.279  20.777  0.00  0.00    +0.000 C 
ATOM     13  C   UNL     1      -1.785  12.533  19.701  0.00  0.00    +0.000 C 
ATOM     14  N   UNL     1       0.289  10.761  18.695  0.00  0.00    +0.000 NA
ATOM     15  C   UNL     1       1.146   9.811  18.229  0.00  0.00    +0.000 A 
BRANCH  13  16
ATOM     16  C   UNL     1      -2.690  11.794  18.698  0.00  0.00    +0.000 C 
BRANCH  16  17
ATOM     17  O   UNL     1      -2.248  11.988  17.354  0.00  0.00    +0.000 OA
ATOM     18  H   UNL     1      -1.276  11.982  17.382  0.00  0.00    +0.000 HD
ENDBRANCH  16  17
ENDBRANCH  13  16
ENDBRANCH   2   5
BRANCH   1  19
ATOM     19  C   UNL     1       3.346   5.433  18.286  0.00  0.00    +0.000 C 
BRANCH  19  20
ATOM     20  C   UNL     1       4.650   5.323  19.085  0.00  0.00    +0.000 C 
BRANCH  20  21
ATOM     21  C   UNL     1       5.712   4.437  18.416  0.00  0.00    +0.000 C 
BRANCH  21  28
ATOM     22  C   UNL     1       5.652   3.825  15.192  0.00  0.00    +0.000 C 
ATOM     23  C   UNL     1       6.428   4.857  15.921  0.00  0.00    +0.000 A 
ATOM     24  N   UNL     1       7.219   5.683  15.230  0.00  0.00    +0.000 NA
ATOM     25  O   UNL     1       7.794   6.516  16.158  0.00  0.00    +0.000 OA
ATOM     26  C   UNL     1       7.352   6.196  17.404  0.00  0.00    +0.000 A 
ATOM     27  C   UNL     1       7.903   7.032  18.487  0.00  0.00    +0.000 C 
ATOM     28  C   UNL     1       6.472   5.131  17.323  0.00  0.00    +0.000 A 
ENDBRANCH  21  28
ENDBRANCH  20  21
ENDBRANCH  19  20
ENDBRANCH   1  19
TORSDOF 7
ENDMDL
MODEL 7
REMARK VINA RESULT:      -7.6      1.501      2.175
REMARK  Name = 
REMARK  9 active torsions:
REMARK  status: ('A' for Active; 'I' for Inactive)
REMARK    1  A    between atoms: C_1  and  C_2
REMARK    2  A    between atoms: C_5  and  C_6
REMARK    3  A    between atoms: C_7  and  C_8
REMARK    4  A    between atoms: C_8  and  C_9
REMARK    5  A    between atoms: C_9  and  C_10
REMARK    6  A    between atoms: C_10  and  N_11
REMARK    7  A    between atoms: C_12  and  C_14
REMARK    8  A    between atoms: C_22  and  C_23
REMARK    9  A    between atoms: C_23  and  O_24
REMARK                            x       y       z     vdW  Elec       q    Type
REMARK                         _______ _______ _______ _____ _____    ______ ____
ROOT
ATOM      1  N   UNL     1       7.302   7.883  17.917  0.00  0.00    +0.000 N 
ATOM      2  C   UNL     1       7.014   6.778  17.139  0.00  0.00    +0.000 C 
ATOM      3  O   UNL     1       7.643   6.472  16.139  0.00  0.00    +0.000 OA
ATOM      4  H   UNL     1       6.845   8.011  18.807  0.00  0.00    +0.000 HD
ENDROOT
BRANCH   2   5
ATOM      5  C   UNL     1       5.874   5.940  17.570  0.00  0.00    +0.000 A 
ATOM      6  C   UNL     1       4.841   5.586  16.724  0.00  0.00    +0.000 A 
ATOM      7  C   UNL     1       3.852   4.741  17.205  0.00  0.00    +0.000 A 
ATOM      8  C   UNL     1       3.867   4.274  18.522  0.00  0.00    +0.000 A 
ATOM      9  N   UNL     1       2.850   3.484  18.965  0.00  0.00    +0.000 N 
ATOM     10  C   UNL     1       2.098   2.586  18.108  0.00  0.00    +0.000 C 
ATOM     11  C   UNL     1       0.785   2.469  18.855  0.00  0.00    +0.000 C 
ATOM     12  C   UNL     1       1.242   2.369  20.307  0.00  0.00    +0.000 C 
ATOM     13  C   UNL     1       2.526   3.243  20.382  0.00  0.00    +0.000 C 
ATOM     14  N   UNL     1       4.857   4.646  19.359  0.00  0.00    +0.000 NA
ATOM     15  C   UNL     1       5.851   5.435  18.866  0.00  0.00    +0.000 A 
BRANCH  13  16
ATOM     16  C   UNL     1       2.271   4.547  21.160  0.00  0.00    +0.000 C 
BRANCH  16  17
ATOM     17  O   UNL     1       1.748   5.569  20.310  0.00  0.00    +0.000 OA
ATOM     18  H   UNL     1       1.130   6.087  20.853  0.00  0.00    +0.000 HD
ENDBRANCH  16  17
ENDBRANCH  13  16
ENDBRANCH   2   5
BRANCH   1  19
ATOM     19  C   UNL     1       8.395   8.777  17.572  0.00  0.00    +0.000 C 
BRANCH  19  20
ATOM     20  C   UNL     1       8.452  10.015  18.475  0.00  0.00    +0.000 C 
BRANCH  20  21
ATOM     21  C   UNL     1       9.877  10.523  18.741  0.00  0.00    +0.000 C 
BRANCH  21  28
ATOM     22  C   UNL     1       9.008  11.973  21.554  0.00  0.00    +0.000 C 
ATOM     23  C   UNL     1       9.564  12.595  20.328  0.00  0.00    +0.000 A 
ATOM     24  N   UNL     1       9.770  13.915  20.307  0.00  0.00    +0.000 NA
ATOM     25  O   UNL     1      10.285  14.195  19.065  0.00  0.00    +0.000 OA
ATOM     26  C   UNL     1      10.392  13.049  18.339  0.00  0.00    +0.000 A 
ATOM     27  C   UNL     1      10.940  13.228  16.983  0.00  0.00    +0.000 C 
ATOM     28  C   UNL     1       9.939  11.981  19.094  0.00  0.00    +0.000 A 
ENDBRANCH  21  28
ENDBRANCH  20  21
ENDBRANCH  19  20
ENDBRANCH   1  19
TORSDOF 7
ENDMDL
MODEL 8
REMARK VINA RESULT:      -7.5      5.282      8.301
REMARK  Name = 
REMARK  9 active torsions:
REMARK  status: ('A' for Active; 'I' for Inactive)
REMARK    1  A    between atoms: C_1  and  C_2
REMARK    2  A    between atoms: C_5  and  C_6
REMARK    3  A    between atoms: C_7  and  C_8
REMARK    4  A    between atoms: C_8  and  C_9
REMARK    5  A    between atoms: C_9  and  C_10
REMARK    6  A    between atoms: C_10  and  N_11
REMARK    7  A    between atoms: C_12  and  C_14
REMARK    8  A    between atoms: C_22  and  C_23
REMARK    9  A    between atoms: C_23  and  O_24
REMARK                            x       y       z     vdW  Elec       q    Type
REMARK                         _______ _______ _______ _____ _____    ______ ____
ROOT
ATOM      1  N   UNL     1       3.056   5.624  18.795  0.00  0.00    +0.000 N 
ATOM      2  C   UNL     1       3.346   6.871  18.275  0.00  0.00    +0.000 C 
ATOM      3  O   UNL     1       4.334   7.110  17.601  0.00  0.00    +0.000 OA
ATOM      4  H   UNL     1       2.160   5.448  19.222  0.00  0.00    +0.000 HD
ENDROOT
BRANCH   2   5
ATOM      5  C   UNL     1       2.385   7.956  18.572  0.00  0.00    +0.000 A 
ATOM      6  C   UNL     1       2.100   8.971  17.681  0.00  0.00    +0.000 A 
ATOM      7  C   UNL     1       1.133   9.903  18.025  0.00  0.00    +0.000 A 
ATOM      8  C   UNL     1       0.474   9.850  19.256  0.00  0.00    +0.000 A 
ATOM      9  N   UNL     1      -0.435  10.814  19.572  0.00  0.00    +0.000 N 
ATOM     10  C   UNL     1      -1.237  11.517  18.587  0.00  0.00    +0.000 C 
ATOM     11  C   UNL     1      -1.546  12.814  19.306  0.00  0.00    +0.000 C 
ATOM     12  C   UNL     1      -1.837  12.341  20.726  0.00  0.00    +0.000 C 
ATOM     13  C   UNL     1      -0.907  11.113  20.936  0.00  0.00    +0.000 C 
ATOM     14  N   UNL     1       0.774   8.878  20.142  0.00  0.00    +0.000 NA
ATOM     15  C   UNL     1       1.688   7.938  19.776  0.00  0.00    +0.000 A 
BRANCH  13  16
ATOM     16  C   UNL     1       0.245  11.440  21.902  0.00  0.00    +0.000 C 
BRANCH  16  17
ATOM     17  O   UNL     1       0.458  10.384  22.840  0.00  0.00    +0.000 OA
ATOM     18  H   UNL     1       1.392  10.437  23.104  0.00  0.00    +0.000 HD
ENDBRANCH  16  17
ENDBRANCH  13  16
ENDBRANCH   2   5
BRANCH   1  19
ATOM     19  C   UNL     1       3.944   4.495  18.571  0.00  0.00    +0.000 C 
BRANCH  19  20
ATOM     20  C   UNL     1       3.811   3.911  17.159  0.00  0.00    +0.000 C 
BRANCH  20  21
ATOM     21  C   UNL     1       5.097   3.255  16.637  0.00  0.00    +0.000 C 
BRANCH  21  28
ATOM     22  C   UNL     1       7.390   5.300  17.791  0.00  0.00    +0.000 C 
ATOM     23  C   UNL     1       6.981   5.072  16.384  0.00  0.00    +0.000 A 
ATOM     24  N   UNL     1       7.595   5.751  15.411  0.00  0.00    +0.000 NA
ATOM     25  O   UNL     1       7.017   5.333  14.238  0.00  0.00    +0.000 OA
ATOM     26  C   UNL     1       6.058   4.403  14.500  0.00  0.00    +0.000 A 
ATOM     27  C   UNL     1       5.368   3.877  13.309  0.00  0.00    +0.000 C 
ATOM     28  C   UNL     1       5.981   4.192  15.866  0.00  0.00    +0.000 A 
ENDBRANCH  21  28
ENDBRANCH  20  21
ENDBRANCH  19  20
ENDBRANCH   1  19
TORSDOF 7
ENDMDL
MODEL 9
REMARK VINA RESULT:      -7.5      4.824      8.094
REMARK  Name = 
REMARK  9 active torsions:
REMARK  status: ('A' for Active; 'I' for Inactive)
REMARK    1  A    between atoms: C_1  and  C_2
REMARK    2  A    between atoms: C_5  and  C_6
REMARK    3  A    between atoms: C_7  and  C_8
REMARK    4  A    between atoms: C_8  and  C_9
REMARK    5  A    between atoms: C_9  and  C_10
REMARK    6  A    between atoms: C_10  and  N_11
REMARK    7  A    between atoms: C_12  and  C_14
REMARK    8  A    between atoms: C_22  and  C_23
REMARK    9  A    between atoms: C_23  and  O_24
REMARK                            x       y       z     vdW  Elec       q    Type
REMARK                         _______ _______ _______ _____ _____    ______ ____
ROOT
ATOM      1  N   UNL     1       2.647   4.854  18.437  0.00  0.00    +0.000 N 
ATOM      2  C   UNL     1       3.174   5.926  19.133  0.00  0.00    +0.000 C 
ATOM      3  O   UNL     1       4.219   5.876  19.761  0.00  0.00    +0.000 OA
ATOM      4  H   UNL     1       1.859   4.987  17.821  0.00  0.00    +0.000 HD
ENDROOT
BRANCH   2   5
ATOM      5  C   UNL     1       2.405   7.188  19.094  0.00  0.00    +0.000 A 
ATOM      6  C   UNL     1       2.185   7.897  17.930  0.00  0.00    +0.000 A 
ATOM      7  C   UNL     1       1.393   9.035  17.987  0.00  0.00    +0.000 A 
ATOM      8  C   UNL     1       0.847   9.485  19.192  0.00  0.00    +0.000 A 
ATOM      9  N   UNL     1       0.115  10.633  19.209  0.00  0.00    +0.000 N 
ATOM     10  C   UNL     1      -0.668  11.104  18.081  0.00  0.00    +0.000 C 
ATOM     11  C   UNL     1      -0.725  12.595  18.342  0.00  0.00    +0.000 C 
ATOM     12  C   UNL     1      -0.949  12.655  19.850  0.00  0.00    +0.000 C 
ATOM     13  C   UNL     1      -0.185  11.424  20.416  0.00  0.00    +0.000 C 
ATOM     14  N   UNL     1       1.088   8.812  20.336  0.00  0.00    +0.000 NA
ATOM     15  C   UNL     1       1.825   7.670  20.264  0.00  0.00    +0.000 A 
BRANCH  13  16
ATOM     16  C   UNL     1       1.086  11.852  21.172  0.00  0.00    +0.000 C 
BRANCH  16  17
ATOM     17  O   UNL     1       1.942  12.645  20.349  0.00  0.00    +0.000 OA
ATOM     18  H   UNL     1       2.681  12.069  20.089  0.00  0.00    +0.000 HD
ENDBRANCH  16  17
ENDBRANCH  13  16
ENDBRANCH   2   5
BRANCH   1  19
ATOM     19  C   UNL     1       3.320   3.566  18.423  0.00  0.00    +0.000 C 
BRANCH  19  20
ATOM     20  C   UNL     1       4.408   3.482  17.346  0.00  0.00    +0.000 C 
BRANCH  20  21
ATOM     21  C   UNL     1       4.356   4.627  16.324  0.00  0.00    +0.000 C 
BRANCH  21  28
ATOM     22  C   UNL     1       5.845   3.790  13.521  0.00  0.00    +0.000 C 
ATOM     23  C   UNL     1       6.339   4.682  14.598  0.00  0.00    +0.000 A 
ATOM     24  N   UNL     1       7.537   5.259  14.464  0.00  0.00    +0.000 NA
ATOM     25  O   UNL     1       7.718   6.016  15.595  0.00  0.00    +0.000 OA
ATOM     26  C   UNL     1       6.633   5.900  16.408  0.00  0.00    +0.000 A 
ATOM     27  C   UNL     1       6.713   6.677  17.658  0.00  0.00    +0.000 C 
ATOM     28  C   UNL     1       5.708   5.050  15.826  0.00  0.00    +0.000 A 
ENDBRANCH  21  28
ENDBRANCH  20  21
ENDBRANCH  19  20
ENDBRANCH   1  19
TORSDOF 7
ENDMDL
