MODEL 1
REMARK VINA RESULT:      -7.8      0.000      0.000
REMARK  Name = 
REMARK  3 active torsions:
REMARK  status: ('A' for Active; 'I' for Inactive)
REMARK    1  A    between atoms: C_1  and  C_2
REMARK    2  A    between atoms: C_6  and  C_7
REMARK    3  A    between atoms: C_13  and  C_14
REMARK                            x       y       z     vdW  Elec       q    Type
REMARK                         _______ _______ _______ _____ _____    ______ ____
ROOT
ATOM      1  C   UNL     1       2.068   7.953  19.398  0.00  0.00    +0.000 C 
ATOM      2  O   UNL     1       2.257   8.293  18.238  0.00  0.00    +0.000 OA
ATOM      3  N   UNL     1       2.538   6.811  20.003  0.00  0.00    +0.000 N 
ATOM      4  C   UNL     1       3.332   5.908  19.353  0.00  0.00    +0.000 A 
ATOM      5  N   UNL     1       3.673   4.727  19.807  0.00  0.00    +0.000 NA
ATOM      6  N   UNL     1       4.490   4.171  18.852  0.00  0.00    +0.000 NA
ATOM      7  C   UNL     1       4.643   5.052  17.863  0.00  0.00    +0.000 A 
ATOM      8  O   UNL     1       3.889   6.187  18.142  0.00  0.00    +0.000 OA
ATOM      9  H   UNL     1       2.214   6.527  20.915  0.00  0.00    +0.000 HD
ENDROOT
BRANCH   1  15
ATOM     10  C   UNL     1      -1.272  11.707  19.965  0.00  0.00    +0.000 C 
ATOM     11  C   UNL     1      -0.427  10.608  20.542  0.00  0.00    +0.000 A 
ATOM     12  C   UNL     1      -0.479  10.317  21.911  0.00  0.00    +0.000 A 
ATOM     13  C   UNL     1       0.286   9.280  22.443  0.00  0.00    +0.000 A 
ATOM     14  C   UNL     1       1.116   8.527  21.614  0.00  0.00    +0.000 A 
ATOM     15  C   UNL     1       1.193   8.815  20.245  0.00  0.00    +0.000 A 
ATOM     16  C   UNL     1       0.421   9.856  19.709  0.00  0.00    +0.000 A 
ENDBRANCH   1  15
BRANCH   7  17
ATOM     17  C   UNL     1       5.474   4.910  16.717  0.00  0.00    +0.000 C 
ATOM     18  C   UNL     1       6.605   5.622  16.613  0.00  0.00    +0.000 C 
ATOM     19  O   UNL     1       7.438   5.663  15.531  0.00  0.00    +0.000 OA
ATOM     20  C   UNL     1       7.064   4.800  14.459  0.00  0.00    +0.000 C 
ATOM     21  C   UNL     1       5.608   4.331  14.442  0.00  0.00    +0.000 C 
ATOM     22  O   UNL     1       5.011   4.083  15.717  0.00  0.00    +0.000 OA
ENDBRANCH   7  17
TORSDOF 2
ENDMDL
MODEL 2
REMARK VINA RESULT:      -7.8      0.445      1.451
REMARK  Name = 
REMARK  3 active torsions:
REMARK  status: ('A' for Active; 'I' for Inactive)
REMARK    1  A    between atoms: C_1  and  C_2
REMARK    2  A    between atoms: C_6  and  C_7
REMARK    3  A    between atoms: C_13  and  C_14
REMARK                            x       y       z     vdW  Elec       q    Type
REMARK                         _______ _______ _______ _____ _____    ______ ____
ROOT
ATOM      1  C   UNL     1       2.037   8.077  19.129  0.00  0.00    +0.000 C 
ATOM      2  O   UNL     1       2.242   8.355  17.955  0.00  0.00    +0.000 OA
ATOM      3  N   UNL     1       2.519   6.981  19.806  0.00  0.00    +0.000 N 
ATOM      4  C   UNL     1       3.342   6.059  19.222  0.00  0.00    +0.000 A 
ATOM      5  N   UNL     1       3.698   4.912  19.748  0.00  0.00    +0.000 NA
ATOM      6  N   UNL     1       4.543   4.321  18.841  0.00  0.00    +0.000 NA
ATOM      7  C   UNL     1       4.697   5.148  17.806  0.00  0.00    +0.000 A 
ATOM      8  O   UNL     1       3.916   6.280  18.007  0.00  0.00    +0.000 OA
ATOM      9  H   UNL     1       2.183   6.742  20.727  0.00  0.00    +0.000 HD
ENDROOT
BRANCH   1  15
ATOM     10  C   UNL     1      -0.119   9.527  23.467  0.00  0.00    +0.000 C 
ATOM     11  C   UNL     1       0.091   9.693  21.989  0.00  0.00    +0.000 A 
ATOM     12  C   UNL     1      -0.526  10.745  21.298  0.00  0.00    +0.000 A 
ATOM     13  C   UNL     1      -0.310  10.914  19.931  0.00  0.00    +0.000 A 
ATOM     14  C   UNL     1       0.519  10.032  19.239  0.00  0.00    +0.000 A 
ATOM     15  C   UNL     1       1.131   8.966  19.911  0.00  0.00    +0.000 A 
ATOM     16  C   UNL     1       0.916   8.797  21.287  0.00  0.00    +0.000 A 
ENDBRANCH   1  15
BRANCH   7  17
ATOM     17  C   UNL     1       5.552   4.959  16.684  0.00  0.00    +0.000 C 
ATOM     18  C   UNL     1       6.634   5.734  16.524  0.00  0.00    +0.000 C 
ATOM     19  O   UNL     1       7.477   5.732  15.450  0.00  0.00    +0.000 OA
ATOM     20  C   UNL     1       7.177   4.752  14.458  0.00  0.00    +0.000 C 
ATOM     21  C   UNL     1       5.757   4.184  14.473  0.00  0.00    +0.000 C 
ATOM     22  O   UNL     1       5.160   4.014  15.762  0.00  0.00    +0.000 OA
ENDBRANCH   7  17
TORSDOF 2
ENDMDL
MODEL 3
REMARK VINA RESULT:      -7.7      2.235      8.180
REMARK  Name = 
REMARK  3 active torsions:
REMARK  status: ('A' for Active; 'I' for Inactive)
REMARK    1  A    between atoms: C_1  and  C_2
REMARK    2  A    between atoms: C_6  and  C_7
REMARK    3  A    between atoms: C_13  and  C_14
REMARK                            x       y       z     vdW  Elec       q    Type
REMARK                         _______ _______ _______ _____ _____    ______ ____
ROOT
ATOM      1  C   UNL     1       3.934   6.497  18.311  0.00  0.00    +0.000 C 
ATOM      2  O   UNL     1       3.530   6.080  19.389  0.00  0.00    +0.000 OA
ATOM      3  N   UNL     1       3.457   7.590  17.626  0.00  0.00    +0.000 N 
ATOM      4  C   UNL     1       2.456   8.384  18.114  0.00  0.00    +0.000 A 
ATOM      5  N   UNL     1       1.841   9.330  17.448  0.00  0.00    +0.000 NA
ATOM      6  N   UNL     1       0.935   9.885  18.320  0.00  0.00    +0.000 NA
ATOM      7  C   UNL     1       1.057   9.275  19.500  0.00  0.00    +0.000 A 
ATOM      8  O   UNL     1       2.022   8.279  19.400  0.00  0.00    +0.000 OA
ATOM      9  H   UNL     1       3.738   7.779  16.676  0.00  0.00    +0.000 HD
ENDROOT
BRANCH   1  15
ATOM     10  C   UNL     1       5.831   4.177  14.239  0.00  0.00    +0.000 C 
ATOM     11  C   UNL     1       5.950   4.616  15.670  0.00  0.00    +0.000 A 
ATOM     12  C   UNL     1       7.120   4.360  16.396  0.00  0.00    +0.000 A 
ATOM     13  C   UNL     1       7.240   4.790  17.716  0.00  0.00    +0.000 A 
ATOM     14  C   UNL     1       6.192   5.476  18.328  0.00  0.00    +0.000 A 
ATOM     15  C   UNL     1       5.008   5.726  17.622  0.00  0.00    +0.000 A 
ATOM     16  C   UNL     1       4.887   5.296  16.292  0.00  0.00    +0.000 A 
ENDBRANCH   1  15
BRANCH   7  17
ATOM     17  C   UNL     1       0.365   9.597  20.700  0.00  0.00    +0.000 C 
ATOM     18  C   UNL     1      -0.404  10.693  20.761  0.00  0.00    +0.000 C 
ATOM     19  O   UNL     1      -1.037  11.176  21.870  0.00  0.00    +0.000 OA
ATOM     20  C   UNL     1      -0.893  10.368  23.037  0.00  0.00    +0.000 C 
ATOM     21  C   UNL     1       0.279   9.385  23.041  0.00  0.00    +0.000 C 
ATOM     22  O   UNL     1       0.597   8.779  21.785  0.00  0.00    +0.000 OA
ENDBRANCH   7  17
TORSDOF 2
ENDMDL
MODEL 4
REMARK VINA RESULT:      -7.7      2.259      8.204
REMARK  Name = 
REMARK  3 active torsions:
REMARK  status: ('A' for Active; 'I' for Inactive)
REMARK    1  A    between atoms: C_1  and  C_2
REMARK    2  A    between atoms: C_6  and  C_7
REMARK    3  A    between atoms: C_13  and  C_14
REMARK                            x       y       z     vdW  Elec       q    Type
REMARK                         _______ _______ _______ _____ _____    ______ ____
ROOT
ATOM      1  C   UNL     1       4.037   6.453  18.267  0.00  0.00    +0.000 C 
ATOM      2  O   UNL     1       3.707   6.068  19.380  0.00  0.00    +0.000 OA
ATOM      3  N   UNL     1       3.500   7.515  17.577  0.00  0.00    +0.000 N 
ATOM      4  C   UNL     1       2.516   8.308  18.097  0.00  0.00    +0.000 A 
ATOM      5  N   UNL     1       1.844   9.220  17.438  0.00  0.00    +0.000 NA
ATOM      6  N   UNL     1       0.982   9.789  18.345  0.00  0.00    +0.000 NA
ATOM      7  C   UNL     1       1.186   9.222  19.535  0.00  0.00    +0.000 A 
ATOM      8  O   UNL     1       2.161   8.239  19.410  0.00  0.00    +0.000 OA
ATOM      9  H   UNL     1       3.720   7.675  16.605  0.00  0.00    +0.000 HD
ENDROOT
BRANCH   1  15
ATOM     10  C   UNL     1       5.795   4.162  14.117  0.00  0.00    +0.000 C 
ATOM     11  C   UNL     1       5.958   4.581  15.550  0.00  0.00    +0.000 A 
ATOM     12  C   UNL     1       7.143   4.299  16.242  0.00  0.00    +0.000 A 
ATOM     13  C   UNL     1       7.303   4.710  17.564  0.00  0.00    +0.000 A 
ATOM     14  C   UNL     1       6.281   5.402  18.211  0.00  0.00    +0.000 A 
ATOM     15  C   UNL     1       5.083   5.677  17.540  0.00  0.00    +0.000 A 
ATOM     16  C   UNL     1       4.921   5.266  16.208  0.00  0.00    +0.000 A 
ENDBRANCH   1  15
BRANCH   7  17
ATOM     17  C   UNL     1       0.561   9.574  20.764  0.00  0.00    +0.000 C 
ATOM     18  C   UNL     1      -0.030   8.632  21.513  0.00  0.00    +0.000 C 
ATOM     19  O   UNL     1      -0.751   8.840  22.653  0.00  0.00    +0.000 OA
ATOM     20  C   UNL     1      -0.799  10.198  23.087  0.00  0.00    +0.000 C 
ATOM     21  C   UNL     1      -0.476  11.259  22.034  0.00  0.00    +0.000 C 
ATOM     22  O   UNL     1       0.533  10.914  21.081  0.00  0.00    +0.000 OA
ENDBRANCH   7  17
TORSDOF 2
ENDMDL
MODEL 5
REMARK VINA RESULT:      -7.6      5.803      6.978
REMARK  Name = 
REMARK  3 active torsions:
REMARK  status: ('A' for Active; 'I' for Inactive)
REMARK    1  A    between atoms: C_1  and  C_2
REMARK    2  A    between atoms: C_6  and  C_7
REMARK    3  A    between atoms: C_13  and  C_14
REMARK                            x       y       z     vdW  Elec       q    Type
REMARK                         _______ _______ _______ _____ _____    ______ ____
ROOT
ATOM      1  C   UNL     1       8.749   9.564  18.483  0.00  0.00    +0.000 C 
ATOM      2  O   UNL     1       8.113   9.801  17.464  0.00  0.00    +0.000 OA
ATOM      3  N   UNL     1       8.842   8.351  19.125  0.00  0.00    +0.000 N 
ATOM      4  C   UNL     1       8.234   7.221  18.654  0.00  0.00    +0.000 A 
ATOM      5  N   UNL     1       8.139   6.083  19.297  0.00  0.00    +0.000 NA
ATOM      6  N   UNL     1       7.481   5.222  18.453  0.00  0.00    +0.000 NA
ATOM      7  C   UNL     1       7.228   5.861  17.310  0.00  0.00    +0.000 A 
ATOM      8  O   UNL     1       7.684   7.170  17.409  0.00  0.00    +0.000 OA
ATOM      9  H   UNL     1       9.260   8.272  20.040  0.00  0.00    +0.000 HD
ENDROOT
BRANCH   1  15
ATOM     10  C   UNL     1      11.577  13.752  18.322  0.00  0.00    +0.000 C 
ATOM     11  C   UNL     1      10.800  12.726  19.095  0.00  0.00    +0.000 A 
ATOM     12  C   UNL     1      10.662  12.838  20.485  0.00  0.00    +0.000 A 
ATOM     13  C   UNL     1       9.919  11.899  21.199  0.00  0.00    +0.000 A 
ATOM     14  C   UNL     1       9.311  10.836  20.534  0.00  0.00    +0.000 A 
ATOM     15  C   UNL     1       9.452  10.699  19.148  0.00  0.00    +0.000 A 
ATOM     16  C   UNL     1      10.197  11.644  18.428  0.00  0.00    +0.000 A 
ENDBRANCH   1  15
BRANCH   7  17
ATOM     17  C   UNL     1       6.634   5.311  16.140  0.00  0.00    +0.000 C 
ATOM     18  C   UNL     1       5.465   4.660  16.219  0.00  0.00    +0.000 C 
ATOM     19  O   UNL     1       4.837   3.998  15.204  0.00  0.00    +0.000 OA
ATOM     20  C   UNL     1       5.491   4.089  13.940  0.00  0.00    +0.000 C 
ATOM     21  C   UNL     1       6.972   4.474  13.968  0.00  0.00    +0.000 C 
ATOM     22  O   UNL     1       7.359   5.415  14.972  0.00  0.00    +0.000 OA
ENDBRANCH   7  17
TORSDOF 2
ENDMDL
MODEL 6
REMARK VINA RESULT:      -7.6      5.816      6.852
REMARK  Name = 
REMARK  3 active torsions:
REMARK  status: ('A' for Active; 'I' for Inactive)
REMARK    1  A    between atoms: C_1  and  C_2
REMARK    2  A    between atoms: C_6  and  C_7
REMARK    3  A    between atoms: C_13  and  C_14
REMARK                            x       y       z     vdW  Elec       q    Type
REMARK                         _______ _______ _______ _____ _____    ______ ____
ROOT
ATOM      1  C   UNL     1       8.724   9.506  18.532  0.00  0.00    +0.000 C 
ATOM      2  O   UNL     1       8.109   9.758  17.505  0.00  0.00    +0.000 OA
ATOM      3  N   UNL     1       8.805   8.283  19.158  0.00  0.00    +0.000 N 
ATOM      4  C   UNL     1       8.206   7.161  18.659  0.00  0.00    +0.000 A 
ATOM      5  N   UNL     1       8.099   6.013  19.282  0.00  0.00    +0.000 NA
ATOM      6  N   UNL     1       7.456   5.164  18.413  0.00  0.00    +0.000 NA
ATOM      7  C   UNL     1       7.226   5.821  17.275  0.00  0.00    +0.000 A 
ATOM      8  O   UNL     1       7.680   7.128  17.403  0.00  0.00    +0.000 OA
ATOM      9  H   UNL     1       9.205   8.190  20.079  0.00  0.00    +0.000 HD
ENDROOT
BRANCH   1  15
ATOM     10  C   UNL     1       9.279  12.632  22.467  0.00  0.00    +0.000 C 
ATOM     11  C   UNL     1       9.712  12.137  21.117  0.00  0.00    +0.000 A 
ATOM     12  C   UNL     1      10.833  12.689  20.484  0.00  0.00    +0.000 A 
ATOM     13  C   UNL     1      11.249  12.212  19.242  0.00  0.00    +0.000 A 
ATOM     14  C   UNL     1      10.547  11.182  18.616  0.00  0.00    +0.000 A 
ATOM     15  C   UNL     1       9.414  10.630  19.227  0.00  0.00    +0.000 A 
ATOM     16  C   UNL     1       8.996  11.108  20.478  0.00  0.00    +0.000 A 
ENDBRANCH   1  15
BRANCH   7  17
ATOM     17  C   UNL     1       6.655   5.289  16.086  0.00  0.00    +0.000 C 
ATOM     18  C   UNL     1       5.525   4.570  16.144  0.00  0.00    +0.000 C 
ATOM     19  O   UNL     1       4.927   3.917  15.104  0.00  0.00    +0.000 OA
ATOM     20  C   UNL     1       5.565   4.099  13.841  0.00  0.00    +0.000 C 
ATOM     21  C   UNL     1       7.021   4.566  13.878  0.00  0.00    +0.000 C 
ATOM     22  O   UNL     1       7.363   5.484  14.920  0.00  0.00    +0.000 OA
ENDBRANCH   7  17
TORSDOF 2
ENDMDL
MODEL 7
REMARK VINA RESULT:      -7.4      0.849      1.050
REMARK  Name = 
REMARK  3 active torsions:
REMARK  status: ('A' for Active; 'I' for Inactive)
REMARK    1  A    between atoms: C_1  and  C_2
REMARK    2  A    between atoms: C_6  and  C_7
REMARK    3  A    between atoms: C_13  and  C_14
REMARK                            x       y       z     vdW  Elec       q    Type
REMARK                         _______ _______ _______ _____ _____    ______ ____
ROOT
ATOM      1  C   UNL     1       1.905   8.612  18.593  0.00  0.00    +0.000 C 
ATOM      2  O   UNL     1       2.214   8.815  17.427  0.00  0.00    +0.000 OA
ATOM      3  N   UNL     1       2.260   7.523  19.355  0.00  0.00    +0.000 N 
ATOM      4  C   UNL     1       3.059   6.521  18.880  0.00  0.00    +0.000 A 
ATOM      5  N   UNL     1       3.296   5.383  19.484  0.00  0.00    +0.000 NA
ATOM      6  N   UNL     1       4.163   4.693  18.673  0.00  0.00    +0.000 NA
ATOM      7  C   UNL     1       4.450   5.454  17.615  0.00  0.00    +0.000 A 
ATOM      8  O   UNL     1       3.734   6.643  17.703  0.00  0.00    +0.000 OA
ATOM      9  H   UNL     1       1.842   7.354  20.258  0.00  0.00    +0.000 HD
ENDROOT
BRANCH   1  15
ATOM     10  C   UNL     1      -0.808  12.879  18.580  0.00  0.00    +0.000 C 
ATOM     11  C   UNL     1      -0.320  11.639  19.274  0.00  0.00    +0.000 A 
ATOM     12  C   UNL     1      -0.749  11.337  20.573  0.00  0.00    +0.000 A 
ATOM     13  C   UNL     1      -0.316  10.174  21.207  0.00  0.00    +0.000 A 
ATOM     14  C   UNL     1       0.554   9.302  20.553  0.00  0.00    +0.000 A 
ATOM     15  C   UNL     1       1.006   9.597  19.260  0.00  0.00    +0.000 A 
ATOM     16  C   UNL     1       0.569  10.766  18.621  0.00  0.00    +0.000 A 
ENDBRANCH   1  15
BRANCH   7  17
ATOM     17  C   UNL     1       5.369   5.153  16.573  0.00  0.00    +0.000 C 
ATOM     18  C   UNL     1       6.529   5.820  16.484  0.00  0.00    +0.000 C 
ATOM     19  O   UNL     1       7.452   5.708  15.484  0.00  0.00    +0.000 OA
ATOM     20  C   UNL     1       7.141   4.729  14.494  0.00  0.00    +0.000 C 
ATOM     21  C   UNL     1       5.677   4.294  14.405  0.00  0.00    +0.000 C 
ATOM     22  O   UNL     1       4.965   4.219  15.644  0.00  0.00    +0.000 OA
ENDBRANCH   7  17
TORSDOF 2
ENDMDL
MODEL 8
REMARK VINA RESULT:      -7.4      1.402      1.729
REMARK  Name = 
REMARK  3 active torsions:
REMARK  status: ('A' for Active; 'I' for Inactive)
REMARK    1  A    between atoms: C_1  and  C_2
REMARK    2  A    between atoms: C_6  and  C_7
REMARK    3  A    between atoms: C_13  and  C_14
REMARK                            x       y       z     vdW  Elec       q    Type
REMARK                         _______ _______ _______ _____ _____    ______ ____
ROOT
ATOM      1  C   UNL     1       1.331   8.453  20.438  0.00  0.00    +0.000 C 
ATOM      2  O   UNL     1       1.857   8.791  19.387  0.00  0.00    +0.000 OA
ATOM      3  N   UNL     1       1.410   7.214  21.031  0.00  0.00    +0.000 N 
ATOM      4  C   UNL     1       2.146   6.191  20.500  0.00  0.00    +0.000 A 
ATOM      5  N   UNL     1       2.130   4.947  20.913  0.00  0.00    +0.000 NA
ATOM      6  N   UNL     1       3.028   4.271  20.124  0.00  0.00    +0.000 NA
ATOM      7  C   UNL     1       3.584   5.139  19.278  0.00  0.00    +0.000 A 
ATOM      8  O   UNL     1       3.021   6.394  19.477  0.00  0.00    +0.000 OA
ATOM      9  H   UNL     1       0.827   6.968  21.816  0.00  0.00    +0.000 HD
ENDROOT
BRANCH   1  15
ATOM     10  C   UNL     1      -1.587  12.581  20.450  0.00  0.00    +0.000 C 
ATOM     11  C   UNL     1      -0.958  11.420  21.165  0.00  0.00    +0.000 A 
ATOM     12  C   UNL     1      -1.219  11.198  22.524  0.00  0.00    +0.000 A 
ATOM     13  C   UNL     1      -0.655  10.106  23.181  0.00  0.00    +0.000 A 
ATOM     14  C   UNL     1       0.179   9.227  22.491  0.00  0.00    +0.000 A 
ATOM     15  C   UNL     1       0.463   9.444  21.137  0.00  0.00    +0.000 A 
ATOM     16  C   UNL     1      -0.105  10.541  20.474  0.00  0.00    +0.000 A 
ENDBRANCH   1  15
BRANCH   7  17
ATOM     17  C   UNL     1       4.623   4.871  18.343  0.00  0.00    +0.000 C 
ATOM     18  C   UNL     1       5.852   4.554  18.774  0.00  0.00    +0.000 C 
ATOM     19  O   UNL     1       6.960   4.376  17.996  0.00  0.00    +0.000 OA
ATOM     20  C   UNL     1       6.727   4.482  16.593  0.00  0.00    +0.000 C 
ATOM     21  C   UNL     1       5.455   5.220  16.171  0.00  0.00    +0.000 C 
ATOM     22  O   UNL     1       4.312   5.037  17.011  0.00  0.00    +0.000 OA
ENDBRANCH   7  17
TORSDOF 2
ENDMDL
MODEL 9
REMARK VINA RESULT:      -7.4      1.056      1.503
REMARK  Name = 
REMARK  3 active torsions:
REMARK  status: ('A' for Active; 'I' for Inactive)
REMARK    1  A    between atoms: C_1  and  C_2
REMARK    2  A    between atoms: C_6  and  C_7
REMARK    3  A    between atoms: C_13  and  C_14
REMARK                            x       y       z     vdW  Elec       q    Type
REMARK                         _______ _______ _______ _____ _____    ______ ____
ROOT
ATOM      1  C   UNL     1       1.531   8.402  20.150  0.00  0.00    +0.000 C 
ATOM      2  O   UNL     1       1.855   8.809  19.042  0.00  0.00    +0.000 OA
ATOM      3  N   UNL     1       1.819   7.167  20.683  0.00  0.00    +0.000 N 
ATOM      4  C   UNL     1       2.558   6.231  20.015  0.00  0.00    +0.000 A 
ATOM      5  N   UNL     1       2.725   4.985  20.385  0.00  0.00    +0.000 NA
ATOM      6  N   UNL     1       3.552   4.415  19.448  0.00  0.00    +0.000 NA
ATOM      7  C   UNL     1       3.886   5.349  18.556  0.00  0.00    +0.000 A 
ATOM      8  O   UNL     1       3.243   6.539  18.878  0.00  0.00    +0.000 OA
ATOM      9  H   UNL     1       1.388   6.851  21.539  0.00  0.00    +0.000 HD
ENDROOT
BRANCH   1  15
ATOM     10  C   UNL     1      -1.593  12.331  20.756  0.00  0.00    +0.000 C 
ATOM     11  C   UNL     1      -0.827  11.168  21.319  0.00  0.00    +0.000 A 
ATOM     12  C   UNL     1      -0.926  10.843  22.678  0.00  0.00    +0.000 A 
ATOM     13  C   UNL     1      -0.235   9.748  23.194  0.00  0.00    +0.000 A 
ATOM     14  C   UNL     1       0.567   8.970  22.361  0.00  0.00    +0.000 A 
ATOM     15  C   UNL     1       0.691   9.290  21.003  0.00  0.00    +0.000 A 
ATOM     16  C   UNL     1      -0.006  10.390  20.482  0.00  0.00    +0.000 A 
ENDBRANCH   1  15
BRANCH   7  17
ATOM     17  C   UNL     1       4.789   5.202  17.467  0.00  0.00    +0.000 C 
ATOM     18  C   UNL     1       4.711   4.129  16.666  0.00  0.00    +0.000 C 
ATOM     19  O   UNL     1       5.572   3.810  15.656  0.00  0.00    +0.000 OA
ATOM     20  C   UNL     1       6.599   4.772  15.422  0.00  0.00    +0.000 C 
ATOM     21  C   UNL     1       6.895   5.740  16.569  0.00  0.00    +0.000 C 
ATOM     22  O   UNL     1       5.770   6.162  17.344  0.00  0.00    +0.000 OA
ENDBRANCH   7  17
TORSDOF 2
ENDMDL
