MODEL 1
REMARK VINA RESULT:      -8.7      0.000      0.000
REMARK  Name = 
REMARK  8 active torsions:
REMARK  status: ('A' for Active; 'I' for Inactive)
REMARK    1  A    between atoms: C_1  and  C_2
REMARK    2  A    between atoms: C_2  and  N_3
REMARK    3  A    between atoms: C_12  and  N_13
REMARK    4  A    between atoms: N_13  and  C_14
REMARK    5  A    between atoms: C_14  and  C_15
REMARK    6  A    between atoms: C_15  and  C_16
REMARK    7  A    between atoms: C_16  and  N_17
REMARK    8  A    between atoms: N_17  and  C_18
REMARK                            x       y       z     vdW  Elec       q    Type
REMARK                         _______ _______ _______ _____ _____    ______ ____
ROOT
ATOM      1  N   UNL     1       7.717   6.817  17.989  0.00  0.00    +0.000 N 
ATOM      2  H   UNL     1       8.365   6.393  18.643  0.00  0.00    +0.000 HD
ENDROOT
BRANCH   1  12
ATOM      3  N   UNL     1       1.307   3.835  19.382  0.00  0.00    +0.000 NA
ATOM      4  C   UNL     1       2.293   4.860  19.804  0.00  0.00    +0.000 C 
ATOM      5  C   UNL     1       3.775   4.455  19.628  0.00  0.00    +0.000 C 
ATOM      6  N   UNL     1       4.007   4.019  18.256  0.00  0.00    +0.000 N 
ATOM      7  C   UNL     1       5.039   4.528  17.512  0.00  0.00    +0.000 A 
ATOM      8  N   UNL     1       5.141   4.151  16.237  0.00  0.00    +0.000 NA
ATOM      9  C   UNL     1       6.131   4.699  15.534  0.00  0.00    +0.000 A 
ATOM     10 CL   UNL     1       6.206   4.184  13.897  0.00  0.00    +0.000 Cl
ATOM     11  C   UNL     1       7.038   5.597  16.020  0.00  0.00    +0.000 A 
ATOM     12  C   UNL     1       6.889   5.926  17.344  0.00  0.00    +0.000 A 
ATOM     13  N   UNL     1       5.901   5.397  18.080  0.00  0.00    +0.000 NA
ATOM     14  C   UNL     1       3.068   3.051  17.689  0.00  0.00    +0.000 C 
ATOM     15  C   UNL     1       1.606   3.482  17.969  0.00  0.00    +0.000 C 
BRANCH   3  17
ATOM     16  C   UNL     1       1.531   2.923  21.707  0.00  0.00    +0.000 C 
ATOM     17  C   UNL     1       1.318   2.630  20.227  0.00  0.00    +0.000 C 
ENDBRANCH   3  17
ENDBRANCH   1  12
BRANCH   1  18
ATOM     18  C   UNL     1       7.820   8.212  17.618  0.00  0.00    +0.000 C 
BRANCH  18  19
ATOM     19  C   UNL     1       8.640   9.025  18.618  0.00  0.00    +0.000 C 
BRANCH  19  20
ATOM     20  C   UNL     1       8.812  10.440  18.056  0.00  0.00    +0.000 C 
BRANCH  20  21
ATOM     21  N   UNL     1      10.125  10.996  18.388  0.00  0.00    +0.000 N 
ATOM     22  H   UNL     1      10.686  11.143  17.555  0.00  0.00    +0.000 HD
BRANCH  21  23
ATOM     23  C   UNL     1      10.138  12.140  19.232  0.00  0.00    +0.000 A 
ATOM     24  C   UNL     1       9.913  12.013  20.607  0.00  0.00    +0.000 A 
ATOM     25  C   UNL     1       9.982  13.130  21.417  0.00  0.00    +0.000 A 
ATOM     26  N   UNL     1      10.292  14.357  20.971  0.00  0.00    +0.000 NA
ATOM     27  C   UNL     1      10.567  14.498  19.670  0.00  0.00    +0.000 A 
ATOM     28  C   UNL     1      10.917  15.770  19.245  0.00  0.00    +0.000 A 
ATOM     29  C   UNL     1      11.223  16.027  17.914  0.00  0.00    +0.000 A 
ATOM     30 CL   UNL     1      11.653  17.621  17.427  0.00  0.00    +0.000 Cl
ATOM     31  C   UNL     1      11.182  15.005  16.979  0.00  0.00    +0.000 A 
ATOM     32  C   UNL     1      10.834  13.716  17.387  0.00  0.00    +0.000 A 
ATOM     33  C   UNL     1      10.517  13.427  18.738  0.00  0.00    +0.000 A 
ENDBRANCH  21  23
ENDBRANCH  20  21
ENDBRANCH  19  20
ENDBRANCH  18  19
ENDBRANCH   1  18
TORSDOF 7
ENDMDL
MODEL 2
REMARK VINA RESULT:      -8.6      1.584      2.452
REMARK  Name = 
REMARK  8 active torsions:
REMARK  status: ('A' for Active; 'I' for Inactive)
REMARK    1  A    between atoms: C_1  and  C_2
REMARK    2  A    between atoms: C_2  and  N_3
REMARK    3  A    between atoms: C_12  and  N_13
REMARK    4  A    between atoms: N_13  and  C_14
REMARK    5  A    between atoms: C_14  and  C_15
REMARK    6  A    between atoms: C_15  and  C_16
REMARK    7  A    between atoms: C_16  and  N_17
REMARK    8  A    between atoms: N_17  and  C_18
REMARK                            x       y       z     vdW  Elec       q    Type
REMARK                         _______ _______ _______ _____ _____    ______ ____
ROOT
ATOM      1  N   UNL     1       7.717   6.960  18.082  0.00  0.00    +0.000 N 
ATOM      2  H   UNL     1       8.326   6.587  18.801  0.00  0.00    +0.000 HD
ENDROOT
BRANCH   1  12
ATOM      3  N   UNL     1       1.428   3.663  19.310  0.00  0.00    +0.000 NA
ATOM      4  C   UNL     1       2.343   4.748  19.746  0.00  0.00    +0.000 C 
ATOM      5  C   UNL     1       3.849   4.419  19.629  0.00  0.00    +0.000 C 
ATOM      6  N   UNL     1       4.153   3.972  18.275  0.00  0.00    +0.000 N 
ATOM      7  C   UNL     1       5.182   4.523  17.557  0.00  0.00    +0.000 A 
ATOM      8  N   UNL     1       5.349   4.129  16.294  0.00  0.00    +0.000 NA
ATOM      9  C   UNL     1       6.333   4.716  15.615  0.00  0.00    +0.000 A 
ATOM     10 CL   UNL     1       6.492   4.177  13.991  0.00  0.00    +0.000 Cl
ATOM     11  C   UNL     1       7.173   5.670  16.114  0.00  0.00    +0.000 A 
ATOM     12  C   UNL     1       6.960   6.015  17.425  0.00  0.00    +0.000 A 
ATOM     13  N   UNL     1       5.976   5.446  18.137  0.00  0.00    +0.000 NA
ATOM     14  C   UNL     1       3.287   2.946  17.695  0.00  0.00    +0.000 C 
ATOM     15  C   UNL     1       1.795   3.302  17.915  0.00  0.00    +0.000 C 
BRANCH   3  17
ATOM     16  C   UNL     1       1.427   2.804  21.666  0.00  0.00    +0.000 C 
ATOM     17  C   UNL     1       1.472   2.476  20.178  0.00  0.00    +0.000 C 
ENDBRANCH   3  17
ENDBRANCH   1  12
BRANCH   1  18
ATOM     18  C   UNL     1       7.811   8.336  17.647  0.00  0.00    +0.000 C 
BRANCH  18  19
ATOM     19  C   UNL     1       8.650   9.193  18.593  0.00  0.00    +0.000 C 
BRANCH  19  20
ATOM     20  C   UNL     1       8.863  10.561  17.938  0.00  0.00    +0.000 C 
BRANCH  20  21
ATOM     21  N   UNL     1      10.151  11.146  18.318  0.00  0.00    +0.000 N 
ATOM     22  H   UNL     1      10.873  10.924  17.641  0.00  0.00    +0.000 HD
BRANCH  21  23
ATOM     23  C   UNL     1      10.151  12.530  18.642  0.00  0.00    +0.000 A 
ATOM     24  C   UNL     1      10.347  13.494  17.647  0.00  0.00    +0.000 A 
ATOM     25  C   UNL     1      10.292  14.835  17.975  0.00  0.00    +0.000 A 
ATOM     26  N   UNL     1      10.023  15.292  19.207  0.00  0.00    +0.000 NA
ATOM     27  C   UNL     1       9.776  14.393  20.167  0.00  0.00    +0.000 A 
ATOM     28  C   UNL     1       9.467  14.895  21.421  0.00  0.00    +0.000 A 
ATOM     29  C   UNL     1       9.193  14.049  22.489  0.00  0.00    +0.000 A 
ATOM     30 CL   UNL     1       8.814  14.712  24.031  0.00  0.00    +0.000 Cl
ATOM     31  C   UNL     1       9.225  12.674  22.316  0.00  0.00    +0.000 A 
ATOM     32  C   UNL     1       9.532  12.148  21.059  0.00  0.00    +0.000 A 
ATOM     33  C   UNL     1       9.816  12.989  19.954  0.00  0.00    +0.000 A 
ENDBRANCH  21  23
ENDBRANCH  20  21
ENDBRANCH  19  20
ENDBRANCH  18  19
ENDBRANCH   1  18
TORSDOF 7
ENDMDL
MODEL 3
REMARK VINA RESULT:      -8.3      1.413      2.071
REMARK  Name = 
REMARK  8 active torsions:
REMARK  status: ('A' for Active; 'I' for Inactive)
REMARK    1  A    between atoms: C_1  and  C_2
REMARK    2  A    between atoms: C_2  and  N_3
REMARK    3  A    between atoms: C_12  and  N_13
REMARK    4  A    between atoms: N_13  and  C_14
REMARK    5  A    between atoms: C_14  and  C_15
REMARK    6  A    between atoms: C_15  and  C_16
REMARK    7  A    between atoms: C_16  and  N_17
REMARK    8  A    between atoms: N_17  and  C_18
REMARK                            x       y       z     vdW  Elec       q    Type
REMARK                         _______ _______ _______ _____ _____    ______ ____
ROOT
ATOM      1  N   UNL     1       7.604   6.886  17.875  0.00  0.00    +0.000 N 
ATOM      2  H   UNL     1       8.421   6.554  18.375  0.00  0.00    +0.000 HD
ENDROOT
BRANCH   1  12
ATOM      3  N   UNL     1       1.404   3.523  19.348  0.00  0.00    +0.000 NA
ATOM      4  C   UNL     1       2.302   4.645  19.719  0.00  0.00    +0.000 C 
ATOM      5  C   UNL     1       3.813   4.342  19.595  0.00  0.00    +0.000 C 
ATOM      6  N   UNL     1       4.106   3.840  18.258  0.00  0.00    +0.000 N 
ATOM      7  C   UNL     1       5.114   4.377  17.500  0.00  0.00    +0.000 A 
ATOM      8  N   UNL     1       5.270   3.930  16.254  0.00  0.00    +0.000 NA
ATOM      9  C   UNL     1       6.232   4.505  15.534  0.00  0.00    +0.000 A 
ATOM     10 CL   UNL     1       6.380   3.895  13.934  0.00  0.00    +0.000 Cl
ATOM     11  C   UNL     1       7.059   5.497  15.976  0.00  0.00    +0.000 A 
ATOM     12  C   UNL     1       6.858   5.897  17.273  0.00  0.00    +0.000 A 
ATOM     13  N   UNL     1       5.896   5.342  18.025  0.00  0.00    +0.000 NA
ATOM     14  C   UNL     1       3.254   2.770  17.739  0.00  0.00    +0.000 C 
ATOM     15  C   UNL     1       1.759   3.106  17.965  0.00  0.00    +0.000 C 
BRANCH   3  17
ATOM     16  C   UNL     1       1.382   2.766  21.738  0.00  0.00    +0.000 C 
ATOM     17  C   UNL     1       1.485   2.378  20.268  0.00  0.00    +0.000 C 
ENDBRANCH   3  17
ENDBRANCH   1  12
BRANCH   1  18
ATOM     18  C   UNL     1       7.382   8.296  17.639  0.00  0.00    +0.000 C 
BRANCH  18  19
ATOM     19  C   UNL     1       8.677   9.107  17.673  0.00  0.00    +0.000 C 
BRANCH  19  20
ATOM     20  C   UNL     1       8.523  10.209  18.726  0.00  0.00    +0.000 C 
BRANCH  20  21
ATOM     21  N   UNL     1       9.761  10.411  19.480  0.00  0.00    +0.000 N 
ATOM     22  H   UNL     1      10.350   9.585  19.454  0.00  0.00    +0.000 HD
BRANCH  21  23
ATOM     23  C   UNL     1      10.504  11.587  19.184  0.00  0.00    +0.000 A 
ATOM     24  C   UNL     1      11.228  11.690  17.991  0.00  0.00    +0.000 A 
ATOM     25  C   UNL     1      11.899  12.862  17.699  0.00  0.00    +0.000 A 
ATOM     26  N   UNL     1      11.879  13.949  18.484  0.00  0.00    +0.000 NA
ATOM     27  C   UNL     1      11.149  13.898  19.604  0.00  0.00    +0.000 A 
ATOM     28  C   UNL     1      11.119  15.048  20.377  0.00  0.00    +0.000 A 
ATOM     29  C   UNL     1      10.392  15.103  21.560  0.00  0.00    +0.000 A 
ATOM     30 CL   UNL     1      10.380  16.551  22.491  0.00  0.00    +0.000 Cl
ATOM     31  C   UNL     1       9.677  13.998  21.991  0.00  0.00    +0.000 A 
ATOM     32  C   UNL     1       9.692  12.830  21.225  0.00  0.00    +0.000 A 
ATOM     33  C   UNL     1      10.426  12.747  20.015  0.00  0.00    +0.000 A 
ENDBRANCH  21  23
ENDBRANCH  20  21
ENDBRANCH  19  20
ENDBRANCH  18  19
ENDBRANCH   1  18
TORSDOF 7
ENDMDL
MODEL 4
REMARK VINA RESULT:      -8.3      6.224      9.048
REMARK  Name = 
REMARK  8 active torsions:
REMARK  status: ('A' for Active; 'I' for Inactive)
REMARK    1  A    between atoms: C_1  and  C_2
REMARK    2  A    between atoms: C_2  and  N_3
REMARK    3  A    between atoms: C_12  and  N_13
REMARK    4  A    between atoms: N_13  and  C_14
REMARK    5  A    between atoms: C_14  and  C_15
REMARK    6  A    between atoms: C_15  and  C_16
REMARK    7  A    between atoms: C_16  and  N_17
REMARK    8  A    between atoms: N_17  and  C_18
REMARK                            x       y       z     vdW  Elec       q    Type
REMARK                         _______ _______ _______ _____ _____    ______ ____
ROOT
ATOM      1  N   UNL     1       2.224   5.108  20.904  0.00  0.00    +0.000 N 
ATOM      2  H   UNL     1       2.962   5.088  21.599  0.00  0.00    +0.000 HD
ENDROOT
BRANCH   1  12
ATOM      3  N   UNL     1      -0.578  11.482  22.764  0.00  0.00    +0.000 NA
ATOM      4  C   UNL     1      -0.166  10.141  23.250  0.00  0.00    +0.000 C 
ATOM      5  C   UNL     1      -0.417   8.981  22.260  0.00  0.00    +0.000 C 
ATOM      6  N   UNL     1       0.188   9.293  20.970  0.00  0.00    +0.000 N 
ATOM      7  C   UNL     1       1.014   8.403  20.337  0.00  0.00    +0.000 A 
ATOM      8  N   UNL     1       1.602   8.788  19.204  0.00  0.00    +0.000 NA
ATOM      9  C   UNL     1       2.431   7.911  18.638  0.00  0.00    +0.000 A 
ATOM     10 CL   UNL     1       3.167   8.466  17.188  0.00  0.00    +0.000 Cl
ATOM     11  C   UNL     1       2.710   6.666  19.124  0.00  0.00    +0.000 A 
ATOM     12  C   UNL     1       2.056   6.325  20.281  0.00  0.00    +0.000 A 
ATOM     13  N   UNL     1       1.218   7.185  20.879  0.00  0.00    +0.000 NA
ATOM     14  C   UNL     1      -0.085  10.613  20.401  0.00  0.00    +0.000 C 
ATOM     15  C   UNL     1       0.113  11.719  21.468  0.00  0.00    +0.000 C 
BRANCH   3  17
ATOM     16  C   UNL     1      -2.707  12.342  23.770  0.00  0.00    +0.000 C 
ATOM     17  C   UNL     1      -2.033  11.626  22.605  0.00  0.00    +0.000 C 
ENDBRANCH   3  17
ENDBRANCH   1  12
BRANCH   1  18
ATOM     18  C   UNL     1       1.296   4.009  20.753  0.00  0.00    +0.000 C 
BRANCH  18  19
ATOM     19  C   UNL     1       1.666   3.086  19.594  0.00  0.00    +0.000 C 
BRANCH  19  20
ATOM     20  C   UNL     1       3.190   2.937  19.568  0.00  0.00    +0.000 C 
BRANCH  20  21
ATOM     21  N   UNL     1       3.734   3.189  18.232  0.00  0.00    +0.000 N 
ATOM     22  H   UNL     1       3.003   3.449  17.578  0.00  0.00    +0.000 HD
BRANCH  21  23
ATOM     23  C   UNL     1       4.842   4.076  18.151  0.00  0.00    +0.000 A 
ATOM     24  C   UNL     1       5.386   4.643  19.310  0.00  0.00    +0.000 A 
ATOM     25  C   UNL     1       6.496   5.460  19.213  0.00  0.00    +0.000 A 
ATOM     26  N   UNL     1       7.126   5.730  18.061  0.00  0.00    +0.000 NA
ATOM     27  C   UNL     1       6.662   5.157  16.945  0.00  0.00    +0.000 A 
ATOM     28  C   UNL     1       7.354   5.427  15.775  0.00  0.00    +0.000 A 
ATOM     29  C   UNL     1       6.957   4.883  14.560  0.00  0.00    +0.000 A 
ATOM     30 CL   UNL     1       7.844   5.243  13.129  0.00  0.00    +0.000 Cl
ATOM     31  C   UNL     1       5.849   4.053  14.496  0.00  0.00    +0.000 A 
ATOM     32  C   UNL     1       5.139   3.766  15.664  0.00  0.00    +0.000 A 
ATOM     33  C   UNL     1       5.523   4.309  16.916  0.00  0.00    +0.000 A 
ENDBRANCH  21  23
ENDBRANCH  20  21
ENDBRANCH  19  20
ENDBRANCH  18  19
ENDBRANCH   1  18
TORSDOF 7
ENDMDL
MODEL 5
REMARK VINA RESULT:      -8.3      6.448      9.716
REMARK  Name = 
REMARK  8 active torsions:
REMARK  status: ('A' for Active; 'I' for Inactive)
REMARK    1  A    between atoms: C_1  and  C_2
REMARK    2  A    between atoms: C_2  and  N_3
REMARK    3  A    between atoms: C_12  and  N_13
REMARK    4  A    between atoms: N_13  and  C_14
REMARK    5  A    between atoms: C_14  and  C_15
REMARK    6  A    between atoms: C_15  and  C_16
REMARK    7  A    between atoms: C_16  and  N_17
REMARK    8  A    between atoms: N_17  and  C_18
REMARK                            x       y       z     vdW  Elec       q    Type
REMARK                         _______ _______ _______ _____ _____    ______ ____
ROOT
ATOM      1  N   UNL     1       1.604   8.062  20.247  0.00  0.00    +0.000 N 
ATOM      2  H   UNL     1       1.899   8.785  19.600  0.00  0.00    +0.000 HD
ENDROOT
BRANCH   1  12
ATOM      3  N   UNL     1       7.108   5.441  16.404  0.00  0.00    +0.000 NA
ATOM      4  C   UNL     1       6.480   6.667  16.955  0.00  0.00    +0.000 C 
ATOM      5  C   UNL     1       4.933   6.662  16.965  0.00  0.00    +0.000 C 
ATOM      6  N   UNL     1       4.448   5.462  17.636  0.00  0.00    +0.000 N 
ATOM      7  C   UNL     1       3.514   5.533  18.636  0.00  0.00    +0.000 A 
ATOM      8  N   UNL     1       3.181   4.406  19.266  0.00  0.00    +0.000 NA
ATOM      9  C   UNL     1       2.301   4.520  20.260  0.00  0.00    +0.000 A 
ATOM     10 CL   UNL     1       1.918   3.038  21.041  0.00  0.00    +0.000 Cl
ATOM     11  C   UNL     1       1.722   5.687  20.668  0.00  0.00    +0.000 A 
ATOM     12  C   UNL     1       2.093   6.806  19.965  0.00  0.00    +0.000 A 
ATOM     13  N   UNL     1       2.979   6.727  18.961  0.00  0.00    +0.000 NA
ATOM     14  C   UNL     1       5.032   4.183  17.232  0.00  0.00    +0.000 C 
ATOM     15  C   UNL     1       6.576   4.283  17.170  0.00  0.00    +0.000 C 
BRANCH   3  17
ATOM     16  C   UNL     1       6.320   3.882  14.604  0.00  0.00    +0.000 C 
ATOM     17  C   UNL     1       6.869   5.258  14.963  0.00  0.00    +0.000 C 
ENDBRANCH   3  17
ENDBRANCH   1  12
BRANCH   1  18
ATOM     18  C   UNL     1       0.583   8.307  21.241  0.00  0.00    +0.000 C 
BRANCH  18  19
ATOM     19  C   UNL     1       1.004   9.357  22.268  0.00  0.00    +0.000 C 
BRANCH  19  20
ATOM     20  C   UNL     1      -0.148  10.352  22.434  0.00  0.00    +0.000 C 
BRANCH  20  21
ATOM     21  N   UNL     1      -0.119  11.389  21.401  0.00  0.00    +0.000 N 
ATOM     22  H   UNL     1       0.604  11.206  20.713  0.00  0.00    +0.000 HD
BRANCH  21  23
ATOM     23  C   UNL     1      -1.358  11.706  20.781  0.00  0.00    +0.000 A 
ATOM     24  C   UNL     1      -2.263  12.575  21.401  0.00  0.00    +0.000 A 
ATOM     25  C   UNL     1      -3.438  12.911  20.757  0.00  0.00    +0.000 A 
ATOM     26  N   UNL     1      -3.767  12.478  19.531  0.00  0.00    +0.000 NA
ATOM     27  C   UNL     1      -2.896  11.691  18.891  0.00  0.00    +0.000 A 
ATOM     28  C   UNL     1      -3.247  11.288  17.612  0.00  0.00    +0.000 A 
ATOM     29  C   UNL     1      -2.414  10.470  16.859  0.00  0.00    +0.000 A 
ATOM     30 CL   UNL     1      -2.887   9.992  15.275  0.00  0.00    +0.000 Cl
ATOM     31  C   UNL     1      -1.204  10.038  17.379  0.00  0.00    +0.000 A 
ATOM     32  C   UNL     1      -0.830  10.435  18.665  0.00  0.00    +0.000 A 
ATOM     33  C   UNL     1      -1.662  11.269  19.454  0.00  0.00    +0.000 A 
ENDBRANCH  21  23
ENDBRANCH  20  21
ENDBRANCH  19  20
ENDBRANCH  18  19
ENDBRANCH   1  18
TORSDOF 7
ENDMDL
MODEL 6
REMARK VINA RESULT:      -8.2      1.604      1.680
REMARK  Name = 
REMARK  8 active torsions:
REMARK  status: ('A' for Active; 'I' for Inactive)
REMARK    1  A    between atoms: C_1  and  C_2
REMARK    2  A    between atoms: C_2  and  N_3
REMARK    3  A    between atoms: C_12  and  N_13
REMARK    4  A    between atoms: N_13  and  C_14
REMARK    5  A    between atoms: C_14  and  C_15
REMARK    6  A    between atoms: C_15  and  C_16
REMARK    7  A    between atoms: C_16  and  N_17
REMARK    8  A    between atoms: N_17  and  C_18
REMARK                            x       y       z     vdW  Elec       q    Type
REMARK                         _______ _______ _______ _____ _____    ______ ____
ROOT
ATOM      1  N   UNL     1       7.752   6.931  18.106  0.00  0.00    +0.000 N 
ATOM      2  H   UNL     1       8.351   6.544  18.825  0.00  0.00    +0.000 HD
ENDROOT
BRANCH   1  12
ATOM      3  N   UNL     1       1.367   3.805  19.282  0.00  0.00    +0.000 NA
ATOM      4  C   UNL     1       2.305   4.866  19.723  0.00  0.00    +0.000 C 
ATOM      5  C   UNL     1       3.803   4.498  19.623  0.00  0.00    +0.000 C 
ATOM      6  N   UNL     1       4.109   4.038  18.274  0.00  0.00    +0.000 N 
ATOM      7  C   UNL     1       5.160   4.559  17.564  0.00  0.00    +0.000 A 
ATOM      8  N   UNL     1       5.329   4.156  16.305  0.00  0.00    +0.000 NA
ATOM      9  C   UNL     1       6.335   4.715  15.633  0.00  0.00    +0.000 A 
ATOM     10 CL   UNL     1       6.497   4.165  14.014  0.00  0.00    +0.000 Cl
ATOM     11  C   UNL     1       7.194   5.648  16.137  0.00  0.00    +0.000 A 
ATOM     12  C   UNL     1       6.977   6.003  17.445  0.00  0.00    +0.000 A 
ATOM     13  N   UNL     1       5.971   5.463  18.149  0.00  0.00    +0.000 NA
ATOM     14  C   UNL     1       3.222   3.032  17.689  0.00  0.00    +0.000 C 
ATOM     15  C   UNL     1       1.739   3.428  17.892  0.00  0.00    +0.000 C 
BRANCH   3  17
ATOM     16  C   UNL     1       1.475   2.953  21.639  0.00  0.00    +0.000 C 
ATOM     17  C   UNL     1       1.371   2.620  20.155  0.00  0.00    +0.000 C 
ENDBRANCH   3  17
ENDBRANCH   1  12
BRANCH   1  18
ATOM     18  C   UNL     1       7.876   8.306  17.675  0.00  0.00    +0.000 C 
BRANCH  18  19
ATOM     19  C   UNL     1       8.671   9.160  18.661  0.00  0.00    +0.000 C 
BRANCH  19  20
ATOM     20  C   UNL     1       8.997  10.495  17.984  0.00  0.00    +0.000 C 
BRANCH  20  21
ATOM     21  N   UNL     1       9.967  11.270  18.760  0.00  0.00    +0.000 N 
ATOM     22  H   UNL     1      10.598  11.785  18.154  0.00  0.00    +0.000 HD
BRANCH  21  23
ATOM     23  C   UNL     1       9.445  12.097  19.791  0.00  0.00    +0.000 A 
ATOM     24  C   UNL     1       9.665  11.781  21.137  0.00  0.00    +0.000 A 
ATOM     25  C   UNL     1       9.194  12.627  22.122  0.00  0.00    +0.000 A 
ATOM     26  N   UNL     1       8.551  13.778  21.874  0.00  0.00    +0.000 NA
ATOM     27  C   UNL     1       8.377  14.133  20.596  0.00  0.00    +0.000 A 
ATOM     28  C   UNL     1       7.741  15.344  20.371  0.00  0.00    +0.000 A 
ATOM     29  C   UNL     1       7.509  15.808  19.082  0.00  0.00    +0.000 A 
ATOM     30 CL   UNL     1       6.717  17.317  18.844  0.00  0.00    +0.000 Cl
ATOM     31  C   UNL     1       7.914  15.060  17.988  0.00  0.00    +0.000 A 
ATOM     32  C   UNL     1       8.558  13.838  18.193  0.00  0.00    +0.000 A 
ATOM     33  C   UNL     1       8.806  13.341  19.498  0.00  0.00    +0.000 A 
ENDBRANCH  21  23
ENDBRANCH  20  21
ENDBRANCH  19  20
ENDBRANCH  18  19
ENDBRANCH   1  18
TORSDOF 7
ENDMDL
MODEL 7
REMARK VINA RESULT:      -8.2      6.907     10.369
REMARK  Name = 
REMARK  8 active torsions:
REMARK  status: ('A' for Active; 'I' for Inactive)
REMARK    1  A    between atoms: C_1  and  C_2
REMARK    2  A    between atoms: C_2  and  N_3
REMARK    3  A    between atoms: C_12  and  N_13
REMARK    4  A    between atoms: N_13  and  C_14
REMARK    5  A    between atoms: C_14  and  C_15
REMARK    6  A    between atoms: C_15  and  C_16
REMARK    7  A    between atoms: C_16  and  N_17
REMARK    8  A    between atoms: N_17  and  C_18
REMARK                            x       y       z     vdW  Elec       q    Type
REMARK                         _______ _______ _______ _____ _____    ______ ____
ROOT
ATOM      1  N   UNL     1       1.805   7.951  20.905  0.00  0.00    +0.000 N 
ATOM      2  H   UNL     1       2.603   8.310  21.416  0.00  0.00    +0.000 HD
ENDROOT
BRANCH   1  12
ATOM      3  N   UNL     1       6.330   5.044  16.111  0.00  0.00    +0.000 NA
ATOM      4  C   UNL     1       6.024   6.245  16.927  0.00  0.00    +0.000 C 
ATOM      5  C   UNL     1       4.518   6.551  17.099  0.00  0.00    +0.000 C 
ATOM      6  N   UNL     1       3.829   5.370  17.604  0.00  0.00    +0.000 N 
ATOM      7  C   UNL     1       3.003   5.438  18.695  0.00  0.00    +0.000 A 
ATOM      8  N   UNL     1       2.474   4.304  19.155  0.00  0.00    +0.000 NA
ATOM      9  C   UNL     1       1.710   4.404  20.242  0.00  0.00    +0.000 A 
ATOM     10 CL   UNL     1       1.066   2.910  20.795  0.00  0.00    +0.000 Cl
ATOM     11  C   UNL     1       1.429   5.566  20.901  0.00  0.00    +0.000 A 
ATOM     12  C   UNL     1       1.987   6.698  20.363  0.00  0.00    +0.000 A 
ATOM     13  N   UNL     1       2.765   6.633  19.272  0.00  0.00    +0.000 NA
ATOM     14  C   UNL     1       4.090   4.099  16.928  0.00  0.00    +0.000 C 
ATOM     15  C   UNL     1       5.612   3.893  16.721  0.00  0.00    +0.000 C 
BRANCH   3  17
ATOM     16  C   UNL     1       7.050   4.733  13.729  0.00  0.00    +0.000 C 
ATOM     17  C   UNL     1       5.961   5.188  14.694  0.00  0.00    +0.000 C 
ENDBRANCH   3  17
ENDBRANCH   1  12
BRANCH   1  18
ATOM     18  C   UNL     1       0.665   8.787  20.596  0.00  0.00    +0.000 C 
BRANCH  18  19
ATOM     19  C   UNL     1       1.046  10.016  19.772  0.00  0.00    +0.000 C 
BRANCH  19  20
ATOM     20  C   UNL     1       0.281   9.959  18.446  0.00  0.00    +0.000 C 
BRANCH  20  21
ATOM     21  N   UNL     1      -0.379  11.232  18.149  0.00  0.00    +0.000 N 
ATOM     22  H   UNL     1       0.149  11.773  17.472  0.00  0.00    +0.000 HD
BRANCH  21  23
ATOM     23  C   UNL     1      -1.756  11.171  17.805  0.00  0.00    +0.000 A 
ATOM     24  C   UNL     1      -2.178  10.457  16.677  0.00  0.00    +0.000 A 
ATOM     25  C   UNL     1      -3.526  10.367  16.391  0.00  0.00    +0.000 A 
ATOM     26  N   UNL     1      -4.489  10.902  17.156  0.00  0.00    +0.000 NA
ATOM     27  C   UNL     1      -4.119  11.543  18.270  0.00  0.00    +0.000 A 
ATOM     28  C   UNL     1      -5.137  12.055  19.058  0.00  0.00    +0.000 A 
ATOM     29  C   UNL     1      -4.864  12.738  20.237  0.00  0.00    +0.000 A 
ATOM     30 CL   UNL     1      -6.157  13.358  21.188  0.00  0.00    +0.000 Cl
ATOM     31  C   UNL     1      -3.553  12.920  20.649  0.00  0.00    +0.000 A 
ATOM     32  C   UNL     1      -2.512  12.410  19.870  0.00  0.00    +0.000 A 
ATOM     33  C   UNL     1      -2.764  11.710  18.663  0.00  0.00    +0.000 A 
ENDBRANCH  21  23
ENDBRANCH  20  21
ENDBRANCH  19  20
ENDBRANCH  18  19
ENDBRANCH   1  18
TORSDOF 7
ENDMDL
MODEL 8
REMARK VINA RESULT:      -8.1      5.250      8.432
REMARK  Name = 
REMARK  8 active torsions:
REMARK  status: ('A' for Active; 'I' for Inactive)
REMARK    1  A    between atoms: C_1  and  C_2
REMARK    2  A    between atoms: C_2  and  N_3
REMARK    3  A    between atoms: C_12  and  N_13
REMARK    4  A    between atoms: N_13  and  C_14
REMARK    5  A    between atoms: C_14  and  C_15
REMARK    6  A    between atoms: C_15  and  C_16
REMARK    7  A    between atoms: C_16  and  N_17
REMARK    8  A    between atoms: N_17  and  C_18
REMARK                            x       y       z     vdW  Elec       q    Type
REMARK                         _______ _______ _______ _____ _____    ______ ____
ROOT
ATOM      1  N   UNL     1       2.002   4.505  20.733  0.00  0.00    +0.000 N 
ATOM      2  H   UNL     1       1.084   4.132  20.944  0.00  0.00    +0.000 HD
ENDROOT
BRANCH   1  12
ATOM      3  N   UNL     1      -0.197  11.014  22.907  0.00  0.00    +0.000 NA
ATOM      4  C   UNL     1       0.044   9.608  23.316  0.00  0.00    +0.000 C 
ATOM      5  C   UNL     1      -0.278   8.548  22.237  0.00  0.00    +0.000 C 
ATOM      6  N   UNL     1       0.421   8.875  21.000  0.00  0.00    +0.000 N 
ATOM      7  C   UNL     1       1.179   7.942  20.343  0.00  0.00    +0.000 A 
ATOM      8  N   UNL     1       1.861   8.332  19.266  0.00  0.00    +0.000 NA
ATOM      9  C   UNL     1       2.620   7.408  18.677  0.00  0.00    +0.000 A 
ATOM     10 CL   UNL     1       3.483   7.971  17.303  0.00  0.00    +0.000 Cl
ATOM     11  C   UNL     1       2.740   6.111  19.087  0.00  0.00    +0.000 A 
ATOM     12  C   UNL     1       1.996   5.771  20.189  0.00  0.00    +0.000 A 
ATOM     13  N   UNL     1       1.224   6.677  20.808  0.00  0.00    +0.000 NA
ATOM     14  C   UNL     1       0.319  10.250  20.513  0.00  0.00    +0.000 C 
ATOM     15  C   UNL     1       0.579  11.257  21.661  0.00  0.00    +0.000 C 
BRANCH   3  17
ATOM     16  C   UNL     1      -1.899  12.814  22.516  0.00  0.00    +0.000 C 
ATOM     17  C   UNL     1      -1.620  11.327  22.695  0.00  0.00    +0.000 C 
ENDBRANCH   3  17
ENDBRANCH   1  12
BRANCH   1  18
ATOM     18  C   UNL     1       3.188   3.680  20.797  0.00  0.00    +0.000 C 
BRANCH  18  19
ATOM     19  C   UNL     1       3.021   2.355  20.056  0.00  0.00    +0.000 C 
BRANCH  19  20
ATOM     20  C   UNL     1       3.578   2.526  18.639  0.00  0.00    +0.000 C 
BRANCH  20  21
ATOM     21  N   UNL     1       4.958   3.014  18.659  0.00  0.00    +0.000 N 
ATOM     22  H   UNL     1       5.623   2.247  18.684  0.00  0.00    +0.000 HD
BRANCH  21  23
ATOM     23  C   UNL     1       5.309   3.973  17.670  0.00  0.00    +0.000 A 
ATOM     24  C   UNL     1       4.703   3.950  16.409  0.00  0.00    +0.000 A 
ATOM     25  C   UNL     1       5.020   4.923  15.481  0.00  0.00    +0.000 A 
ATOM     26  N   UNL     1       5.866   5.936  15.721  0.00  0.00    +0.000 NA
ATOM     27  C   UNL     1       6.417   6.016  16.936  0.00  0.00    +0.000 A 
ATOM     28  C   UNL     1       7.260   7.092  17.166  0.00  0.00    +0.000 A 
ATOM     29  C   UNL     1       7.884   7.270  18.395  0.00  0.00    +0.000 A 
ATOM     30 CL   UNL     1       8.923   8.620  18.640  0.00  0.00    +0.000 Cl
ATOM     31  C   UNL     1       7.674   6.364  19.422  0.00  0.00    +0.000 A 
ATOM     32  C   UNL     1       6.826   5.274  19.212  0.00  0.00    +0.000 A 
ATOM     33  C   UNL     1       6.178   5.069  17.968  0.00  0.00    +0.000 A 
ENDBRANCH  21  23
ENDBRANCH  20  21
ENDBRANCH  19  20
ENDBRANCH  18  19
ENDBRANCH   1  18
TORSDOF 7
ENDMDL
MODEL 9
REMARK VINA RESULT:      -8.1      1.871      2.584
REMARK  Name = 
REMARK  8 active torsions:
REMARK  status: ('A' for Active; 'I' for Inactive)
REMARK    1  A    between atoms: C_1  and  C_2
REMARK    2  A    between atoms: C_2  and  N_3
REMARK    3  A    between atoms: C_12  and  N_13
REMARK    4  A    between atoms: N_13  and  C_14
REMARK    5  A    between atoms: C_14  and  C_15
REMARK    6  A    between atoms: C_15  and  C_16
REMARK    7  A    between atoms: C_16  and  N_17
REMARK    8  A    between atoms: N_17  and  C_18
REMARK                            x       y       z     vdW  Elec       q    Type
REMARK                         _______ _______ _______ _____ _____    ______ ____
ROOT
ATOM      1  N   UNL     1       6.387   7.450  16.574  0.00  0.00    +0.000 N 
ATOM      2  H   UNL     1       6.328   8.117  15.814  0.00  0.00    +0.000 HD
ENDROOT
BRANCH   1  12
ATOM      3  N   UNL     1       1.390   3.062  19.349  0.00  0.00    +0.000 NA
ATOM      4  C   UNL     1       1.969   4.428  19.384  0.00  0.00    +0.000 C 
ATOM      5  C   UNL     1       3.499   4.495  19.170  0.00  0.00    +0.000 C 
ATOM      6  N   UNL     1       3.858   3.791  17.945  0.00  0.00    +0.000 N 
ATOM      7  C   UNL     1       4.649   4.377  16.992  0.00  0.00    +0.000 A 
ATOM      8  N   UNL     1       4.865   3.710  15.858  0.00  0.00    +0.000 NA
ATOM      9  C   UNL     1       5.604   4.328  14.938  0.00  0.00    +0.000 A 
ATOM     10 CL   UNL     1       5.840   3.426  13.495  0.00  0.00    +0.000 Cl
ATOM     11  C   UNL     1       6.152   5.571  15.075  0.00  0.00    +0.000 A 
ATOM     12  C   UNL     1       5.909   6.194  16.274  0.00  0.00    +0.000 A 
ATOM     13  N   UNL     1       5.165   5.602  17.220  0.00  0.00    +0.000 NA
ATOM     14  C   UNL     1       3.302   2.452  17.752  0.00  0.00    +0.000 C 
ATOM     15  C   UNL     1       1.783   2.442  18.056  0.00  0.00    +0.000 C 
BRANCH   3  17
ATOM     16  C   UNL     1       1.728   2.911  21.830  0.00  0.00    +0.000 C 
ATOM     17  C   UNL     1       1.817   2.216  20.476  0.00  0.00    +0.000 C 
ENDBRANCH   3  17
ENDBRANCH   1  12
BRANCH   1  18
ATOM     18  C   UNL     1       6.740   7.860  17.916  0.00  0.00    +0.000 C 
BRANCH  18  19
ATOM     19  C   UNL     1       8.249   8.014  18.103  0.00  0.00    +0.000 C 
BRANCH  19  20
ATOM     20  C   UNL     1       8.574   9.510  18.156  0.00  0.00    +0.000 C 
BRANCH  20  21
ATOM     21  N   UNL     1       9.224   9.876  19.416  0.00  0.00    +0.000 N 
ATOM     22  H   UNL     1       9.814   9.125  19.760  0.00  0.00    +0.000 HD
BRANCH  21  23
ATOM     23  C   UNL     1       9.904  11.124  19.444  0.00  0.00    +0.000 A 
ATOM     24  C   UNL     1      10.703  11.523  18.366  0.00  0.00    +0.000 A 
ATOM     25  C   UNL     1      11.312  12.763  18.391  0.00  0.00    +0.000 A 
ATOM     26  N   UNL     1      11.162  13.649  19.387  0.00  0.00    +0.000 NA
ATOM     27  C   UNL     1      10.359  13.317  20.403  0.00  0.00    +0.000 A 
ATOM     28  C   UNL     1      10.196  14.265  21.400  0.00  0.00    +0.000 A 
ATOM     29  C   UNL     1       9.383  14.023  22.501  0.00  0.00    +0.000 A 
ATOM     30 CL   UNL     1       9.206  15.228  23.717  0.00  0.00    +0.000 Cl
ATOM     31  C   UNL     1       8.716  12.815  22.623  0.00  0.00    +0.000 A 
ATOM     32  C   UNL     1       8.865  11.846  21.628  0.00  0.00    +0.000 A 
ATOM     33  C   UNL     1       9.688  12.068  20.495  0.00  0.00    +0.000 A 
ENDBRANCH  21  23
ENDBRANCH  20  21
ENDBRANCH  19  20
ENDBRANCH  18  19
ENDBRANCH   1  18
TORSDOF 7
ENDMDL
