MODEL 1
REMARK VINA RESULT:      -9.6      0.000      0.000
REMARK  Name = 
REMARK  6 active torsions:
REMARK  status: ('A' for Active; 'I' for Inactive)
REMARK    1  A    between atoms: C_1  and  C_2
REMARK    2  A    between atoms: C_5  and  C_6
REMARK    3  A    between atoms: C_6  and  N_7
REMARK    4  A    between atoms: C_8  and  C_10
REMARK    5  A    between atoms: C_22  and  O_23
REMARK    6  A    between atoms: C_30  and  C_31
REMARK                            x       y       z     vdW  Elec       q    Type
REMARK                         _______ _______ _______ _____ _____    ______ ____
ROOT
ATOM      1  C   UNL     1      -2.722  12.085  18.998  0.00  0.00    +0.000 A 
ATOM      2  N   UNL     1      -2.286  13.251  19.585  0.00  0.00    +0.000 N 
ATOM      3  N   UNL     1      -1.103  13.102  20.249  0.00  0.00    +0.000 NA
ATOM      4  C   UNL     1      -0.747  11.866  19.905  0.00  0.00    +0.000 A 
ATOM      5  C   UNL     1      -1.569  11.338  18.899  0.00  0.00    +0.000 A 
ATOM      6  C   UNL     1      -1.018  10.113  18.267  0.00  0.00    +0.000 C 
ATOM      7  C   UNL     1       0.109   9.788  19.270  0.00  0.00    +0.000 C 
ATOM      8  C   UNL     1       1.429   9.063  19.089  0.00  0.00    +0.000 C 
ATOM      9  C   UNL     1       1.826   8.607  17.710  0.00  0.00    +0.000 C 
ATOM     10  C   UNL     1       3.146   7.865  17.875  0.00  0.00    +0.000 C 
ATOM     11  C   UNL     1       2.859   6.643  18.711  0.00  0.00    +0.000 A 
ATOM     12  C   UNL     1       3.438   5.441  18.302  0.00  0.00    +0.000 A 
ATOM     13  C   UNL     1       3.103   4.279  18.955  0.00  0.00    +0.000 A 
ATOM     14  C   UNL     1       2.172   4.315  20.005  0.00  0.00    +0.000 A 
ATOM     15  C   UNL     1       1.635   5.542  20.472  0.00  0.00    +0.000 A 
ATOM     16  C   UNL     1       2.001   6.740  19.858  0.00  0.00    +0.000 A 
ATOM     17  C   UNL     1       1.720   8.172  20.332  0.00  0.00    +0.000 C 
ATOM     18  C   UNL     1       0.894   8.762  21.552  0.00  0.00    +0.000 C 
ATOM     19  C   UNL     1       0.863  10.415  21.504  0.00  0.00    +0.000 C 
ATOM     20  C   UNL     1       0.502  11.074  20.106  0.00  0.00    +0.000 C 
ATOM     21  C   UNL     1       1.654  11.918  19.449  0.00  0.00    +0.000 C 
ATOM     22  H   UNL     1      -2.776  14.137  19.639  0.00  0.00    +0.000 HD
ENDROOT
BRANCH   1  24
ATOM     23  N   UNL     1      -4.945  12.715  19.223  0.00  0.00    +0.000 N 
ATOM     24  C   UNL     1      -4.085  11.780  18.682  0.00  0.00    +0.000 C 
ATOM     25  O   UNL     1      -4.449  10.882  17.927  0.00  0.00    +0.000 OA
ATOM     26  H   UNL     1      -4.566  13.564  19.633  0.00  0.00    +0.000 HD
BRANCH  23  27
ATOM     27  C   UNL     1      -6.348  12.778  18.880  0.00  0.00    +0.000 C 
BRANCH  27  32
ATOM     28  C   UNL     1      -7.699  17.417  15.808  0.00  0.00    +0.000 C 
ATOM     29  C   UNL     1      -7.338  16.221  16.634  0.00  0.00    +0.000 A 
ATOM     30  C   UNL     1      -7.236  16.281  18.020  0.00  0.00    +0.000 A 
ATOM     31  N   UNL     1      -6.924  15.205  18.792  0.00  0.00    +0.000 NA
ATOM     32  C   UNL     1      -6.718  14.036  18.122  0.00  0.00    +0.000 A 
ATOM     33  C   UNL     1      -6.817  13.984  16.735  0.00  0.00    +0.000 A 
ATOM     34  N   UNL     1      -7.128  15.058  15.971  0.00  0.00    +0.000 NA
ENDBRANCH  27  32
ENDBRANCH  23  27
ENDBRANCH   1  24
BRANCH  13  35
ATOM     35  O   UNL     1       3.646   3.084  18.588  0.00  0.00    +0.000 OA
ATOM     36  H   UNL     1       3.093   2.714  17.858  0.00  0.00    +0.000 HD
ENDBRANCH  13  35
TORSDOF 4
ENDMDL
MODEL 2
REMARK VINA RESULT:      -8.3      1.526      1.795
REMARK  Name = 
REMARK  6 active torsions:
REMARK  status: ('A' for Active; 'I' for Inactive)
REMARK    1  A    between atoms: C_1  and  C_2
REMARK    2  A    between atoms: C_5  and  C_6
REMARK    3  A    between atoms: C_6  and  N_7
REMARK    4  A    between atoms: C_8  and  C_10
REMARK    5  A    between atoms: C_22  and  O_23
REMARK    6  A    between atoms: C_30  and  C_31
REMARK                            x       y       z     vdW  Elec       q    Type
REMARK                         _______ _______ _______ _____ _____    ______ ____
ROOT
ATOM      1  C   UNL     1      -1.960  11.539  17.594  0.00  0.00    +0.000 A 
ATOM      2  N   UNL     1      -1.471  12.771  17.965  0.00  0.00    +0.000 N 
ATOM      3  N   UNL     1      -0.367  12.687  18.764  0.00  0.00    +0.000 NA
ATOM      4  C   UNL     1      -0.098  11.384  18.725  0.00  0.00    +0.000 A 
ATOM      5  C   UNL     1      -0.877  10.710  17.773  0.00  0.00    +0.000 A 
ATOM      6  C   UNL     1      -0.388   9.340  17.472  0.00  0.00    +0.000 C 
ATOM      7  C   UNL     1       0.615   9.162  18.632  0.00  0.00    +0.000 C 
ATOM      8  C   UNL     1       1.873   8.322  18.743  0.00  0.00    +0.000 C 
ATOM      9  C   UNL     1       2.343   7.550  17.539  0.00  0.00    +0.000 C 
ATOM     10  C   UNL     1       3.571   6.770  17.991  0.00  0.00    +0.000 C 
ATOM     11  C   UNL     1       3.103   5.783  19.030  0.00  0.00    +0.000 A 
ATOM     12  C   UNL     1       3.602   4.482  18.944  0.00  0.00    +0.000 A 
ATOM     13  C   UNL     1       3.107   3.517  19.788  0.00  0.00    +0.000 A 
ATOM     14  C   UNL     1       2.098   3.847  20.706  0.00  0.00    +0.000 A 
ATOM     15  C   UNL     1       1.638   5.181  20.847  0.00  0.00    +0.000 A 
ATOM     16  C   UNL     1       2.163   6.187  20.036  0.00  0.00    +0.000 A 
ATOM     17  C   UNL     1       1.974   7.704  20.168  0.00  0.00    +0.000 C 
ATOM     18  C   UNL     1       1.106   8.603  21.146  0.00  0.00    +0.000 C 
ATOM     19  C   UNL     1       1.230  10.204  20.750  0.00  0.00    +0.000 C 
ATOM     20  C   UNL     1       1.051  10.567  19.215  0.00  0.00    +0.000 C 
ATOM     21  C   UNL     1       2.327  11.164  18.517  0.00  0.00    +0.000 C 
ATOM     22  H   UNL     1      -1.881  13.681  17.781  0.00  0.00    +0.000 HD
ENDROOT
BRANCH   1  24
ATOM     23  N   UNL     1      -4.130  11.137  18.317  0.00  0.00    +0.000 N 
ATOM     24  C   UNL     1      -3.314  11.271  17.210  0.00  0.00    +0.000 C 
ATOM     25  O   UNL     1      -3.733  11.280  16.056  0.00  0.00    +0.000 OA
ATOM     26  H   UNL     1      -3.769  11.379  19.235  0.00  0.00    +0.000 HD
BRANCH  23  27
ATOM     27  C   UNL     1      -5.571  11.082  18.223  0.00  0.00    +0.000 C 
BRANCH  27  32
ATOM     28  C   UNL     1      -7.911  16.204  19.264  0.00  0.00    +0.000 C 
ATOM     29  C   UNL     1      -7.325  14.855  18.982  0.00  0.00    +0.000 A 
ATOM     30  C   UNL     1      -7.917  13.961  18.095  0.00  0.00    +0.000 A 
ATOM     31  N   UNL     1      -7.395  12.737  17.812  0.00  0.00    +0.000 NA
ATOM     32  C   UNL     1      -6.232  12.427  18.451  0.00  0.00    +0.000 A 
ATOM     33  C   UNL     1      -5.647  13.324  19.340  0.00  0.00    +0.000 A 
ATOM     34  N   UNL     1      -6.171  14.541  19.619  0.00  0.00    +0.000 NA
ENDBRANCH  27  32
ENDBRANCH  23  27
ENDBRANCH   1  24
BRANCH  13  35
ATOM     35  O   UNL     1       3.568   2.235  19.738  0.00  0.00    +0.000 OA
ATOM     36  H   UNL     1       4.401   2.195  20.268  0.00  0.00    +0.000 HD
ENDBRANCH  13  35
TORSDOF 4
ENDMDL
MODEL 3
REMARK VINA RESULT:      -8.2      1.733      2.137
REMARK  Name = 
REMARK  6 active torsions:
REMARK  status: ('A' for Active; 'I' for Inactive)
REMARK    1  A    between atoms: C_1  and  C_2
REMARK    2  A    between atoms: C_5  and  C_6
REMARK    3  A    between atoms: C_6  and  N_7
REMARK    4  A    between atoms: C_8  and  C_10
REMARK    5  A    between atoms: C_22  and  O_23
REMARK    6  A    between atoms: C_30  and  C_31
REMARK                            x       y       z     vdW  Elec       q    Type
REMARK                         _______ _______ _______ _____ _____    ______ ____
ROOT
ATOM      1  C   UNL     1      -2.540  12.209  19.019  0.00  0.00    +0.000 A 
ATOM      2  N   UNL     1      -1.988  13.398  19.440  0.00  0.00    +0.000 N 
ATOM      3  N   UNL     1      -0.749  13.243  19.990  0.00  0.00    +0.000 NA
ATOM      4  C   UNL     1      -0.492  11.962  19.736  0.00  0.00    +0.000 A 
ATOM      5  C   UNL     1      -1.442  11.391  18.877  0.00  0.00    +0.000 A 
ATOM      6  C   UNL     1      -1.022  10.083  18.316  0.00  0.00    +0.000 C 
ATOM      7  C   UNL     1       0.190   9.787  19.226  0.00  0.00    +0.000 C 
ATOM      8  C   UNL     1       1.446   8.972  18.983  0.00  0.00    +0.000 C 
ATOM      9  C   UNL     1       1.670   8.367  17.623  0.00  0.00    +0.000 C 
ATOM     10  C   UNL     1       2.962   7.569  17.724  0.00  0.00    +0.000 C 
ATOM     11  C   UNL     1       2.709   6.449  18.701  0.00  0.00    +0.000 A 
ATOM     12  C   UNL     1       3.182   5.182  18.356  0.00  0.00    +0.000 A 
ATOM     13  C   UNL     1       2.863   4.107  19.152  0.00  0.00    +0.000 A 
ATOM     14  C   UNL     1       2.054   4.296  20.283  0.00  0.00    +0.000 A 
ATOM     15  C   UNL     1       1.630   5.590  20.679  0.00  0.00    +0.000 A 
ATOM     16  C   UNL     1       1.985   6.702  19.915  0.00  0.00    +0.000 A 
ATOM     17  C   UNL     1       1.826   8.186  20.271  0.00  0.00    +0.000 C 
ATOM     18  C   UNL     1       1.166   8.935  21.505  0.00  0.00    +0.000 C 
ATOM     19  C   UNL     1       1.209  10.575  21.297  0.00  0.00    +0.000 C 
ATOM     20  C   UNL     1       0.731  11.120  19.885  0.00  0.00    +0.000 C 
ATOM     21  C   UNL     1       1.845  11.831  19.033  0.00  0.00    +0.000 C 
ATOM     22  H   UNL     1      -2.427  14.312  19.456  0.00  0.00    +0.000 HD
ENDROOT
BRANCH   1  24
ATOM     23  N   UNL     1      -4.621  12.218  20.051  0.00  0.00    +0.000 N 
ATOM     24  C   UNL     1      -3.943  11.956  18.876  0.00  0.00    +0.000 C 
ATOM     25  O   UNL     1      -4.502  11.665  17.822  0.00  0.00    +0.000 OA
ATOM     26  H   UNL     1      -4.137  12.685  20.812  0.00  0.00    +0.000 HD
BRANCH  23  27
ATOM     27  C   UNL     1      -6.063  12.260  20.128  0.00  0.00    +0.000 C 
BRANCH  27  32
ATOM     28  C   UNL     1      -7.917  17.224  22.300  0.00  0.00    +0.000 C 
ATOM     29  C   UNL     1      -7.435  15.914  21.758  0.00  0.00    +0.000 A 
ATOM     30  C   UNL     1      -7.695  14.706  22.399  0.00  0.00    +0.000 A 
ATOM     31  N   UNL     1      -7.280  13.503  21.919  0.00  0.00    +0.000 NA
ATOM     32  C   UNL     1      -6.587  13.541  20.746  0.00  0.00    +0.000 A 
ATOM     33  C   UNL     1      -6.327  14.752  20.112  0.00  0.00    +0.000 A 
ATOM     34  N   UNL     1      -6.741  15.948  20.595  0.00  0.00    +0.000 NA
ENDBRANCH  27  32
ENDBRANCH  23  27
ENDBRANCH   1  24
BRANCH  13  35
ATOM     35  O   UNL     1       3.306   2.854  18.852  0.00  0.00    +0.000 OA
ATOM     36  H   UNL     1       4.144   2.703  19.354  0.00  0.00    +0.000 HD
ENDBRANCH  13  35
TORSDOF 4
ENDMDL
MODEL 4
REMARK VINA RESULT:      -8.2      5.371     10.311
REMARK  Name = 
REMARK  6 active torsions:
REMARK  status: ('A' for Active; 'I' for Inactive)
REMARK    1  A    between atoms: C_1  and  C_2
REMARK    2  A    between atoms: C_5  and  C_6
REMARK    3  A    between atoms: C_6  and  N_7
REMARK    4  A    between atoms: C_8  and  C_10
REMARK    5  A    between atoms: C_22  and  O_23
REMARK    6  A    between atoms: C_30  and  C_31
REMARK                            x       y       z     vdW  Elec       q    Type
REMARK                         _______ _______ _______ _____ _____    ______ ____
ROOT
ATOM      1  C   UNL     1       2.320  13.263  18.138  0.00  0.00    +0.000 A 
ATOM      2  N   UNL     1       2.728  12.037  17.664  0.00  0.00    +0.000 N 
ATOM      3  N   UNL     1       2.030  10.997  18.209  0.00  0.00    +0.000 NA
ATOM      4  C   UNL     1       1.079  11.631  18.890  0.00  0.00    +0.000 A 
ATOM      5  C   UNL     1       1.054  13.005  18.614  0.00  0.00    +0.000 A 
ATOM      6  C   UNL     1      -0.176  13.683  19.093  0.00  0.00    +0.000 C 
ATOM      7  C   UNL     1      -0.750  12.571  19.997  0.00  0.00    +0.000 C 
ATOM      8  C   UNL     1      -2.177  12.249  20.401  0.00  0.00    +0.000 C 
ATOM      9  C   UNL     1      -3.302  13.056  19.809  0.00  0.00    +0.000 C 
ATOM     10  C   UNL     1      -4.578  12.539  20.457  0.00  0.00    +0.000 C 
ATOM     11  C   UNL     1      -4.486  12.866  21.927  0.00  0.00    +0.000 A 
ATOM     12  C   UNL     1      -5.629  13.382  22.538  0.00  0.00    +0.000 A 
ATOM     13  C   UNL     1      -5.556  13.815  23.841  0.00  0.00    +0.000 A 
ATOM     14  C   UNL     1      -4.333  13.749  24.527  0.00  0.00    +0.000 A 
ATOM     15  C   UNL     1      -3.187  13.159  23.936  0.00  0.00    +0.000 A 
ATOM     16  C   UNL     1      -3.252  12.666  22.633  0.00  0.00    +0.000 A 
ATOM     17  C   UNL     1      -2.219  11.807  21.893  0.00  0.00    +0.000 C 
ATOM     18  C   UNL     1      -0.771  11.285  22.281  0.00  0.00    +0.000 C 
ATOM     19  C   UNL     1      -0.078  10.464  21.025  0.00  0.00    +0.000 C 
ATOM     20  C   UNL     1      -0.147  11.162  19.601  0.00  0.00    +0.000 C 
ATOM     21  C   UNL     1      -1.000  10.398  18.524  0.00  0.00    +0.000 C 
ATOM     22  H   UNL     1       3.509  11.840  17.048  0.00  0.00    +0.000 HD
ENDROOT
BRANCH   1  24
ATOM     23  N   UNL     1       4.465  14.143  18.013  0.00  0.00    +0.000 N 
ATOM     24  C   UNL     1       3.126  14.446  18.164  0.00  0.00    +0.000 C 
ATOM     25  O   UNL     1       2.691  15.594  18.191  0.00  0.00    +0.000 OA
ATOM     26  H   UNL     1       4.737  13.199  17.754  0.00  0.00    +0.000 HD
BRANCH  23  27
ATOM     27  C   UNL     1       5.474  15.152  17.782  0.00  0.00    +0.000 C 
BRANCH  27  32
ATOM     28  C   UNL     1      10.707  12.827  17.762  0.00  0.00    +0.000 C 
ATOM     29  C   UNL     1       9.349  13.456  17.785  0.00  0.00    +0.000 A 
ATOM     30  C   UNL     1       9.149  14.775  18.179  0.00  0.00    +0.000 A 
ATOM     31  N   UNL     1       7.927  15.371  18.195  0.00  0.00    +0.000 NA
ATOM     32  C   UNL     1       6.883  14.594  17.789  0.00  0.00    +0.000 A 
ATOM     33  C   UNL     1       7.089  13.274  17.400  0.00  0.00    +0.000 A 
ATOM     34  N   UNL     1       8.308  12.685  17.387  0.00  0.00    +0.000 NA
ENDBRANCH  27  32
ENDBRANCH  23  27
ENDBRANCH   1  24
BRANCH  13  35
ATOM     35  O   UNL     1      -6.649  14.325  24.475  0.00  0.00    +0.000 OA
ATOM     36  H   UNL     1      -7.382  13.669  24.385  0.00  0.00    +0.000 HD
ENDBRANCH  13  35
TORSDOF 4
ENDMDL
MODEL 5
REMARK VINA RESULT:      -8.1      4.037      7.009
REMARK  Name = 
REMARK  6 active torsions:
REMARK  status: ('A' for Active; 'I' for Inactive)
REMARK    1  A    between atoms: C_1  and  C_2
REMARK    2  A    between atoms: C_5  and  C_6
REMARK    3  A    between atoms: C_6  and  N_7
REMARK    4  A    between atoms: C_8  and  C_10
REMARK    5  A    between atoms: C_22  and  O_23
REMARK    6  A    between atoms: C_30  and  C_31
REMARK                            x       y       z     vdW  Elec       q    Type
REMARK                         _______ _______ _______ _____ _____    ______ ____
ROOT
ATOM      1  C   UNL     1       1.760   8.185  19.458  0.00  0.00    +0.000 A 
ATOM      2  N   UNL     1       1.665   7.574  20.688  0.00  0.00    +0.000 N 
ATOM      3  N   UNL     1       2.187   6.313  20.696  0.00  0.00    +0.000 NA
ATOM      4  C   UNL     1       2.754   6.240  19.494  0.00  0.00    +0.000 A 
ATOM      5  C   UNL     1       2.767   7.481  18.839  0.00  0.00    +0.000 A 
ATOM      6  C   UNL     1       3.664   7.516  17.657  0.00  0.00    +0.000 C 
ATOM      7  C   UNL     1       3.943   6.006  17.498  0.00  0.00    +0.000 C 
ATOM      8  C   UNL     1       5.131   5.265  16.913  0.00  0.00    +0.000 C 
ATOM      9  C   UNL     1       6.325   6.056  16.448  0.00  0.00    +0.000 C 
ATOM     10  C   UNL     1       7.300   5.043  15.863  0.00  0.00    +0.000 C 
ATOM     11  C   UNL     1       6.631   4.444  14.651  0.00  0.00    +0.000 A 
ATOM     12  C   UNL     1       7.410   4.288  13.504  0.00  0.00    +0.000 A 
ATOM     13  C   UNL     1       6.813   3.868  12.339  0.00  0.00    +0.000 A 
ATOM     14  C   UNL     1       5.432   3.621  12.317  0.00  0.00    +0.000 A 
ATOM     15  C   UNL     1       4.648   3.707  13.495  0.00  0.00    +0.000 A 
ATOM     16  C   UNL     1       5.242   4.082  14.700  0.00  0.00    +0.000 A 
ATOM     17  C   UNL     1       4.641   4.025  16.110  0.00  0.00    +0.000 C 
ATOM     18  C   UNL     1       3.203   3.635  16.656  0.00  0.00    +0.000 C 
ATOM     19  C   UNL     1       3.108   3.856  18.292  0.00  0.00    +0.000 C 
ATOM     20  C   UNL     1       3.653   5.238  18.851  0.00  0.00    +0.000 C 
ATOM     21  C   UNL     1       4.910   5.129  19.789  0.00  0.00    +0.000 C 
ATOM     22  H   UNL     1       1.195   7.920  21.517  0.00  0.00    +0.000 HD
ENDROOT
BRANCH   1  24
ATOM     23  N   UNL     1       0.542  10.078  20.029  0.00  0.00    +0.000 N 
ATOM     24  C   UNL     1       0.909   9.240  18.994  0.00  0.00    +0.000 C 
ATOM     25  O   UNL     1       0.635   9.456  17.816  0.00  0.00    +0.000 OA
ATOM     26  H   UNL     1       0.995   9.984  20.932  0.00  0.00    +0.000 HD
BRANCH  23  27
ATOM     27  C   UNL     1      -0.128  11.341  19.811  0.00  0.00    +0.000 C 
BRANCH  27  32
ATOM     28  C   UNL     1      -3.791  12.460  24.067  0.00  0.00    +0.000 C 
ATOM     29  C   UNL     1      -2.854  12.174  22.935  0.00  0.00    +0.000 A 
ATOM     30  C   UNL     1      -3.077  12.656  21.649  0.00  0.00    +0.000 A 
ATOM     31  N   UNL     1      -2.232  12.421  20.608  0.00  0.00    +0.000 NA
ATOM     32  C   UNL     1      -1.128  11.677  20.899  0.00  0.00    +0.000 A 
ATOM     33  C   UNL     1      -0.913  11.195  22.186  0.00  0.00    +0.000 A 
ATOM     34  N   UNL     1      -1.757  11.431  23.219  0.00  0.00    +0.000 NA
ENDBRANCH  27  32
ENDBRANCH  23  27
ENDBRANCH   1  24
BRANCH  13  35
ATOM     35  O   UNL     1       7.538   3.703  11.197  0.00  0.00    +0.000 OA
ATOM     36  H   UNL     1       7.034   3.092  10.607  0.00  0.00    +0.000 HD
ENDBRANCH  13  35
TORSDOF 4
ENDMDL
MODEL 6
REMARK VINA RESULT:      -8.1      0.902      1.299
REMARK  Name = 
REMARK  6 active torsions:
REMARK  status: ('A' for Active; 'I' for Inactive)
REMARK    1  A    between atoms: C_1  and  C_2
REMARK    2  A    between atoms: C_5  and  C_6
REMARK    3  A    between atoms: C_6  and  N_7
REMARK    4  A    between atoms: C_8  and  C_10
REMARK    5  A    between atoms: C_22  and  O_23
REMARK    6  A    between atoms: C_30  and  C_31
REMARK                            x       y       z     vdW  Elec       q    Type
REMARK                         _______ _______ _______ _____ _____    ______ ____
ROOT
ATOM      1  C   UNL     1      -2.357  11.905  19.043  0.00  0.00    +0.000 A 
ATOM      2  N   UNL     1      -1.935  13.002  19.759  0.00  0.00    +0.000 N 
ATOM      3  N   UNL     1      -0.799  12.763  20.478  0.00  0.00    +0.000 NA
ATOM      4  C   UNL     1      -0.448  11.555  20.045  0.00  0.00    +0.000 A 
ATOM      5  C   UNL     1      -1.217  11.141  18.947  0.00  0.00    +0.000 A 
ATOM      6  C   UNL     1      -0.653   9.963  18.241  0.00  0.00    +0.000 C 
ATOM      7  C   UNL     1       0.403   9.520  19.277  0.00  0.00    +0.000 C 
ATOM      8  C   UNL     1       1.716   8.779  19.111  0.00  0.00    +0.000 C 
ATOM      9  C   UNL     1       2.190   8.438  17.723  0.00  0.00    +0.000 C 
ATOM     10  C   UNL     1       3.481   7.650  17.900  0.00  0.00    +0.000 C 
ATOM     11  C   UNL     1       3.116   6.366  18.602  0.00  0.00    +0.000 A 
ATOM     12  C   UNL     1       3.695   5.191  18.121  0.00  0.00    +0.000 A 
ATOM     13  C   UNL     1       3.295   3.984  18.644  0.00  0.00    +0.000 A 
ATOM     14  C   UNL     1       2.301   3.951  19.635  0.00  0.00    +0.000 A 
ATOM     15  C   UNL     1       1.762   5.144  20.178  0.00  0.00    +0.000 A 
ATOM     16  C   UNL     1       2.190   6.382  19.698  0.00  0.00    +0.000 A 
ATOM     17  C   UNL     1       1.909   7.773  20.283  0.00  0.00    +0.000 C 
ATOM     18  C   UNL     1       1.021   8.273  21.499  0.00  0.00    +0.000 C 
ATOM     19  C   UNL     1       1.027   9.924  21.600  0.00  0.00    +0.000 C 
ATOM     20  C   UNL     1       0.768  10.715  20.249  0.00  0.00    +0.000 C 
ATOM     21  C   UNL     1       1.977  11.584  19.742  0.00  0.00    +0.000 C 
ATOM     22  H   UNL     1      -2.409  13.892  19.864  0.00  0.00    +0.000 HD
ENDROOT
BRANCH   1  24
ATOM     23  N   UNL     1      -4.550  12.669  19.049  0.00  0.00    +0.000 N 
ATOM     24  C   UNL     1      -3.704  11.666  18.618  0.00  0.00    +0.000 C 
ATOM     25  O   UNL     1      -4.054  10.761  17.865  0.00  0.00    +0.000 OA
ATOM     26  H   UNL     1      -4.157  13.510  19.461  0.00  0.00    +0.000 HD
BRANCH  23  27
ATOM     27  C   UNL     1      -5.912  12.797  18.582  0.00  0.00    +0.000 C 
BRANCH  27  32
ATOM     28  C   UNL     1      -7.847  18.134  19.334  0.00  0.00    +0.000 C 
ATOM     29  C   UNL     1      -7.366  16.732  19.124  0.00  0.00    +0.000 A 
ATOM     30  C   UNL     1      -7.915  15.897  18.156  0.00  0.00    +0.000 A 
ATOM     31  N   UNL     1      -7.485  14.625  17.936  0.00  0.00    +0.000 NA
ATOM     32  C   UNL     1      -6.459  14.203  18.728  0.00  0.00    +0.000 A 
ATOM     33  C   UNL     1      -5.917  15.040  19.698  0.00  0.00    +0.000 A 
ATOM     34  N   UNL     1      -6.350  16.306  19.912  0.00  0.00    +0.000 NA
ENDBRANCH  27  32
ENDBRANCH  23  27
ENDBRANCH   1  24
BRANCH  13  35
ATOM     35  O   UNL     1       3.836   2.812  18.204  0.00  0.00    +0.000 OA
ATOM     36  H   UNL     1       3.285   2.493  17.449  0.00  0.00    +0.000 HD
ENDBRANCH  13  35
TORSDOF 4
ENDMDL
MODEL 7
REMARK VINA RESULT:      -8.0      4.216     10.679
REMARK  Name = 
REMARK  6 active torsions:
REMARK  status: ('A' for Active; 'I' for Inactive)
REMARK    1  A    between atoms: C_1  and  C_2
REMARK    2  A    between atoms: C_5  and  C_6
REMARK    3  A    between atoms: C_6  and  N_7
REMARK    4  A    between atoms: C_8  and  C_10
REMARK    5  A    between atoms: C_22  and  O_23
REMARK    6  A    between atoms: C_30  and  C_31
REMARK                            x       y       z     vdW  Elec       q    Type
REMARK                         _______ _______ _______ _____ _____    ______ ____
ROOT
ATOM      1  C   UNL     1       1.297   9.263  19.643  0.00  0.00    +0.000 A 
ATOM      2  N   UNL     1       1.863   9.768  18.494  0.00  0.00    +0.000 N 
ATOM      3  N   UNL     1       1.144  10.795  17.954  0.00  0.00    +0.000 NA
ATOM      4  C   UNL     1       0.227  11.014  18.894  0.00  0.00    +0.000 A 
ATOM      5  C   UNL     1       0.489  10.293  20.068  0.00  0.00    +0.000 A 
ATOM      6  C   UNL     1      -0.310  10.750  21.232  0.00  0.00    +0.000 C 
ATOM      7  C   UNL     1      -1.340  11.643  20.507  0.00  0.00    +0.000 C 
ATOM      8  C   UNL     1      -2.124  12.852  20.981  0.00  0.00    +0.000 C 
ATOM      9  C   UNL     1      -1.865  13.392  22.363  0.00  0.00    +0.000 C 
ATOM     10  C   UNL     1      -2.842  14.544  22.555  0.00  0.00    +0.000 C 
ATOM     11  C   UNL     1      -4.227  13.949  22.534  0.00  0.00    +0.000 A 
ATOM     12  C   UNL     1      -5.130  14.402  23.497  0.00  0.00    +0.000 A 
ATOM     13  C   UNL     1      -6.361  13.798  23.599  0.00  0.00    +0.000 A 
ATOM     14  C   UNL     1      -6.683  12.728  22.749  0.00  0.00    +0.000 A 
ATOM     15  C   UNL     1      -5.799  12.312  21.722  0.00  0.00    +0.000 A 
ATOM     16  C   UNL     1      -4.565  12.944  21.566  0.00  0.00    +0.000 A 
ATOM     17  C   UNL     1      -3.570  12.806  20.407  0.00  0.00    +0.000 C 
ATOM     18  C   UNL     1      -3.544  11.894  19.109  0.00  0.00    +0.000 C 
ATOM     19  C   UNL     1      -2.146  12.116  18.254  0.00  0.00    +0.000 C 
ATOM     20  C   UNL     1      -0.796  12.083  19.087  0.00  0.00    +0.000 C 
ATOM     21  C   UNL     1       0.002  13.438  19.118  0.00  0.00    +0.000 C 
ATOM     22  H   UNL     1       2.671   9.412  17.995  0.00  0.00    +0.000 HD
ENDROOT
BRANCH   1  24
ATOM     23  N   UNL     1       2.277   7.188  19.288  0.00  0.00    +0.000 N 
ATOM     24  C   UNL     1       1.497   7.938  20.147  0.00  0.00    +0.000 C 
ATOM     25  O   UNL     1       1.136   7.544  21.253  0.00  0.00    +0.000 OA
ATOM     26  H   UNL     1       2.742   7.645  18.510  0.00  0.00    +0.000 HD
BRANCH  23  27
ATOM     27  C   UNL     1       2.816   5.896  19.648  0.00  0.00    +0.000 C 
BRANCH  27  32
ATOM     28  C   UNL     1       7.485   4.388  16.696  0.00  0.00    +0.000 C 
ATOM     29  C   UNL     1       6.254   4.797  17.445  0.00  0.00    +0.000 A 
ATOM     30  C   UNL     1       5.101   5.227  16.796  0.00  0.00    +0.000 A 
ATOM     31  N   UNL     1       3.967   5.590  17.455  0.00  0.00    +0.000 NA
ATOM     32  C   UNL     1       4.018   5.502  18.814  0.00  0.00    +0.000 A 
ATOM     33  C   UNL     1       5.175   5.075  19.456  0.00  0.00    +0.000 A 
ATOM     34  N   UNL     1       6.302   4.715  18.796  0.00  0.00    +0.000 NA
ENDBRANCH  27  32
ENDBRANCH  23  27
ENDBRANCH   1  24
BRANCH  13  35
ATOM     35  O   UNL     1      -7.272  14.210  24.525  0.00  0.00    +0.000 OA
ATOM     36  H   UNL     1      -8.158  13.877  24.243  0.00  0.00    +0.000 HD
ENDBRANCH  13  35
TORSDOF 4
ENDMDL
MODEL 8
REMARK VINA RESULT:      -7.8      4.742      7.355
REMARK  Name = 
REMARK  6 active torsions:
REMARK  status: ('A' for Active; 'I' for Inactive)
REMARK    1  A    between atoms: C_1  and  C_2
REMARK    2  A    between atoms: C_5  and  C_6
REMARK    3  A    between atoms: C_6  and  N_7
REMARK    4  A    between atoms: C_8  and  C_10
REMARK    5  A    between atoms: C_22  and  O_23
REMARK    6  A    between atoms: C_30  and  C_31
REMARK                            x       y       z     vdW  Elec       q    Type
REMARK                         _______ _______ _______ _____ _____    ______ ____
ROOT
ATOM      1  C   UNL     1       1.777   8.143  19.491  0.00  0.00    +0.000 A 
ATOM      2  N   UNL     1       1.667   7.513  20.709  0.00  0.00    +0.000 N 
ATOM      3  N   UNL     1       2.172   6.245  20.700  0.00  0.00    +0.000 NA
ATOM      4  C   UNL     1       2.746   6.185  19.500  0.00  0.00    +0.000 A 
ATOM      5  C   UNL     1       2.779   7.436  18.866  0.00  0.00    +0.000 A 
ATOM      6  C   UNL     1       3.685   7.479  17.690  0.00  0.00    +0.000 C 
ATOM      7  C   UNL     1       3.944   5.968  17.508  0.00  0.00    +0.000 C 
ATOM      8  C   UNL     1       5.127   5.222  16.919  0.00  0.00    +0.000 C 
ATOM      9  C   UNL     1       6.334   6.004  16.474  0.00  0.00    +0.000 C 
ATOM     10  C   UNL     1       7.299   4.988  15.878  0.00  0.00    +0.000 C 
ATOM     11  C   UNL     1       6.630   4.418  14.652  0.00  0.00    +0.000 A 
ATOM     12  C   UNL     1       7.414   4.271  13.507  0.00  0.00    +0.000 A 
ATOM     13  C   UNL     1       6.819   3.878  12.332  0.00  0.00    +0.000 A 
ATOM     14  C   UNL     1       5.435   3.649  12.297  0.00  0.00    +0.000 A 
ATOM     15  C   UNL     1       4.645   3.726  13.472  0.00  0.00    +0.000 A 
ATOM     16  C   UNL     1       5.237   4.074  14.686  0.00  0.00    +0.000 A 
ATOM     17  C   UNL     1       4.626   4.001  16.092  0.00  0.00    +0.000 C 
ATOM     18  C   UNL     1       3.179   3.622  16.622  0.00  0.00    +0.000 C 
ATOM     19  C   UNL     1       3.077   3.816  18.261  0.00  0.00    +0.000 C 
ATOM     20  C   UNL     1       3.636   5.182  18.846  0.00  0.00    +0.000 C 
ATOM     21  C   UNL     1       4.886   5.041  19.790  0.00  0.00    +0.000 C 
ATOM     22  H   UNL     1       1.196   7.852  21.541  0.00  0.00    +0.000 HD
ENDROOT
BRANCH   1  24
ATOM     23  N   UNL     1       0.402   9.911  20.103  0.00  0.00    +0.000 N 
ATOM     24  C   UNL     1       0.943   9.216  19.039  0.00  0.00    +0.000 C 
ATOM     25  O   UNL     1       0.816   9.563  17.868  0.00  0.00    +0.000 OA
ATOM     26  H   UNL     1       0.737   9.724  21.043  0.00  0.00    +0.000 HD
BRANCH  23  27
ATOM     27  C   UNL     1      -0.296  11.167  19.943  0.00  0.00    +0.000 C 
BRANCH  27  32
ATOM     28  C   UNL     1       3.148  15.724  19.549  0.00  0.00    +0.000 C 
ATOM     29  C   UNL     1       2.266  14.521  19.671  0.00  0.00    +0.000 A 
ATOM     30  C   UNL     1       2.351  13.646  20.750  0.00  0.00    +0.000 A 
ATOM     31  N   UNL     1       1.551  12.555  20.889  0.00  0.00    +0.000 NA
ATOM     32  C   UNL     1       0.636  12.361  19.897  0.00  0.00    +0.000 A 
ATOM     33  C   UNL     1       0.559  13.237  18.819  0.00  0.00    +0.000 A 
ATOM     34  N   UNL     1       1.359  14.322  18.685  0.00  0.00    +0.000 NA
ENDBRANCH  27  32
ENDBRANCH  23  27
ENDBRANCH   1  24
BRANCH  13  35
ATOM     35  O   UNL     1       7.550   3.722  11.192  0.00  0.00    +0.000 OA
ATOM     36  H   UNL     1       8.055   4.558  11.042  0.00  0.00    +0.000 HD
ENDBRANCH  13  35
TORSDOF 4
ENDMDL
MODEL 9
REMARK VINA RESULT:      -7.8      4.103     10.447
REMARK  Name = 
REMARK  6 active torsions:
REMARK  status: ('A' for Active; 'I' for Inactive)
REMARK    1  A    between atoms: C_1  and  C_2
REMARK    2  A    between atoms: C_5  and  C_6
REMARK    3  A    between atoms: C_6  and  N_7
REMARK    4  A    between atoms: C_8  and  C_10
REMARK    5  A    between atoms: C_22  and  O_23
REMARK    6  A    between atoms: C_30  and  C_31
REMARK                            x       y       z     vdW  Elec       q    Type
REMARK                         _______ _______ _______ _____ _____    ______ ____
ROOT
ATOM      1  C   UNL     1       1.640   9.200  19.313  0.00  0.00    +0.000 A 
ATOM      2  N   UNL     1       2.388   9.922  18.412  0.00  0.00    +0.000 N 
ATOM      3  N   UNL     1       1.738  11.029  17.946  0.00  0.00    +0.000 NA
ATOM      4  C   UNL     1       0.651  11.054  18.713  0.00  0.00    +0.000 A 
ATOM      5  C   UNL     1       0.719  10.121  19.759  0.00  0.00    +0.000 A 
ATOM      6  C   UNL     1      -0.306  10.336  20.811  0.00  0.00    +0.000 C 
ATOM      7  C   UNL     1      -1.220  11.343  20.080  0.00  0.00    +0.000 C 
ATOM      8  C   UNL     1      -2.134  12.431  20.612  0.00  0.00    +0.000 C 
ATOM      9  C   UNL     1      -2.166  12.695  22.094  0.00  0.00    +0.000 C 
ATOM     10  C   UNL     1      -3.214  13.779  22.307  0.00  0.00    +0.000 C 
ATOM     11  C   UNL     1      -4.542  13.188  21.905  0.00  0.00    +0.000 A 
ATOM     12  C   UNL     1      -5.630  13.438  22.742  0.00  0.00    +0.000 A 
ATOM     13  C   UNL     1      -6.829  12.814  22.488  0.00  0.00    +0.000 A 
ATOM     14  C   UNL     1      -6.934  11.926  21.406  0.00  0.00    +0.000 A 
ATOM     15  C   UNL     1      -5.854  11.725  20.510  0.00  0.00    +0.000 A 
ATOM     16  C   UNL     1      -4.644  12.386  20.719  0.00  0.00    +0.000 A 
ATOM     17  C   UNL     1      -3.442  12.484  19.770  0.00  0.00    +0.000 C 
ATOM     18  C   UNL     1      -3.129  11.841  18.354  0.00  0.00    +0.000 C 
ATOM     19  C   UNL     1      -1.607  12.237  17.844  0.00  0.00    +0.000 C 
ATOM     20  C   UNL     1      -0.438  12.055  18.903  0.00  0.00    +0.000 C 
ATOM     21  C   UNL     1       0.276  13.385  19.342  0.00  0.00    +0.000 C 
ATOM     22  H   UNL     1       3.291   9.678  18.021  0.00  0.00    +0.000 HD
ENDROOT
BRANCH   1  24
ATOM     23  N   UNL     1       2.559   7.186  18.611  0.00  0.00    +0.000 N 
ATOM     24  C   UNL     1       1.801   7.804  19.587  0.00  0.00    +0.000 C 
ATOM     25  O   UNL     1       1.430   7.240  20.613  0.00  0.00    +0.000 OA
ATOM     26  H   UNL     1       3.038   7.754  17.918  0.00  0.00    +0.000 HD
BRANCH  23  27
ATOM     27  C   UNL     1       3.062   5.838  18.748  0.00  0.00    +0.000 C 
BRANCH  27  32
ATOM     28  C   UNL     1       6.454   4.037  14.501  0.00  0.00    +0.000 C 
ATOM     29  C   UNL     1       5.579   4.535  15.609  0.00  0.00    +0.000 A 
ATOM     30  C   UNL     1       5.313   5.888  15.792  0.00  0.00    +0.000 A 
ATOM     31  N   UNL     1       4.509   6.362  16.782  0.00  0.00    +0.000 NA
ATOM     32  C   UNL     1       3.960   5.421  17.601  0.00  0.00    +0.000 A 
ATOM     33  C   UNL     1       4.233   4.069  17.415  0.00  0.00    +0.000 A 
ATOM     34  N   UNL     1       5.035   3.602  16.427  0.00  0.00    +0.000 NA
ENDBRANCH  27  32
ENDBRANCH  23  27
ENDBRANCH   1  24
BRANCH  13  35
ATOM     35  O   UNL     1      -7.917  13.031  23.280  0.00  0.00    +0.000 OA
ATOM     36  H   UNL     1      -7.662  12.804  24.207  0.00  0.00    +0.000 HD
ENDBRANCH  13  35
TORSDOF 4
ENDMDL
