MODEL 1
REMARK VINA RESULT:      -9.6      0.000      0.000
REMARK  Name = 
REMARK  10 active torsions:
REMARK  status: ('A' for Active; 'I' for Inactive)
REMARK    1  A    between atoms: C_1  and  C_2
REMARK    2  A    between atoms: C_2  and  C_3
REMARK    3  A    between atoms: C_3  and  C_4
REMARK    4  A    between atoms: C_4  and  C_5
REMARK    5  A    between atoms: N_7  and  C_8
REMARK    6  A    between atoms: N_7  and  S_30
REMARK    7  A    between atoms: C_11  and  N_12
REMARK    8  A    between atoms: N_12  and  C_13
REMARK    9  A    between atoms: C_23  and  N_24
REMARK   10  A    between atoms: S_30  and  C_31
REMARK                            x       y       z     vdW  Elec       q    Type
REMARK                         _______ _______ _______ _____ _____    ______ ____
ROOT
ATOM      1  N   UNL     1       2.886   6.183  19.278  0.00  0.00    +0.000 N 
ATOM      2  H   UNL     1       2.742   5.684  20.167  0.00  0.00    +0.000 HD
ENDROOT
BRANCH   1   3
ATOM      3  C   UNL     1       3.178   5.283  18.153  0.00  0.00    +0.000 A 
ATOM      4  C   UNL     1       4.535   5.285  17.607  0.00  0.00    +0.000 A 
ATOM      5  C   UNL     1       5.535   6.245  17.890  0.00  0.00    +0.000 A 
ATOM      6  C   UNL     1       6.814   6.140  17.305  0.00  0.00    +0.000 A 
ATOM      7  C   UNL     1       7.114   5.109  16.411  0.00  0.00    +0.000 A 
ATOM      8  C   UNL     1       6.162   4.140  16.140  0.00  0.00    +0.000 A 
ATOM      9  C   UNL     1       4.920   4.205  16.764  0.00  0.00    +0.000 A 
ATOM     10  N   UNL     1       4.147   3.111  16.721  0.00  0.00    +0.000 NA
ATOM     11  C   UNL     1       3.107   3.059  17.572  0.00  0.00    +0.000 A 
ATOM     12  C   UNL     1       3.463   2.575  18.874  0.00  0.00    +0.000 A 
ATOM     13  C   UNL     1       2.625   2.838  19.987  0.00  0.00    +0.000 A 
ATOM     14  C   UNL     1       1.350   3.345  19.736  0.00  0.00    +0.000 A 
ATOM     15  C   UNL     1       1.127   3.908  18.488  0.00  0.00    +0.000 A 
ATOM     16  C   UNL     1       2.274   4.178  17.729  0.00  0.00    +0.000 A 
BRANCH  13  17
ATOM     17  N   UNL     1       3.078   2.705  21.314  0.00  0.00    +0.000 N 
ATOM     18  H   UNL     1       4.014   2.303  21.470  0.00  0.00    +0.000 HD
ATOM     19  H   UNL     1       2.719   3.357  22.030  0.00  0.00    +0.000 HD
ENDBRANCH  13  17
ENDBRANCH   1   3
BRANCH   1  23
ATOM     20  C   UNL     1       0.900   9.988  19.230  0.00  0.00    +0.000 A 
ATOM     21  C   UNL     1       0.847   9.175  20.371  0.00  0.00    +0.000 A 
ATOM     22  C   UNL     1       1.527   7.941  20.395  0.00  0.00    +0.000 A 
ATOM     23  C   UNL     1       2.268   7.490  19.268  0.00  0.00    +0.000 A 
ATOM     24  C   UNL     1       2.358   8.344  18.163  0.00  0.00    +0.000 A 
ATOM     25  C   UNL     1       1.673   9.566  18.135  0.00  0.00    +0.000 A 
BRANCH  20  28
ATOM     26  C   UNL     1      -0.946  11.268  18.322  0.00  0.00    +0.000 C 
ATOM     27  O   UNL     1      -1.510  12.333  18.122  0.00  0.00    +0.000 OA
ATOM     28  N   UNL     1       0.139  11.188  19.132  0.00  0.00    +0.000 N 
BRANCH  28  29
ATOM     29  S   UNL     1       0.712  12.657  19.931  0.00  0.00    +0.000 S 
ATOM     30  C   UNL     1       1.401  13.927  18.829  0.00  0.00    +0.000 C 
ATOM     31  O   UNL     1      -0.486  13.150  20.758  0.00  0.00    +0.000 OA
ATOM     32  O   UNL     1       1.688  12.181  21.017  0.00  0.00    +0.000 OA
ENDBRANCH  28  29
BRANCH  26  33
ATOM     33  C   UNL     1      -1.479  10.032  17.617  0.00  0.00    +0.000 C 
BRANCH  33  34
ATOM     34  C   UNL     1      -3.005   9.887  17.644  0.00  0.00    +0.000 C 
BRANCH  34  36
ATOM     35  C   UNL     1      -2.898  10.011  15.104  0.00  0.00    +0.000 C 
ATOM     36  C   UNL     1      -3.635  10.462  16.366  0.00  0.00    +0.000 C 
ENDBRANCH  34  36
ENDBRANCH  33  34
ENDBRANCH  26  33
ENDBRANCH  20  28
ENDBRANCH   1  23
TORSDOF 8
ENDMDL
MODEL 2
REMARK VINA RESULT:      -9.3      0.841      1.032
REMARK  Name = 
REMARK  10 active torsions:
REMARK  status: ('A' for Active; 'I' for Inactive)
REMARK    1  A    between atoms: C_1  and  C_2
REMARK    2  A    between atoms: C_2  and  C_3
REMARK    3  A    between atoms: C_3  and  C_4
REMARK    4  A    between atoms: C_4  and  C_5
REMARK    5  A    between atoms: N_7  and  C_8
REMARK    6  A    between atoms: N_7  and  S_30
REMARK    7  A    between atoms: C_11  and  N_12
REMARK    8  A    between atoms: N_12  and  C_13
REMARK    9  A    between atoms: C_23  and  N_24
REMARK   10  A    between atoms: S_30  and  C_31
REMARK                            x       y       z     vdW  Elec       q    Type
REMARK                         _______ _______ _______ _____ _____    ______ ____
ROOT
ATOM      1  N   UNL     1       2.754   6.112  19.235  0.00  0.00    +0.000 N 
ATOM      2  H   UNL     1       2.483   5.614  20.094  0.00  0.00    +0.000 HD
ENDROOT
BRANCH   1   3
ATOM      3  C   UNL     1       3.124   5.207  18.138  0.00  0.00    +0.000 A 
ATOM      4  C   UNL     1       4.497   5.262  17.635  0.00  0.00    +0.000 A 
ATOM      5  C   UNL     1       5.442   6.272  17.931  0.00  0.00    +0.000 A 
ATOM      6  C   UNL     1       6.742   6.216  17.390  0.00  0.00    +0.000 A 
ATOM      7  C   UNL     1       7.118   5.185  16.525  0.00  0.00    +0.000 A 
ATOM      8  C   UNL     1       6.222   4.168  16.243  0.00  0.00    +0.000 A 
ATOM      9  C   UNL     1       4.958   4.186  16.825  0.00  0.00    +0.000 A 
ATOM     10  N   UNL     1       4.238   3.056  16.779  0.00  0.00    +0.000 NA
ATOM     11  C   UNL     1       3.175   2.971  17.598  0.00  0.00    +0.000 A 
ATOM     12  C   UNL     1       3.510   2.528  18.919  0.00  0.00    +0.000 A 
ATOM     13  C   UNL     1       2.624   2.772  20.000  0.00  0.00    +0.000 A 
ATOM     14  C   UNL     1       1.337   3.214  19.699  0.00  0.00    +0.000 A 
ATOM     15  C   UNL     1       1.129   3.744  18.433  0.00  0.00    +0.000 A 
ATOM     16  C   UNL     1       2.287   4.053  17.706  0.00  0.00    +0.000 A 
BRANCH  13  17
ATOM     17  N   UNL     1       3.040   2.684  21.343  0.00  0.00    +0.000 N 
ATOM     18  H   UNL     1       3.744   1.973  21.589  0.00  0.00    +0.000 HD
ATOM     19  H   UNL     1       2.998   3.531  21.933  0.00  0.00    +0.000 HD
ENDBRANCH  13  17
ENDBRANCH   1   3
BRANCH   1  23
ATOM     20  C   UNL     1       0.991  10.021  19.062  0.00  0.00    +0.000 A 
ATOM     21  C   UNL     1       1.044   9.321  20.276  0.00  0.00    +0.000 A 
ATOM     22  C   UNL     1       1.654   8.052  20.335  0.00  0.00    +0.000 A 
ATOM     23  C   UNL     1       2.213   7.451  19.174  0.00  0.00    +0.000 A 
ATOM     24  C   UNL     1       2.203   8.193  17.987  0.00  0.00    +0.000 A 
ATOM     25  C   UNL     1       1.588   9.450  17.925  0.00  0.00    +0.000 A 
BRANCH  20  28
ATOM     26  C   UNL     1      -0.989  11.297  18.495  0.00  0.00    +0.000 C 
ATOM     27  O   UNL     1      -1.541  12.360  18.251  0.00  0.00    +0.000 OA
ATOM     28  N   UNL     1       0.291  11.256  18.943  0.00  0.00    +0.000 N 
BRANCH  28  29
ATOM     29  S   UNL     1       1.148  12.779  19.204  0.00  0.00    +0.000 S 
ATOM     30  C   UNL     1       1.280  13.314  20.935  0.00  0.00    +0.000 C 
ATOM     31  O   UNL     1       2.510  12.589  18.517  0.00  0.00    +0.000 OA
ATOM     32  O   UNL     1       0.458  13.802  18.289  0.00  0.00    +0.000 OA
ENDBRANCH  28  29
BRANCH  26  33
ATOM     33  C   UNL     1      -1.769  10.015  18.259  0.00  0.00    +0.000 C 
BRANCH  33  34
ATOM     34  C   UNL     1      -2.964  10.158  17.309  0.00  0.00    +0.000 C 
BRANCH  34  36
ATOM     35  C   UNL     1      -3.434  10.434  14.822  0.00  0.00    +0.000 C 
ATOM     36  C   UNL     1      -2.585   9.731  15.882  0.00  0.00    +0.000 C 
ENDBRANCH  34  36
ENDBRANCH  33  34
ENDBRANCH  26  33
ENDBRANCH  20  28
ENDBRANCH   1  23
TORSDOF 8
ENDMDL
MODEL 3
REMARK VINA RESULT:      -9.3      0.884      1.321
REMARK  Name = 
REMARK  10 active torsions:
REMARK  status: ('A' for Active; 'I' for Inactive)
REMARK    1  A    between atoms: C_1  and  C_2
REMARK    2  A    between atoms: C_2  and  C_3
REMARK    3  A    between atoms: C_3  and  C_4
REMARK    4  A    between atoms: C_4  and  C_5
REMARK    5  A    between atoms: N_7  and  C_8
REMARK    6  A    between atoms: N_7  and  S_30
REMARK    7  A    between atoms: C_11  and  N_12
REMARK    8  A    between atoms: N_12  and  C_13
REMARK    9  A    between atoms: C_23  and  N_24
REMARK   10  A    between atoms: S_30  and  C_31
REMARK                            x       y       z     vdW  Elec       q    Type
REMARK                         _______ _______ _______ _____ _____    ______ ____
ROOT
ATOM      1  N   UNL     1       3.156   6.430  19.209  0.00  0.00    +0.000 N 
ATOM      2  H   UNL     1       3.362   6.011  20.127  0.00  0.00    +0.000 HD
ENDROOT
BRANCH   1   3
ATOM      3  C   UNL     1       3.403   5.512  18.089  0.00  0.00    +0.000 A 
ATOM      4  C   UNL     1       4.764   5.426  17.559  0.00  0.00    +0.000 A 
ATOM      5  C   UNL     1       5.820   6.320  17.852  0.00  0.00    +0.000 A 
ATOM      6  C   UNL     1       7.096   6.133  17.283  0.00  0.00    +0.000 A 
ATOM      7  C   UNL     1       7.339   5.085  16.392  0.00  0.00    +0.000 A 
ATOM      8  C   UNL     1       6.331   4.177  16.111  0.00  0.00    +0.000 A 
ATOM      9  C   UNL     1       5.088   4.323  16.720  0.00  0.00    +0.000 A 
ATOM     10  N   UNL     1       4.247   3.280  16.669  0.00  0.00    +0.000 NA
ATOM     11  C   UNL     1       3.197   3.296  17.508  0.00  0.00    +0.000 A 
ATOM     12  C   UNL     1       3.506   2.792  18.814  0.00  0.00    +0.000 A 
ATOM     13  C   UNL     1       2.673   3.110  19.917  0.00  0.00    +0.000 A 
ATOM     14  C   UNL     1       1.437   3.697  19.651  0.00  0.00    +0.000 A 
ATOM     15  C   UNL     1       1.264   4.271  18.400  0.00  0.00    +0.000 A 
ATOM     16  C   UNL     1       2.436   4.466  17.655  0.00  0.00    +0.000 A 
BRANCH  13  17
ATOM     17  N   UNL     1       3.102   2.950  21.250  0.00  0.00    +0.000 N 
ATOM     18  H   UNL     1       2.395   2.719  21.964  0.00  0.00    +0.000 HD
ATOM     19  H   UNL     1       4.071   2.639  21.427  0.00  0.00    +0.000 HD
ENDBRANCH  13  17
ENDBRANCH   1   3
BRANCH   1  23
ATOM     20  C   UNL     1       0.540   9.821  19.492  0.00  0.00    +0.000 A 
ATOM     21  C   UNL     1       1.241   9.564  18.306  0.00  0.00    +0.000 A 
ATOM     22  C   UNL     1       2.074   8.432  18.205  0.00  0.00    +0.000 A 
ATOM     23  C   UNL     1       2.230   7.536  19.299  0.00  0.00    +0.000 A 
ATOM     24  C   UNL     1       1.474   7.778  20.452  0.00  0.00    +0.000 A 
ATOM     25  C   UNL     1       0.654   8.910  20.556  0.00  0.00    +0.000 A 
BRANCH  20  28
ATOM     26  C   UNL     1      -1.405  11.186  19.018  0.00  0.00    +0.000 C 
ATOM     27  O   UNL     1      -1.989  12.258  19.046  0.00  0.00    +0.000 OA
ATOM     28  N   UNL     1      -0.225  11.010  19.664  0.00  0.00    +0.000 N 
BRANCH  28  29
ATOM     29  S   UNL     1       0.448  12.361  20.584  0.00  0.00    +0.000 S 
ATOM     30  C   UNL     1      -0.564  12.938  21.978  0.00  0.00    +0.000 C 
ATOM     31  O   UNL     1       1.852  11.895  20.999  0.00  0.00    +0.000 OA
ATOM     32  O   UNL     1       0.756  13.451  19.547  0.00  0.00    +0.000 OA
ENDBRANCH  28  29
BRANCH  26  33
ATOM     33  C   UNL     1      -2.026  10.053  18.218  0.00  0.00    +0.000 C 
BRANCH  33  34
ATOM     34  C   UNL     1      -3.151  10.482  17.268  0.00  0.00    +0.000 C 
BRANCH  34  36
ATOM     35  C   UNL     1      -3.438  10.213  14.753  0.00  0.00    +0.000 C 
ATOM     36  C   UNL     1      -2.596  10.820  15.876  0.00  0.00    +0.000 C 
ENDBRANCH  34  36
ENDBRANCH  33  34
ENDBRANCH  26  33
ENDBRANCH  20  28
ENDBRANCH   1  23
TORSDOF 8
ENDMDL
MODEL 4
REMARK VINA RESULT:      -9.1      1.364      3.473
REMARK  Name = 
REMARK  10 active torsions:
REMARK  status: ('A' for Active; 'I' for Inactive)
REMARK    1  A    between atoms: C_1  and  C_2
REMARK    2  A    between atoms: C_2  and  C_3
REMARK    3  A    between atoms: C_3  and  C_4
REMARK    4  A    between atoms: C_4  and  C_5
REMARK    5  A    between atoms: N_7  and  C_8
REMARK    6  A    between atoms: N_7  and  S_30
REMARK    7  A    between atoms: C_11  and  N_12
REMARK    8  A    between atoms: N_12  and  C_13
REMARK    9  A    between atoms: C_23  and  N_24
REMARK   10  A    between atoms: S_30  and  C_31
REMARK                            x       y       z     vdW  Elec       q    Type
REMARK                         _______ _______ _______ _____ _____    ______ ____
ROOT
ATOM      1  N   UNL     1       3.441   6.894  17.840  0.00  0.00    +0.000 N 
ATOM      2  H   UNL     1       4.026   7.219  17.058  0.00  0.00    +0.000 HD
ENDROOT
BRANCH   1   3
ATOM      3  C   UNL     1       3.996   5.718  18.525  0.00  0.00    +0.000 A 
ATOM      4  C   UNL     1       3.160   4.523  18.627  0.00  0.00    +0.000 A 
ATOM      5  C   UNL     1       1.773   4.462  18.350  0.00  0.00    +0.000 A 
ATOM      6  C   UNL     1       1.070   3.248  18.479  0.00  0.00    +0.000 A 
ATOM      7  C   UNL     1       1.714   2.086  18.915  0.00  0.00    +0.000 A 
ATOM      8  C   UNL     1       3.076   2.112  19.163  0.00  0.00    +0.000 A 
ATOM      9  C   UNL     1       3.786   3.294  18.976  0.00  0.00    +0.000 A 
ATOM     10  N   UNL     1       5.123   3.213  18.929  0.00  0.00    +0.000 NA
ATOM     11  C   UNL     1       5.787   4.276  18.442  0.00  0.00    +0.000 A 
ATOM     12  C   UNL     1       5.884   4.276  17.011  0.00  0.00    +0.000 A 
ATOM     13  C   UNL     1       6.167   5.480  16.316  0.00  0.00    +0.000 A 
ATOM     14  C   UNL     1       6.589   6.579  17.062  0.00  0.00    +0.000 A 
ATOM     15  C   UNL     1       6.344   6.550  18.427  0.00  0.00    +0.000 A 
ATOM     16  C   UNL     1       5.440   5.570  18.861  0.00  0.00    +0.000 A 
BRANCH  13  17
ATOM     17  N   UNL     1       5.931   5.619  14.934  0.00  0.00    +0.000 N 
ATOM     18  H   UNL     1       5.030   5.286  14.558  0.00  0.00    +0.000 HD
ATOM     19  H   UNL     1       6.402   6.383  14.423  0.00  0.00    +0.000 HD
ENDBRANCH  13  17
ENDBRANCH   1   3
BRANCH   1  23
ATOM     20  C   UNL     1       0.746   9.874  19.349  0.00  0.00    +0.000 A 
ATOM     21  C   UNL     1       1.071   8.755  20.127  0.00  0.00    +0.000 A 
ATOM     22  C   UNL     1       1.982   7.795  19.642  0.00  0.00    +0.000 A 
ATOM     23  C   UNL     1       2.578   7.932  18.358  0.00  0.00    +0.000 A 
ATOM     24  C   UNL     1       2.286   9.088  17.624  0.00  0.00    +0.000 A 
ATOM     25  C   UNL     1       1.373  10.037  18.102  0.00  0.00    +0.000 A 
BRANCH  20  28
ATOM     26  C   UNL     1      -1.436  10.902  19.111  0.00  0.00    +0.000 C 
ATOM     27  O   UNL     1      -2.228  11.797  19.367  0.00  0.00    +0.000 OA
ATOM     28  N   UNL     1      -0.249  10.807  19.762  0.00  0.00    +0.000 N 
BRANCH  28  29
ATOM     29  S   UNL     1       0.125  11.988  21.022  0.00  0.00    +0.000 S 
ATOM     30  C   UNL     1      -0.878  11.865  22.532  0.00  0.00    +0.000 C 
ATOM     31  O   UNL     1       1.633  11.831  21.275  0.00  0.00    +0.000 OA
ATOM     32  O   UNL     1       0.049  13.360  20.336  0.00  0.00    +0.000 OA
ENDBRANCH  28  29
BRANCH  26  33
ATOM     33  C   UNL     1      -1.805   9.908  18.024  0.00  0.00    +0.000 C 
BRANCH  33  34
ATOM     34  C   UNL     1      -3.080  10.255  17.245  0.00  0.00    +0.000 C 
BRANCH  34  36
ATOM     35  C   UNL     1      -3.077  10.080  14.706  0.00  0.00    +0.000 C 
ATOM     36  C   UNL     1      -2.740  10.950  15.917  0.00  0.00    +0.000 C 
ENDBRANCH  34  36
ENDBRANCH  33  34
ENDBRANCH  26  33
ENDBRANCH  20  28
ENDBRANCH   1  23
TORSDOF 8
ENDMDL
MODEL 5
REMARK VINA RESULT:      -8.9      1.649      3.041
REMARK  Name = 
REMARK  10 active torsions:
REMARK  status: ('A' for Active; 'I' for Inactive)
REMARK    1  A    between atoms: C_1  and  C_2
REMARK    2  A    between atoms: C_2  and  C_3
REMARK    3  A    between atoms: C_3  and  C_4
REMARK    4  A    between atoms: C_4  and  C_5
REMARK    5  A    between atoms: N_7  and  C_8
REMARK    6  A    between atoms: N_7  and  S_30
REMARK    7  A    between atoms: C_11  and  N_12
REMARK    8  A    between atoms: N_12  and  C_13
REMARK    9  A    between atoms: C_23  and  N_24
REMARK   10  A    between atoms: S_30  and  C_31
REMARK                            x       y       z     vdW  Elec       q    Type
REMARK                         _______ _______ _______ _____ _____    ______ ____
ROOT
ATOM      1  N   UNL     1       2.779   6.346  19.167  0.00  0.00    +0.000 N 
ATOM      2  H   UNL     1       2.583   5.863  20.056  0.00  0.00    +0.000 HD
ENDROOT
BRANCH   1   3
ATOM      3  C   UNL     1       3.127   5.425  18.076  0.00  0.00    +0.000 A 
ATOM      4  C   UNL     1       4.498   5.448  17.568  0.00  0.00    +0.000 A 
ATOM      5  C   UNL     1       5.465   6.441  17.851  0.00  0.00    +0.000 A 
ATOM      6  C   UNL     1       6.761   6.355  17.305  0.00  0.00    +0.000 A 
ATOM      7  C   UNL     1       7.113   5.309  16.448  0.00  0.00    +0.000 A 
ATOM      8  C   UNL     1       6.195   4.308  16.178  0.00  0.00    +0.000 A 
ATOM      9  C   UNL     1       4.934   4.357  16.765  0.00  0.00    +0.000 A 
ATOM     10  N   UNL     1       4.191   3.241  16.731  0.00  0.00    +0.000 NA
ATOM     11  C   UNL     1       3.130   3.184  17.554  0.00  0.00    +0.000 A 
ATOM     12  C   UNL     1       3.462   2.745  18.878  0.00  0.00    +0.000 A 
ATOM     13  C   UNL     1       2.585   3.016  19.960  0.00  0.00    +0.000 A 
ATOM     14  C   UNL     1       1.306   3.482  19.660  0.00  0.00    +0.000 A 
ATOM     15  C   UNL     1       1.103   4.005  18.392  0.00  0.00    +0.000 A 
ATOM     16  C   UNL     1       2.264   4.285  17.658  0.00  0.00    +0.000 A 
BRANCH  13  17
ATOM     17  N   UNL     1       3.004   2.930  21.302  0.00  0.00    +0.000 N 
ATOM     18  H   UNL     1       2.308   3.105  22.042  0.00  0.00    +0.000 HD
ATOM     19  H   UNL     1       3.798   2.312  21.538  0.00  0.00    +0.000 HD
ENDBRANCH  13  17
ENDBRANCH   1   3
BRANCH   1  23
ATOM     20  C   UNL     1       0.827  10.163  18.973  0.00  0.00    +0.000 A 
ATOM     21  C   UNL     1       0.882   9.457  20.183  0.00  0.00    +0.000 A 
ATOM     22  C   UNL     1       1.553   8.219  20.251  0.00  0.00    +0.000 A 
ATOM     23  C   UNL     1       2.173   7.656  19.101  0.00  0.00    +0.000 A 
ATOM     24  C   UNL     1       2.158   8.407  17.919  0.00  0.00    +0.000 A 
ATOM     25  C   UNL     1       1.482   9.633  17.849  0.00  0.00    +0.000 A 
BRANCH  20  28
ATOM     26  C   UNL     1       0.631  12.576  19.068  0.00  0.00    +0.000 C 
ATOM     27  O   UNL     1      -0.047  13.592  19.104  0.00  0.00    +0.000 OA
ATOM     28  N   UNL     1       0.068  11.362  18.844  0.00  0.00    +0.000 N 
BRANCH  28  29
ATOM     29  S   UNL     1      -1.675  11.273  18.569  0.00  0.00    +0.000 S 
ATOM     30  C   UNL     1      -2.706  12.101  19.814  0.00  0.00    +0.000 C 
ATOM     31  O   UNL     1      -1.879  11.817  17.146  0.00  0.00    +0.000 OA
ATOM     32  O   UNL     1      -1.988   9.779  18.397  0.00  0.00    +0.000 OA
ENDBRANCH  28  29
BRANCH  26  33
ATOM     33  C   UNL     1       2.126  12.705  19.305  0.00  0.00    +0.000 C 
BRANCH  33  34
ATOM     34  C   UNL     1       2.932  13.163  18.083  0.00  0.00    +0.000 C 
BRANCH  34  36
ATOM     35  C   UNL     1       3.485  15.567  17.456  0.00  0.00    +0.000 C 
ATOM     36  C   UNL     1       3.769  14.408  18.412  0.00  0.00    +0.000 C 
ENDBRANCH  34  36
ENDBRANCH  33  34
ENDBRANCH  26  33
ENDBRANCH  20  28
ENDBRANCH   1  23
TORSDOF 8
ENDMDL
MODEL 6
REMARK VINA RESULT:      -8.9      1.234      1.415
REMARK  Name = 
REMARK  10 active torsions:
REMARK  status: ('A' for Active; 'I' for Inactive)
REMARK    1  A    between atoms: C_1  and  C_2
REMARK    2  A    between atoms: C_2  and  C_3
REMARK    3  A    between atoms: C_3  and  C_4
REMARK    4  A    between atoms: C_4  and  C_5
REMARK    5  A    between atoms: N_7  and  C_8
REMARK    6  A    between atoms: N_7  and  S_30
REMARK    7  A    between atoms: C_11  and  N_12
REMARK    8  A    between atoms: N_12  and  C_13
REMARK    9  A    between atoms: C_23  and  N_24
REMARK   10  A    between atoms: S_30  and  C_31
REMARK                            x       y       z     vdW  Elec       q    Type
REMARK                         _______ _______ _______ _____ _____    ______ ____
ROOT
ATOM      1  N   UNL     1       2.993   6.188  19.553  0.00  0.00    +0.000 N 
ATOM      2  H   UNL     1       3.171   5.626  20.398  0.00  0.00    +0.000 HD
ENDROOT
BRANCH   1   3
ATOM      3  C   UNL     1       3.150   5.421  18.309  0.00  0.00    +0.000 A 
ATOM      4  C   UNL     1       4.436   5.490  17.617  0.00  0.00    +0.000 A 
ATOM      5  C   UNL     1       5.470   6.417  17.891  0.00  0.00    +0.000 A 
ATOM      6  C   UNL     1       6.673   6.384  17.158  0.00  0.00    +0.000 A 
ATOM      7  C   UNL     1       6.862   5.463  16.125  0.00  0.00    +0.000 A 
ATOM      8  C   UNL     1       5.878   4.525  15.857  0.00  0.00    +0.000 A 
ATOM      9  C   UNL     1       4.715   4.514  16.620  0.00  0.00    +0.000 A 
ATOM     10  N   UNL     1       3.933   3.428  16.542  0.00  0.00    +0.000 NA
ATOM     11  C   UNL     1       2.996   3.276  17.493  0.00  0.00    +0.000 A 
ATOM     12  C   UNL     1       3.492   2.651  18.684  0.00  0.00    +0.000 A 
ATOM     13  C   UNL     1       2.786   2.783  19.908  0.00  0.00    +0.000 A 
ATOM     14  C   UNL     1       1.496   3.309  19.860  0.00  0.00    +0.000 A 
ATOM     15  C   UNL     1       1.138   4.008  18.716  0.00  0.00    +0.000 A 
ATOM     16  C   UNL     1       2.195   4.366  17.868  0.00  0.00    +0.000 A 
BRANCH  13  17
ATOM     17  N   UNL     1       3.385   2.505  21.152  0.00  0.00    +0.000 N 
ATOM     18  H   UNL     1       4.220   1.901  21.165  0.00  0.00    +0.000 HD
ATOM     19  H   UNL     1       3.288   3.192  21.916  0.00  0.00    +0.000 HD
ENDBRANCH  13  17
ENDBRANCH   1   3
BRANCH   1  23
ATOM     20  C   UNL     1       0.403   9.529  20.294  0.00  0.00    +0.000 A 
ATOM     21  C   UNL     1       0.458   8.461  21.201  0.00  0.00    +0.000 A 
ATOM     22  C   UNL     1       1.334   7.381  20.971  0.00  0.00    +0.000 A 
ATOM     23  C   UNL     1       2.166   7.343  19.818  0.00  0.00    +0.000 A 
ATOM     24  C   UNL     1       2.139   8.448  18.959  0.00  0.00    +0.000 A 
ATOM     25  C   UNL     1       1.261   9.517  19.181  0.00  0.00    +0.000 A 
BRANCH  20  28
ATOM     26  C   UNL     1      -1.351  10.949  19.412  0.00  0.00    +0.000 C 
ATOM     27  O   UNL     1      -2.057  11.943  19.484  0.00  0.00    +0.000 OA
ATOM     28  N   UNL     1      -0.545  10.583  20.440  0.00  0.00    +0.000 N 
BRANCH  28  29
ATOM     29  S   UNL     1      -0.554  11.557  21.914  0.00  0.00    +0.000 S 
ATOM     30  C   UNL     1      -2.184  12.163  22.440  0.00  0.00    +0.000 C 
ATOM     31  O   UNL     1       0.142  10.682  22.969  0.00  0.00    +0.000 OA
ATOM     32  O   UNL     1       0.476  12.671  21.678  0.00  0.00    +0.000 OA
ENDBRANCH  28  29
BRANCH  26  33
ATOM     33  C   UNL     1      -1.382  10.141  18.125  0.00  0.00    +0.000 C 
BRANCH  33  34
ATOM     34  C   UNL     1      -2.758  10.057  17.455  0.00  0.00    +0.000 C 
BRANCH  34  36
ATOM     35  C   UNL     1      -3.390  10.679  15.069  0.00  0.00    +0.000 C 
ATOM     36  C   UNL     1      -2.623   9.706  15.965  0.00  0.00    +0.000 C 
ENDBRANCH  34  36
ENDBRANCH  33  34
ENDBRANCH  26  33
ENDBRANCH  20  28
ENDBRANCH   1  23
TORSDOF 8
ENDMDL
MODEL 7
REMARK VINA RESULT:      -8.7      1.261      3.348
REMARK  Name = 
REMARK  10 active torsions:
REMARK  status: ('A' for Active; 'I' for Inactive)
REMARK    1  A    between atoms: C_1  and  C_2
REMARK    2  A    between atoms: C_2  and  C_3
REMARK    3  A    between atoms: C_3  and  C_4
REMARK    4  A    between atoms: C_4  and  C_5
REMARK    5  A    between atoms: N_7  and  C_8
REMARK    6  A    between atoms: N_7  and  S_30
REMARK    7  A    between atoms: C_11  and  N_12
REMARK    8  A    between atoms: N_12  and  C_13
REMARK    9  A    between atoms: C_23  and  N_24
REMARK   10  A    between atoms: S_30  and  C_31
REMARK                            x       y       z     vdW  Elec       q    Type
REMARK                         _______ _______ _______ _____ _____    ______ ____
ROOT
ATOM      1  N   UNL     1       2.952   6.829  18.130  0.00  0.00    +0.000 N 
ATOM      2  H   UNL     1       3.275   6.886  17.153  0.00  0.00    +0.000 HD
ENDROOT
BRANCH   1   3
ATOM      3  C   UNL     1       3.693   5.839  18.924  0.00  0.00    +0.000 A 
ATOM      4  C   UNL     1       2.945   4.726  19.507  0.00  0.00    +0.000 A 
ATOM      5  C   UNL     1       1.535   4.636  19.592  0.00  0.00    +0.000 A 
ATOM      6  C   UNL     1       0.924   3.508  20.174  0.00  0.00    +0.000 A 
ATOM      7  C   UNL     1       1.690   2.470  20.709  0.00  0.00    +0.000 A 
ATOM      8  C   UNL     1       3.071   2.519  20.612  0.00  0.00    +0.000 A 
ATOM      9  C   UNL     1       3.676   3.602  19.982  0.00  0.00    +0.000 A 
ATOM     10  N   UNL     1       4.966   3.477  19.639  0.00  0.00    +0.000 NA
ATOM     11  C   UNL     1       5.459   4.373  18.766  0.00  0.00    +0.000 A 
ATOM     12  C   UNL     1       5.214   4.025  17.397  0.00  0.00    +0.000 A 
ATOM     13  C   UNL     1       5.283   5.017  16.385  0.00  0.00    +0.000 A 
ATOM     14  C   UNL     1       5.834   6.253  16.722  0.00  0.00    +0.000 A 
ATOM     15  C   UNL     1       5.922   6.561  18.072  0.00  0.00    +0.000 A 
ATOM     16  C   UNL     1       5.179   5.739  18.932  0.00  0.00    +0.000 A 
BRANCH  13  17
ATOM     17  N   UNL     1       4.721   4.825  15.108  0.00  0.00    +0.000 N 
ATOM     18  H   UNL     1       5.288   4.344  14.394  0.00  0.00    +0.000 HD
ATOM     19  H   UNL     1       3.694   4.753  15.022  0.00  0.00    +0.000 HD
ENDBRANCH  13  17
ENDBRANCH   1   3
BRANCH   1  23
ATOM     20  C   UNL     1       0.803  10.322  19.394  0.00  0.00    +0.000 A 
ATOM     21  C   UNL     1       0.932   9.221  20.253  0.00  0.00    +0.000 A 
ATOM     22  C   UNL     1       1.667   8.088  19.847  0.00  0.00    +0.000 A 
ATOM     23  C   UNL     1       2.279   8.032  18.564  0.00  0.00    +0.000 A 
ATOM     24  C   UNL     1       2.188   9.166  17.748  0.00  0.00    +0.000 A 
ATOM     25  C   UNL     1       1.449  10.287  18.147  0.00  0.00    +0.000 A 
BRANCH  20  28
ATOM     26  C   UNL     1      -1.269  11.567  19.218  0.00  0.00    +0.000 C 
ATOM     27  O   UNL     1      -1.917  12.589  19.383  0.00  0.00    +0.000 OA
ATOM     28  N   UNL     1      -0.019  11.436  19.730  0.00  0.00    +0.000 N 
BRANCH  28  29
ATOM     29  S   UNL     1       0.653  12.768  20.678  0.00  0.00    +0.000 S 
ATOM     30  C   UNL     1       0.867  14.334  19.783  0.00  0.00    +0.000 C 
ATOM     31  O   UNL     1      -0.269  12.884  21.903  0.00  0.00    +0.000 OA
ATOM     32  O   UNL     1       1.949  12.221  21.294  0.00  0.00    +0.000 OA
ENDBRANCH  28  29
BRANCH  26  33
ATOM     33  C   UNL     1      -1.891  10.448  18.399  0.00  0.00    +0.000 C 
BRANCH  33  34
ATOM     34  C   UNL     1      -2.522  10.898  17.076  0.00  0.00    +0.000 C 
BRANCH  34  36
ATOM     35  C   UNL     1      -3.203  10.143  14.742  0.00  0.00    +0.000 C 
ATOM     36  C   UNL     1      -2.688   9.710  16.115  0.00  0.00    +0.000 C 
ENDBRANCH  34  36
ENDBRANCH  33  34
ENDBRANCH  26  33
ENDBRANCH  20  28
ENDBRANCH   1  23
TORSDOF 8
ENDMDL
MODEL 8
REMARK VINA RESULT:      -8.7      1.297      3.460
REMARK  Name = 
REMARK  10 active torsions:
REMARK  status: ('A' for Active; 'I' for Inactive)
REMARK    1  A    between atoms: C_1  and  C_2
REMARK    2  A    between atoms: C_2  and  C_3
REMARK    3  A    between atoms: C_3  and  C_4
REMARK    4  A    between atoms: C_4  and  C_5
REMARK    5  A    between atoms: N_7  and  C_8
REMARK    6  A    between atoms: N_7  and  S_30
REMARK    7  A    between atoms: C_11  and  N_12
REMARK    8  A    between atoms: N_12  and  C_13
REMARK    9  A    between atoms: C_23  and  N_24
REMARK   10  A    between atoms: S_30  and  C_31
REMARK                            x       y       z     vdW  Elec       q    Type
REMARK                         _______ _______ _______ _____ _____    ______ ____
ROOT
ATOM      1  N   UNL     1       3.534   6.965  17.921  0.00  0.00    +0.000 N 
ATOM      2  H   UNL     1       4.210   7.384  17.268  0.00  0.00    +0.000 HD
ENDROOT
BRANCH   1   3
ATOM      3  C   UNL     1       4.049   5.761  18.589  0.00  0.00    +0.000 A 
ATOM      4  C   UNL     1       3.175   4.591  18.668  0.00  0.00    +0.000 A 
ATOM      5  C   UNL     1       1.789   4.578  18.382  0.00  0.00    +0.000 A 
ATOM      6  C   UNL     1       1.048   3.384  18.489  0.00  0.00    +0.000 A 
ATOM      7  C   UNL     1       1.653   2.196  18.908  0.00  0.00    +0.000 A 
ATOM      8  C   UNL     1       3.014   2.175  19.164  0.00  0.00    +0.000 A 
ATOM      9  C   UNL     1       3.761   3.338  19.000  0.00  0.00    +0.000 A 
ATOM     10  N   UNL     1       5.095   3.216  18.959  0.00  0.00    +0.000 NA
ATOM     11  C   UNL     1       5.794   4.265  18.492  0.00  0.00    +0.000 A 
ATOM     12  C   UNL     1       5.900   4.286  17.063  0.00  0.00    +0.000 A 
ATOM     13  C   UNL     1       6.224   5.491  16.388  0.00  0.00    +0.000 A 
ATOM     14  C   UNL     1       6.675   6.564  17.155  0.00  0.00    +0.000 A 
ATOM     15  C   UNL     1       6.421   6.521  18.518  0.00  0.00    +0.000 A 
ATOM     16  C   UNL     1       5.485   5.563  18.931  0.00  0.00    +0.000 A 
BRANCH  13  17
ATOM     17  N   UNL     1       6.000   5.659  15.008  0.00  0.00    +0.000 N 
ATOM     18  H   UNL     1       6.639   6.275  14.483  0.00  0.00    +0.000 HD
ATOM     19  H   UNL     1       5.539   4.899  14.482  0.00  0.00    +0.000 HD
ENDBRANCH  13  17
ENDBRANCH   1   3
BRANCH   1  23
ATOM     20  C   UNL     1       0.710   9.891  19.295  0.00  0.00    +0.000 A 
ATOM     21  C   UNL     1       1.225   9.960  17.993  0.00  0.00    +0.000 A 
ATOM     22  C   UNL     1       2.126   8.979  17.534  0.00  0.00    +0.000 A 
ATOM     23  C   UNL     1       2.541   7.911  18.378  0.00  0.00    +0.000 A 
ATOM     24  C   UNL     1       1.968   7.828  19.652  0.00  0.00    +0.000 A 
ATOM     25  C   UNL     1       1.080   8.809  20.112  0.00  0.00    +0.000 A 
BRANCH  20  28
ATOM     26  C   UNL     1      -1.394  11.088  19.395  0.00  0.00    +0.000 C 
ATOM     27  O   UNL     1      -2.055  12.057  19.736  0.00  0.00    +0.000 OA
ATOM     28  N   UNL     1      -0.118  10.922  19.826  0.00  0.00    +0.000 N 
BRANCH  28  29
ATOM     29  S   UNL     1       0.570  12.121  20.926  0.00  0.00    +0.000 S 
ATOM     30  C   UNL     1       0.482  13.844  20.357  0.00  0.00    +0.000 C 
ATOM     31  O   UNL     1      -0.143  11.882  22.266  0.00  0.00    +0.000 OA
ATOM     32  O   UNL     1       1.997  11.637  21.222  0.00  0.00    +0.000 OA
ENDBRANCH  28  29
BRANCH  26  33
ATOM     33  C   UNL     1      -2.031  10.082  18.452  0.00  0.00    +0.000 C 
BRANCH  33  34
ATOM     34  C   UNL     1      -2.732  10.699  17.235  0.00  0.00    +0.000 C 
BRANCH  34  36
ATOM     35  C   UNL     1      -3.224  10.395  14.757  0.00  0.00    +0.000 C 
ATOM     36  C   UNL     1      -2.676   9.749  16.029  0.00  0.00    +0.000 C 
ENDBRANCH  34  36
ENDBRANCH  33  34
ENDBRANCH  26  33
ENDBRANCH  20  28
ENDBRANCH   1  23
TORSDOF 8
ENDMDL
MODEL 9
REMARK VINA RESULT:      -8.5      3.504      8.777
REMARK  Name = 
REMARK  10 active torsions:
REMARK  status: ('A' for Active; 'I' for Inactive)
REMARK    1  A    between atoms: C_1  and  C_2
REMARK    2  A    between atoms: C_2  and  C_3
REMARK    3  A    between atoms: C_3  and  C_4
REMARK    4  A    between atoms: C_4  and  C_5
REMARK    5  A    between atoms: N_7  and  C_8
REMARK    6  A    between atoms: N_7  and  S_30
REMARK    7  A    between atoms: C_11  and  N_12
REMARK    8  A    between atoms: N_12  and  C_13
REMARK    9  A    between atoms: C_23  and  N_24
REMARK   10  A    between atoms: S_30  and  C_31
REMARK                            x       y       z     vdW  Elec       q    Type
REMARK                         _______ _______ _______ _____ _____    ______ ____
ROOT
ATOM      1  N   UNL     1       1.296  10.063  18.070  0.00  0.00    +0.000 N 
ATOM      2  H   UNL     1       0.699   9.998  17.233  0.00  0.00    +0.000 HD
ENDROOT
BRANCH   1   3
ATOM      3  C   UNL     1       0.921  11.170  18.961  0.00  0.00    +0.000 A 
ATOM      4  C   UNL     1       1.659  12.427  18.843  0.00  0.00    +0.000 A 
ATOM      5  C   UNL     1       2.865  12.610  18.125  0.00  0.00    +0.000 A 
ATOM      6  C   UNL     1       3.485  13.875  18.078  0.00  0.00    +0.000 A 
ATOM      7  C   UNL     1       2.945  14.967  18.763  0.00  0.00    +0.000 A 
ATOM      8  C   UNL     1       1.750  14.822  19.448  0.00  0.00    +0.000 A 
ATOM      9  C   UNL     1       1.102  13.590  19.444  0.00  0.00    +0.000 A 
ATOM     10  N   UNL     1      -0.176  13.561  19.848  0.00  0.00    +0.000 NA
ATOM     11  C   UNL     1      -0.889  12.461  19.552  0.00  0.00    +0.000 A 
ATOM     12  C   UNL     1      -1.459  12.490  18.238  0.00  0.00    +0.000 A 
ATOM     13  C   UNL     1      -1.874  11.286  17.612  0.00  0.00    +0.000 A 
ATOM     14  C   UNL     1      -1.945  10.136  18.398  0.00  0.00    +0.000 A 
ATOM     15  C   UNL     1      -1.260  10.149  19.604  0.00  0.00    +0.000 A 
ATOM     16  C   UNL     1      -0.333  11.189  19.764  0.00  0.00    +0.000 A 
BRANCH  13  17
ATOM     17  N   UNL     1      -2.105  11.204  16.225  0.00  0.00    +0.000 N 
ATOM     18  H   UNL     1      -2.266  12.080  15.706  0.00  0.00    +0.000 HD
ATOM     19  H   UNL     1      -1.703  10.411  15.700  0.00  0.00    +0.000 HD
ENDBRANCH  13  17
ENDBRANCH   1   3
BRANCH   1  23
ATOM     20  C   UNL     1       3.105   6.264  18.918  0.00  0.00    +0.000 A 
ATOM     21  C   UNL     1       3.309   6.884  17.677  0.00  0.00    +0.000 A 
ATOM     22  C   UNL     1       2.740   8.147  17.414  0.00  0.00    +0.000 A 
ATOM     23  C   UNL     1       1.944   8.811  18.388  0.00  0.00    +0.000 A 
ATOM     24  C   UNL     1       1.805   8.201  19.641  0.00  0.00    +0.000 A 
ATOM     25  C   UNL     1       2.361   6.942  19.899  0.00  0.00    +0.000 A 
BRANCH  20  28
ATOM     26  C   UNL     1       4.903   4.672  19.243  0.00  0.00    +0.000 C 
ATOM     27  O   UNL     1       5.310   3.523  19.317  0.00  0.00    +0.000 OA
ATOM     28  N   UNL     1       3.575   4.945  19.178  0.00  0.00    +0.000 N 
BRANCH  28  29
ATOM     29  S   UNL     1       2.429   3.601  19.237  0.00  0.00    +0.000 S 
ATOM     30  C   UNL     1       2.496   2.455  17.829  0.00  0.00    +0.000 C 
ATOM     31  O   UNL     1       2.687   2.922  20.592  0.00  0.00    +0.000 OA
ATOM     32  O   UNL     1       1.051   4.244  19.449  0.00  0.00    +0.000 OA
ENDBRANCH  28  29
BRANCH  26  33
ATOM     33  C   UNL     1       5.927   5.794  19.200  0.00  0.00    +0.000 C 
BRANCH  33  34
ATOM     34  C   UNL     1       7.035   5.610  18.156  0.00  0.00    +0.000 C 
BRANCH  34  36
ATOM     35  C   UNL     1       7.947   7.972  17.896  0.00  0.00    +0.000 C 
ATOM     36  C   UNL     1       7.144   6.844  17.247  0.00  0.00    +0.000 C 
ENDBRANCH  34  36
ENDBRANCH  33  34
ENDBRANCH  26  33
ENDBRANCH  20  28
ENDBRANCH   1  23
TORSDOF 8
ENDMDL
