MODEL 1
REMARK VINA RESULT:      -9.3      0.000      0.000
REMARK  Name = 
REMARK  6 active torsions:
REMARK  status: ('A' for Active; 'I' for Inactive)
REMARK    1  A    between atoms: C_6  and  C_7
REMARK    2  A    between atoms: N_10  and  C_11
REMARK    3  A    between atoms: C_11  and  C_12
REMARK    4  A    between atoms: C_12  and  C_13
REMARK    5  A    between atoms: C_13  and  N_14
REMARK    6  A    between atoms: N_23  and  C_24
REMARK                            x       y       z     vdW  Elec       q    Type
REMARK                         _______ _______ _______ _____ _____    ______ ____
ROOT
ATOM      1  N   UNL     1       6.836   6.780  17.881  0.00  0.00    +0.000 N 
ATOM      2  C   UNL     1       6.747   6.040  16.739  0.00  0.00    +0.000 A 
ATOM      3  N   UNL     1       7.589   6.089  15.735  0.00  0.00    +0.000 NA
ATOM      4  C   UNL     1       7.051   5.304  14.755  0.00  0.00    +0.000 A 
ATOM      5  C   UNL     1       7.552   5.043  13.468  0.00  0.00    +0.000 A 
ATOM      6  C   UNL     1       6.866   4.153  12.636  0.00  0.00    +0.000 A 
ATOM      7  C   UNL     1       5.718   3.509  13.089  0.00  0.00    +0.000 A 
ATOM      8  C   UNL     1       5.205   3.760  14.366  0.00  0.00    +0.000 A 
ATOM      9  C   UNL     1       5.863   4.707  15.174  0.00  0.00    +0.000 A 
ATOM     10  N   UNL     1       5.641   5.223  16.450  0.00  0.00    +0.000 N 
ATOM     11  H   UNL     1       6.163   7.545  17.901  0.00  0.00    +0.000 HD
ENDROOT
BRANCH  10  12
ATOM     12  C   UNL     1       4.511   4.963  17.293  0.00  0.00    +0.000 A 
ATOM     13  C   UNL     1       3.556   5.961  17.541  0.00  0.00    +0.000 A 
ATOM     14  C   UNL     1       2.458   5.703  18.368  0.00  0.00    +0.000 A 
ATOM     15  C   UNL     1       2.311   4.450  18.955  0.00  0.00    +0.000 A 
ATOM     16 CL   UNL     1       0.961   4.132  19.972  0.00  0.00    +0.000 Cl
ATOM     17  C   UNL     1       3.248   3.450  18.716  0.00  0.00    +0.000 A 
ATOM     18  C   UNL     1       4.339   3.702  17.881  0.00  0.00    +0.000 A 
ENDBRANCH  10  12
BRANCH   1  19
ATOM     19  C   UNL     1       8.170   7.254  18.263  0.00  0.00    +0.000 C 
BRANCH  19  20
ATOM     20  C   UNL     1       8.243   8.768  18.045  0.00  0.00    +0.000 C 
BRANCH  20  21
ATOM     21  C   UNL     1       8.700   9.537  19.294  0.00  0.00    +0.000 C 
BRANCH  21  25
ATOM     22  C   UNL     1      11.745  12.634  18.768  0.00  0.00    +0.000 C 
ATOM     23  C   UNL     1      11.155  11.872  17.567  0.00  0.00    +0.000 C 
ATOM     24  C   UNL     1       9.838  11.137  17.826  0.00  0.00    +0.000 C 
ATOM     25  N   UNL     1       9.881  10.391  19.089  0.00  0.00    +0.000 NA
ATOM     26  C   UNL     1      10.038  11.340  20.199  0.00  0.00    +0.000 C 
ATOM     27  C   UNL     1      11.413  11.999  20.127  0.00  0.00    +0.000 C 
BRANCH  22  33
ATOM     28  F   UNL     1      10.338  16.656  16.388  0.00  0.00    +0.000 F 
ATOM     29  C   UNL     1      10.800  16.108  17.523  0.00  0.00    +0.000 A 
ATOM     30  C   UNL     1      11.087  16.921  18.609  0.00  0.00    +0.000 A 
ATOM     31  C   UNL     1      11.566  16.343  19.784  0.00  0.00    +0.000 A 
ATOM     32  C   UNL     1      11.763  14.958  19.863  0.00  0.00    +0.000 A 
ATOM     33  C   UNL     1      11.488  14.133  18.765  0.00  0.00    +0.000 A 
ATOM     34  C   UNL     1      10.997  14.731  17.590  0.00  0.00    +0.000 A 
ENDBRANCH  22  33
ENDBRANCH  21  25
ENDBRANCH  20  21
ENDBRANCH  19  20
ENDBRANCH   1  19
TORSDOF 6
ENDMDL
MODEL 2
REMARK VINA RESULT:      -9.2      1.012      1.408
REMARK  Name = 
REMARK  6 active torsions:
REMARK  status: ('A' for Active; 'I' for Inactive)
REMARK    1  A    between atoms: C_6  and  C_7
REMARK    2  A    between atoms: N_10  and  C_11
REMARK    3  A    between atoms: C_11  and  C_12
REMARK    4  A    between atoms: C_12  and  C_13
REMARK    5  A    between atoms: C_13  and  N_14
REMARK    6  A    between atoms: N_23  and  C_24
REMARK                            x       y       z     vdW  Elec       q    Type
REMARK                         _______ _______ _______ _____ _____    ______ ____
ROOT
ATOM      1  N   UNL     1       6.682   6.534  17.770  0.00  0.00    +0.000 N 
ATOM      2  C   UNL     1       6.678   5.847  16.592  0.00  0.00    +0.000 A 
ATOM      3  N   UNL     1       7.547   5.999  15.621  0.00  0.00    +0.000 NA
ATOM      4  C   UNL     1       7.093   5.231  14.587  0.00  0.00    +0.000 A 
ATOM      5  C   UNL     1       7.651   5.067  13.307  0.00  0.00    +0.000 A 
ATOM      6  C   UNL     1       7.051   4.179  12.411  0.00  0.00    +0.000 A 
ATOM      7  C   UNL     1       5.934   3.441  12.791  0.00  0.00    +0.000 A 
ATOM      8  C   UNL     1       5.365   3.595  14.061  0.00  0.00    +0.000 A 
ATOM      9  C   UNL     1       5.934   4.540  14.935  0.00  0.00    +0.000 A 
ATOM     10  N   UNL     1       5.638   4.977  16.226  0.00  0.00    +0.000 N 
ATOM     11  H   UNL     1       5.960   7.252  17.803  0.00  0.00    +0.000 HD
ENDROOT
BRANCH  10  12
ATOM     12  C   UNL     1       4.501   4.604  17.015  0.00  0.00    +0.000 A 
ATOM     13  C   UNL     1       4.301   3.269  17.400  0.00  0.00    +0.000 A 
ATOM     14  C   UNL     1       3.187   2.911  18.166  0.00  0.00    +0.000 A 
ATOM     15  C   UNL     1       2.265   3.881  18.548  0.00  0.00    +0.000 A 
ATOM     16 CL   UNL     1       0.896   3.441  19.490  0.00  0.00    +0.000 Cl
ATOM     17  C   UNL     1       2.453   5.209  18.177  0.00  0.00    +0.000 A 
ATOM     18  C   UNL     1       3.571   5.572  17.422  0.00  0.00    +0.000 A 
ENDBRANCH  10  12
BRANCH   1  19
ATOM     19  C   UNL     1       7.970   7.072  18.221  0.00  0.00    +0.000 C 
BRANCH  19  20
ATOM     20  C   UNL     1       8.050   8.554  17.844  0.00  0.00    +0.000 C 
BRANCH  20  21
ATOM     21  C   UNL     1       8.839   9.394  18.859  0.00  0.00    +0.000 C 
BRANCH  21  25
ATOM     22  C   UNL     1      10.571  13.281  17.845  0.00  0.00    +0.000 C 
ATOM     23  C   UNL     1       9.172  12.869  17.353  0.00  0.00    +0.000 C 
ATOM     24  C   UNL     1       8.520  11.702  18.097  0.00  0.00    +0.000 C 
ATOM     25  N   UNL     1       9.468  10.601  18.298  0.00  0.00    +0.000 NA
ATOM     26  C   UNL     1      10.564  11.066  19.159  0.00  0.00    +0.000 C 
ATOM     27  C   UNL     1      11.391  12.117  18.424  0.00  0.00    +0.000 C 
BRANCH  22  33
ATOM     28  F   UNL     1       8.820  17.677  19.042  0.00  0.00    +0.000 F 
ATOM     29  C   UNL     1       9.703  16.698  19.291  0.00  0.00    +0.000 A 
ATOM     30  C   UNL     1      10.635  16.857  20.304  0.00  0.00    +0.000 A 
ATOM     31  C   UNL     1      11.548  15.833  20.557  0.00  0.00    +0.000 A 
ATOM     32  C   UNL     1      11.528  14.662  19.789  0.00  0.00    +0.000 A 
ATOM     33  C   UNL     1      10.597  14.500  18.755  0.00  0.00    +0.000 A 
ATOM     34  C   UNL     1       9.679  15.538  18.519  0.00  0.00    +0.000 A 
ENDBRANCH  22  33
ENDBRANCH  21  25
ENDBRANCH  20  21
ENDBRANCH  19  20
ENDBRANCH   1  19
TORSDOF 6
ENDMDL
MODEL 3
REMARK VINA RESULT:      -8.9      1.396      1.835
REMARK  Name = 
REMARK  6 active torsions:
REMARK  status: ('A' for Active; 'I' for Inactive)
REMARK    1  A    between atoms: C_6  and  C_7
REMARK    2  A    between atoms: N_10  and  C_11
REMARK    3  A    between atoms: C_11  and  C_12
REMARK    4  A    between atoms: C_12  and  C_13
REMARK    5  A    between atoms: C_13  and  N_14
REMARK    6  A    between atoms: N_23  and  C_24
REMARK                            x       y       z     vdW  Elec       q    Type
REMARK                         _______ _______ _______ _____ _____    ______ ____
ROOT
ATOM      1  N   UNL     1       6.696   6.523  17.699  0.00  0.00    +0.000 N 
ATOM      2  C   UNL     1       6.682   5.834  16.522  0.00  0.00    +0.000 A 
ATOM      3  N   UNL     1       7.534   5.997  15.537  0.00  0.00    +0.000 NA
ATOM      4  C   UNL     1       7.074   5.221  14.511  0.00  0.00    +0.000 A 
ATOM      5  C   UNL     1       7.614   5.062  13.223  0.00  0.00    +0.000 A 
ATOM      6  C   UNL     1       7.013   4.163  12.338  0.00  0.00    +0.000 A 
ATOM      7  C   UNL     1       5.913   3.410  12.738  0.00  0.00    +0.000 A 
ATOM      8  C   UNL     1       5.362   3.558  14.016  0.00  0.00    +0.000 A 
ATOM      9  C   UNL     1       5.931   4.513  14.879  0.00  0.00    +0.000 A 
ATOM     10  N   UNL     1       5.649   4.948  16.174  0.00  0.00    +0.000 N 
ATOM     11  H   UNL     1       5.964   7.231  17.742  0.00  0.00    +0.000 HD
ENDROOT
BRANCH  10  12
ATOM     12  C   UNL     1       4.531   4.560  16.982  0.00  0.00    +0.000 A 
ATOM     13  C   UNL     1       4.329   3.216  17.330  0.00  0.00    +0.000 A 
ATOM     14  C   UNL     1       3.233   2.843  18.115  0.00  0.00    +0.000 A 
ATOM     15  C   UNL     1       2.331   3.809  18.552  0.00  0.00    +0.000 A 
ATOM     16 CL   UNL     1       0.984   3.350  19.518  0.00  0.00    +0.000 Cl
ATOM     17  C   UNL     1       2.521   5.146  18.219  0.00  0.00    +0.000 A 
ATOM     18  C   UNL     1       3.621   5.523  17.444  0.00  0.00    +0.000 A 
ENDBRANCH  10  12
BRANCH   1  19
ATOM     19  C   UNL     1       7.982   7.081  18.128  0.00  0.00    +0.000 C 
BRANCH  19  20
ATOM     20  C   UNL     1       8.148   8.477  17.520  0.00  0.00    +0.000 C 
BRANCH  20  21
ATOM     21  C   UNL     1       8.245   9.588  18.576  0.00  0.00    +0.000 C 
BRANCH  21  25
ATOM     22  C   UNL     1      11.226  12.789  18.501  0.00  0.00    +0.000 C 
ATOM     23  C   UNL     1      10.086  12.725  17.469  0.00  0.00    +0.000 C 
ATOM     24  C   UNL     1       8.900  11.833  17.839  0.00  0.00    +0.000 C 
ATOM     25  N   UNL     1       9.349  10.538  18.365  0.00  0.00    +0.000 NA
ATOM     26  C   UNL     1      10.090  10.762  19.613  0.00  0.00    +0.000 C 
ATOM     27  C   UNL     1      11.394  11.498  19.317  0.00  0.00    +0.000 C 
BRANCH  22  33
ATOM     28  F   UNL     1       9.840  14.990  22.631  0.00  0.00    +0.000 F 
ATOM     29  C   UNL     1      10.478  15.078  21.454  0.00  0.00    +0.000 A 
ATOM     30  C   UNL     1      11.037  16.285  21.066  0.00  0.00    +0.000 A 
ATOM     31  C   UNL     1      11.700  16.367  19.842  0.00  0.00    +0.000 A 
ATOM     32  C   UNL     1      11.791  15.244  19.010  0.00  0.00    +0.000 A 
ATOM     33  C   UNL     1      11.218  14.023  19.390  0.00  0.00    +0.000 A 
ATOM     34  C   UNL     1      10.560  13.956  20.632  0.00  0.00    +0.000 A 
ENDBRANCH  22  33
ENDBRANCH  21  25
ENDBRANCH  20  21
ENDBRANCH  19  20
ENDBRANCH   1  19
TORSDOF 6
ENDMDL
MODEL 4
REMARK VINA RESULT:      -8.7      0.963      1.713
REMARK  Name = 
REMARK  6 active torsions:
REMARK  status: ('A' for Active; 'I' for Inactive)
REMARK    1  A    between atoms: C_6  and  C_7
REMARK    2  A    between atoms: N_10  and  C_11
REMARK    3  A    between atoms: C_11  and  C_12
REMARK    4  A    between atoms: C_12  and  C_13
REMARK    5  A    between atoms: C_13  and  N_14
REMARK    6  A    between atoms: N_23  and  C_24
REMARK                            x       y       z     vdW  Elec       q    Type
REMARK                         _______ _______ _______ _____ _____    ______ ____
ROOT
ATOM      1  N   UNL     1       6.859   6.868  17.835  0.00  0.00    +0.000 N 
ATOM      2  C   UNL     1       6.782   6.087  16.718  0.00  0.00    +0.000 A 
ATOM      3  N   UNL     1       7.623   6.117  15.712  0.00  0.00    +0.000 NA
ATOM      4  C   UNL     1       7.098   5.290  14.760  0.00  0.00    +0.000 A 
ATOM      5  C   UNL     1       7.603   4.994  13.482  0.00  0.00    +0.000 A 
ATOM      6  C   UNL     1       6.932   4.065  12.682  0.00  0.00    +0.000 A 
ATOM      7  C   UNL     1       5.796   3.417  13.157  0.00  0.00    +0.000 A 
ATOM      8  C   UNL     1       5.279   3.702  14.426  0.00  0.00    +0.000 A 
ATOM      9  C   UNL     1       5.921   4.687  15.200  0.00  0.00    +0.000 A 
ATOM     10  N   UNL     1       5.691   5.242  16.459  0.00  0.00    +0.000 N 
ATOM     11  H   UNL     1       6.173   7.620  17.829  0.00  0.00    +0.000 HD
ENDROOT
BRANCH  10  12
ATOM     12  C   UNL     1       4.566   4.991  17.311  0.00  0.00    +0.000 A 
ATOM     13  C   UNL     1       4.317   3.703  17.810  0.00  0.00    +0.000 A 
ATOM     14  C   UNL     1       3.215   3.463  18.638  0.00  0.00    +0.000 A 
ATOM     15  C   UNL     1       2.355   4.507  18.967  0.00  0.00    +0.000 A 
ATOM     16 CL   UNL     1       1.000   4.212  19.985  0.00  0.00    +0.000 Cl
ATOM     17  C   UNL     1       2.591   5.789  18.484  0.00  0.00    +0.000 A 
ATOM     18  C   UNL     1       3.698   6.034  17.666  0.00  0.00    +0.000 A 
ENDBRANCH  10  12
BRANCH   1  19
ATOM     19  C   UNL     1       8.185   7.377  18.199  0.00  0.00    +0.000 C 
BRANCH  19  20
ATOM     20  C   UNL     1       8.188   8.903  18.060  0.00  0.00    +0.000 C 
BRANCH  20  21
ATOM     21  C   UNL     1       9.026   9.605  19.139  0.00  0.00    +0.000 C 
BRANCH  21  25
ATOM     22  C   UNL     1       8.992  13.979  19.045  0.00  0.00    +0.000 C 
ATOM     23  C   UNL     1       9.430  13.203  20.300  0.00  0.00    +0.000 C 
ATOM     24  C   UNL     1       9.794  11.733  20.083  0.00  0.00    +0.000 C 
ATOM     25  N   UNL     1       8.805  11.057  19.236  0.00  0.00    +0.000 NA
ATOM     26  C   UNL     1       8.815  11.677  17.903  0.00  0.00    +0.000 C 
ATOM     27  C   UNL     1       8.289  13.107  17.992  0.00  0.00    +0.000 C 
BRANCH  22  33
ATOM     28  F   UNL     1      10.280  18.154  16.870  0.00  0.00    +0.000 F 
ATOM     29  C   UNL     1      10.649  16.946  17.323  0.00  0.00    +0.000 A 
ATOM     30  C   UNL     1      11.957  16.521  17.151  0.00  0.00    +0.000 A 
ATOM     31  C   UNL     1      12.332  15.264  17.626  0.00  0.00    +0.000 A 
ATOM     32  C   UNL     1      11.395  14.438  18.260  0.00  0.00    +0.000 A 
ATOM     33  C   UNL     1      10.068  14.857  18.426  0.00  0.00    +0.000 A 
ATOM     34  C   UNL     1       9.709  16.130  17.949  0.00  0.00    +0.000 A 
ENDBRANCH  22  33
ENDBRANCH  21  25
ENDBRANCH  20  21
ENDBRANCH  19  20
ENDBRANCH   1  19
TORSDOF 6
ENDMDL
MODEL 5
REMARK VINA RESULT:      -8.7      6.321      7.973
REMARK  Name = 
REMARK  6 active torsions:
REMARK  status: ('A' for Active; 'I' for Inactive)
REMARK    1  A    between atoms: C_6  and  C_7
REMARK    2  A    between atoms: N_10  and  C_11
REMARK    3  A    between atoms: C_11  and  C_12
REMARK    4  A    between atoms: C_12  and  C_13
REMARK    5  A    between atoms: C_13  and  N_14
REMARK    6  A    between atoms: N_23  and  C_24
REMARK                            x       y       z     vdW  Elec       q    Type
REMARK                         _______ _______ _______ _____ _____    ______ ____
ROOT
ATOM      1  N   UNL     1       2.882   7.609  17.847  0.00  0.00    +0.000 N 
ATOM      2  C   UNL     1       2.851   6.449  18.564  0.00  0.00    +0.000 A 
ATOM      3  N   UNL     1       2.112   6.233  19.626  0.00  0.00    +0.000 NA
ATOM      4  C   UNL     1       2.494   5.012  20.106  0.00  0.00    +0.000 A 
ATOM      5  C   UNL     1       2.024   4.332  21.243  0.00  0.00    +0.000 A 
ATOM      6  C   UNL     1       2.512   3.053  21.523  0.00  0.00    +0.000 A 
ATOM      7  C   UNL     1       3.430   2.447  20.669  0.00  0.00    +0.000 A 
ATOM      8  C   UNL     1       3.909   3.112  19.535  0.00  0.00    +0.000 A 
ATOM      9  C   UNL     1       3.463   4.425  19.295  0.00  0.00    +0.000 A 
ATOM     10  N   UNL     1       3.729   5.382  18.316  0.00  0.00    +0.000 N 
ATOM     11  H   UNL     1       3.724   8.154  18.026  0.00  0.00    +0.000 HD
ENDROOT
BRANCH  10  12
ATOM     12  C   UNL     1       4.702   5.285  17.268  0.00  0.00    +0.000 A 
ATOM     13  C   UNL     1       4.476   4.464  16.152  0.00  0.00    +0.000 A 
ATOM     14  C   UNL     1       5.431   4.370  15.135  0.00  0.00    +0.000 A 
ATOM     15  C   UNL     1       6.618   5.091  15.228  0.00  0.00    +0.000 A 
ATOM     16 CL   UNL     1       7.793   4.976  13.977  0.00  0.00    +0.000 Cl
ATOM     17  C   UNL     1       6.854   5.912  16.326  0.00  0.00    +0.000 A 
ATOM     18  C   UNL     1       5.897   6.017  17.338  0.00  0.00    +0.000 A 
ENDBRANCH  10  12
BRANCH   1  19
ATOM     19  C   UNL     1       1.690   8.461  17.911  0.00  0.00    +0.000 C 
BRANCH  19  20
ATOM     20  C   UNL     1       2.126   9.914  18.126  0.00  0.00    +0.000 C 
BRANCH  20  21
ATOM     21  C   UNL     1       0.990  10.817  18.628  0.00  0.00    +0.000 C 
BRANCH  21  25
ATOM     22  C   UNL     1       1.919  15.024  19.389  0.00  0.00    +0.000 C 
ATOM     23  C   UNL     1       2.959  14.067  18.779  0.00  0.00    +0.000 C 
ATOM     24  C   UNL     1       2.405  12.770  18.185  0.00  0.00    +0.000 C 
ATOM     25  N   UNL     1       1.424  12.149  19.083  0.00  0.00    +0.000 NA
ATOM     26  C   UNL     1       0.272  13.050  19.229  0.00  0.00    +0.000 C 
ATOM     27  C   UNL     1       0.693  14.310  19.980  0.00  0.00    +0.000 C 
BRANCH  22  33
ATOM     28  F   UNL     1      -1.492  18.134  17.805  0.00  0.00    +0.000 F 
ATOM     29  C   UNL     1      -0.225  17.699  17.727  0.00  0.00    +0.000 A 
ATOM     30  C   UNL     1       0.640  18.270  16.807  0.00  0.00    +0.000 A 
ATOM     31  C   UNL     1       1.956  17.813  16.735  0.00  0.00    +0.000 A 
ATOM     32  C   UNL     1       2.394  16.781  17.575  0.00  0.00    +0.000 A 
ATOM     33  C   UNL     1       1.521  16.191  18.498  0.00  0.00    +0.000 A 
ATOM     34  C   UNL     1       0.200  16.670  18.565  0.00  0.00    +0.000 A 
ENDBRANCH  22  33
ENDBRANCH  21  25
ENDBRANCH  20  21
ENDBRANCH  19  20
ENDBRANCH   1  19
TORSDOF 6
ENDMDL
MODEL 6
REMARK VINA RESULT:      -8.7      6.884     10.043
REMARK  Name = 
REMARK  6 active torsions:
REMARK  status: ('A' for Active; 'I' for Inactive)
REMARK    1  A    between atoms: C_6  and  C_7
REMARK    2  A    between atoms: N_10  and  C_11
REMARK    3  A    between atoms: C_11  and  C_12
REMARK    4  A    between atoms: C_12  and  C_13
REMARK    5  A    between atoms: C_13  and  N_14
REMARK    6  A    between atoms: N_23  and  C_24
REMARK                            x       y       z     vdW  Elec       q    Type
REMARK                         _______ _______ _______ _____ _____    ______ ____
ROOT
ATOM      1  N   UNL     1       2.916   7.586  17.830  0.00  0.00    +0.000 N 
ATOM      2  C   UNL     1       2.886   6.424  18.545  0.00  0.00    +0.000 A 
ATOM      3  N   UNL     1       2.155   6.209  19.613  0.00  0.00    +0.000 NA
ATOM      4  C   UNL     1       2.535   4.986  20.088  0.00  0.00    +0.000 A 
ATOM      5  C   UNL     1       2.071   4.306  21.228  0.00  0.00    +0.000 A 
ATOM      6  C   UNL     1       2.556   3.024  21.501  0.00  0.00    +0.000 A 
ATOM      7  C   UNL     1       3.464   2.416  20.639  0.00  0.00    +0.000 A 
ATOM      8  C   UNL     1       3.937   3.080  19.502  0.00  0.00    +0.000 A 
ATOM      9  C   UNL     1       3.495   4.396  19.268  0.00  0.00    +0.000 A 
ATOM     10  N   UNL     1       3.757   5.354  18.288  0.00  0.00    +0.000 N 
ATOM     11  H   UNL     1       3.762   8.126  18.003  0.00  0.00    +0.000 HD
ENDROOT
BRANCH  10  12
ATOM     12  C   UNL     1       4.721   5.254  17.232  0.00  0.00    +0.000 A 
ATOM     13  C   UNL     1       4.469   4.459  16.103  0.00  0.00    +0.000 A 
ATOM     14  C   UNL     1       5.415   4.362  15.077  0.00  0.00    +0.000 A 
ATOM     15  C   UNL     1       6.619   5.054  15.176  0.00  0.00    +0.000 A 
ATOM     16 CL   UNL     1       7.782   4.936  13.915  0.00  0.00    +0.000 Cl
ATOM     17  C   UNL     1       6.881   5.849  16.287  0.00  0.00    +0.000 A 
ATOM     18  C   UNL     1       5.932   5.957  17.308  0.00  0.00    +0.000 A 
ENDBRANCH  10  12
BRANCH   1  19
ATOM     19  C   UNL     1       1.728   8.443  17.905  0.00  0.00    +0.000 C 
BRANCH  19  20
ATOM     20  C   UNL     1       2.157   9.853  18.323  0.00  0.00    +0.000 C 
BRANCH  20  21
ATOM     21  C   UNL     1       0.980  10.833  18.437  0.00  0.00    +0.000 C 
BRANCH  21  25
ATOM     22  C   UNL     1      -0.726  12.046  22.279  0.00  0.00    +0.000 C 
ATOM     23  C   UNL     1       0.068  13.032  21.402  0.00  0.00    +0.000 C 
ATOM     24  C   UNL     1       0.246  12.628  19.937  0.00  0.00    +0.000 C 
ATOM     25  N   UNL     1       0.636  11.218  19.815  0.00  0.00    +0.000 NA
ATOM     26  C   UNL     1      -0.449  10.376  20.337  0.00  0.00    +0.000 C 
ATOM     27  C   UNL     1      -0.583  10.579  21.844  0.00  0.00    +0.000 C 
BRANCH  22  33
ATOM     28  F   UNL     1      -4.603  12.196  25.240  0.00  0.00    +0.000 F 
ATOM     29  C   UNL     1      -4.086  12.453  24.028  0.00  0.00    +0.000 A 
ATOM     30  C   UNL     1      -4.896  12.982  23.036  0.00  0.00    +0.000 A 
ATOM     31  C   UNL     1      -4.349  13.249  21.780  0.00  0.00    +0.000 A 
ATOM     32  C   UNL     1      -3.000  12.974  21.523  0.00  0.00    +0.000 A 
ATOM     33  C   UNL     1      -2.179  12.427  22.518  0.00  0.00    +0.000 A 
ATOM     34  C   UNL     1      -2.743  12.173  23.781  0.00  0.00    +0.000 A 
ENDBRANCH  22  33
ENDBRANCH  21  25
ENDBRANCH  20  21
ENDBRANCH  19  20
ENDBRANCH   1  19
TORSDOF 6
ENDMDL
MODEL 7
REMARK VINA RESULT:      -8.6      1.568      1.838
REMARK  Name = 
REMARK  6 active torsions:
REMARK  status: ('A' for Active; 'I' for Inactive)
REMARK    1  A    between atoms: C_6  and  C_7
REMARK    2  A    between atoms: N_10  and  C_11
REMARK    3  A    between atoms: C_11  and  C_12
REMARK    4  A    between atoms: C_12  and  C_13
REMARK    5  A    between atoms: C_13  and  N_14
REMARK    6  A    between atoms: N_23  and  C_24
REMARK                            x       y       z     vdW  Elec       q    Type
REMARK                         _______ _______ _______ _____ _____    ______ ____
ROOT
ATOM      1  N   UNL     1       6.775   6.608  17.821  0.00  0.00    +0.000 N 
ATOM      2  C   UNL     1       6.720   5.908  16.652  0.00  0.00    +0.000 A 
ATOM      3  N   UNL     1       7.576   6.012  15.663  0.00  0.00    +0.000 NA
ATOM      4  C   UNL     1       7.071   5.252  14.647  0.00  0.00    +0.000 A 
ATOM      5  C   UNL     1       7.597   5.049  13.360  0.00  0.00    +0.000 A 
ATOM      6  C   UNL     1       6.943   4.176  12.486  0.00  0.00    +0.000 A 
ATOM      7  C   UNL     1       5.803   3.491  12.896  0.00  0.00    +0.000 A 
ATOM      8  C   UNL     1       5.265   3.684  14.173  0.00  0.00    +0.000 A 
ATOM      9  C   UNL     1       5.890   4.615  15.025  0.00  0.00    +0.000 A 
ATOM     10  N   UNL     1       5.637   5.079  16.316  0.00  0.00    +0.000 N 
ATOM     11  H   UNL     1       6.085   7.357  17.858  0.00  0.00    +0.000 HD
ENDROOT
BRANCH  10  12
ATOM     12  C   UNL     1       4.501   4.764  17.130  0.00  0.00    +0.000 A 
ATOM     13  C   UNL     1       4.327   3.473  17.652  0.00  0.00    +0.000 A 
ATOM     14  C   UNL     1       3.213   3.170  18.442  0.00  0.00    +0.000 A 
ATOM     15  C   UNL     1       2.266   4.153  18.712  0.00  0.00    +0.000 A 
ATOM     16 CL   UNL     1       0.896   3.782  19.684  0.00  0.00    +0.000 Cl
ATOM     17  C   UNL     1       2.426   5.439  18.205  0.00  0.00    +0.000 A 
ATOM     18  C   UNL     1       3.544   5.747  17.424  0.00  0.00    +0.000 A 
ENDBRANCH  10  12
BRANCH   1  19
ATOM     19  C   UNL     1       8.093   7.096  18.242  0.00  0.00    +0.000 C 
BRANCH  19  20
ATOM     20  C   UNL     1       8.142   8.617  18.060  0.00  0.00    +0.000 C 
BRANCH  20  21
ATOM     21  C   UNL     1       8.920   9.332  19.174  0.00  0.00    +0.000 C 
BRANCH  21  25
ATOM     22  C   UNL     1       9.839  13.547  18.447  0.00  0.00    +0.000 C 
ATOM     23  C   UNL     1       9.212  12.659  17.357  0.00  0.00    +0.000 C 
ATOM     24  C   UNL     1       8.565  11.361  17.844  0.00  0.00    +0.000 C 
ATOM     25  N   UNL     1       9.426  10.665  18.808  0.00  0.00    +0.000 NA
ATOM     26  C   UNL     1       9.586  11.508  20.000  0.00  0.00    +0.000 C 
ATOM     27  C   UNL     1      10.386  12.759  19.647  0.00  0.00    +0.000 C 
BRANCH  22  33
ATOM     28  F   UNL     1       8.589  18.242  17.983  0.00  0.00    +0.000 F 
ATOM     29  C   UNL     1       8.418  17.077  18.628  0.00  0.00    +0.000 A 
ATOM     30  C   UNL     1       7.535  17.007  19.694  0.00  0.00    +0.000 A 
ATOM     31  C   UNL     1       7.362  15.792  20.356  0.00  0.00    +0.000 A 
ATOM     32  C   UNL     1       8.080  14.658  19.954  0.00  0.00    +0.000 A 
ATOM     33  C   UNL     1       8.983  14.725  18.885  0.00  0.00    +0.000 A 
ATOM     34  C   UNL     1       9.139  15.956  18.223  0.00  0.00    +0.000 A 
ENDBRANCH  22  33
ENDBRANCH  21  25
ENDBRANCH  20  21
ENDBRANCH  19  20
ENDBRANCH   1  19
TORSDOF 6
ENDMDL
MODEL 8
REMARK VINA RESULT:      -8.6      8.755     13.143
REMARK  Name = 
REMARK  6 active torsions:
REMARK  status: ('A' for Active; 'I' for Inactive)
REMARK    1  A    between atoms: C_6  and  C_7
REMARK    2  A    between atoms: N_10  and  C_11
REMARK    3  A    between atoms: C_11  and  C_12
REMARK    4  A    between atoms: C_12  and  C_13
REMARK    5  A    between atoms: C_13  and  N_14
REMARK    6  A    between atoms: N_23  and  C_24
REMARK                            x       y       z     vdW  Elec       q    Type
REMARK                         _______ _______ _______ _____ _____    ______ ____
ROOT
ATOM      1  N   UNL     1      -2.574  12.183  18.281  0.00  0.00    +0.000 N 
ATOM      2  C   UNL     1      -3.709  12.079  19.031  0.00  0.00    +0.000 A 
ATOM      3  N   UNL     1      -4.822  11.499  18.648  0.00  0.00    +0.000 NA
ATOM      4  C   UNL     1      -5.733  11.747  19.635  0.00  0.00    +0.000 A 
ATOM      5  C   UNL     1      -7.084  11.365  19.696  0.00  0.00    +0.000 A 
ATOM      6  C   UNL     1      -7.830  11.675  20.836  0.00  0.00    +0.000 A 
ATOM      7  C   UNL     1      -7.233  12.326  21.912  0.00  0.00    +0.000 A 
ATOM      8  C   UNL     1      -5.890  12.716  21.866  0.00  0.00    +0.000 A 
ATOM      9  C   UNL     1      -5.163  12.460  20.688  0.00  0.00    +0.000 A 
ATOM     10  N   UNL     1      -3.856  12.716  20.274  0.00  0.00    +0.000 N 
ATOM     11  H   UNL     1      -2.440  13.121  17.908  0.00  0.00    +0.000 HD
ENDROOT
BRANCH  10  12
ATOM     12  C   UNL     1      -2.867  13.474  20.983  0.00  0.00    +0.000 A 
ATOM     13  C   UNL     1      -1.930  12.836  21.809  0.00  0.00    +0.000 A 
ATOM     14  C   UNL     1      -0.970  13.581  22.502  0.00  0.00    +0.000 A 
ATOM     15  C   UNL     1      -0.945  14.967  22.377  0.00  0.00    +0.000 A 
ATOM     16 CL   UNL     1       0.235  15.884  23.228  0.00  0.00    +0.000 Cl
ATOM     17  C   UNL     1      -1.865  15.613  21.558  0.00  0.00    +0.000 A 
ATOM     18  C   UNL     1      -2.817  14.870  20.856  0.00  0.00    +0.000 A 
ENDBRANCH  10  12
BRANCH   1  19
ATOM     19  C   UNL     1      -2.375  11.175  17.235  0.00  0.00    +0.000 C 
BRANCH  19  20
ATOM     20  C   UNL     1      -1.353  10.144  17.723  0.00  0.00    +0.000 C 
BRANCH  20  21
ATOM     21  C   UNL     1      -0.274  10.747  18.634  0.00  0.00    +0.000 C 
BRANCH  21  25
ATOM     22  C   UNL     1       2.400   7.429  19.620  0.00  0.00    +0.000 C 
ATOM     23  C   UNL     1       1.624   8.189  20.711  0.00  0.00    +0.000 C 
ATOM     24  C   UNL     1       0.436   9.023  20.225  0.00  0.00    +0.000 C 
ATOM     25  N   UNL     1       0.785   9.807  19.034  0.00  0.00    +0.000 NA
ATOM     26  C   UNL     1       1.108   8.887  17.935  0.00  0.00    +0.000 C 
ATOM     27  C   UNL     1       2.396   8.131  18.253  0.00  0.00    +0.000 C 
BRANCH  22  33
ATOM     28  F   UNL     1       2.177   3.368  16.922  0.00  0.00    +0.000 F 
ATOM     29  C   UNL     1       1.944   3.965  18.101  0.00  0.00    +0.000 A 
ATOM     30  C   UNL     1       1.346   3.248  19.125  0.00  0.00    +0.000 A 
ATOM     31  C   UNL     1       1.109   3.875  20.348  0.00  0.00    +0.000 A 
ATOM     32  C   UNL     1       1.463   5.218  20.535  0.00  0.00    +0.000 A 
ATOM     33  C   UNL     1       2.056   5.952  19.500  0.00  0.00    +0.000 A 
ATOM     34  C   UNL     1       2.296   5.302  18.276  0.00  0.00    +0.000 A 
ENDBRANCH  22  33
ENDBRANCH  21  25
ENDBRANCH  20  21
ENDBRANCH  19  20
ENDBRANCH   1  19
TORSDOF 6
ENDMDL
MODEL 9
REMARK VINA RESULT:      -8.6      2.799      3.866
REMARK  Name = 
REMARK  6 active torsions:
REMARK  status: ('A' for Active; 'I' for Inactive)
REMARK    1  A    between atoms: C_6  and  C_7
REMARK    2  A    between atoms: N_10  and  C_11
REMARK    3  A    between atoms: C_11  and  C_12
REMARK    4  A    between atoms: C_12  and  C_13
REMARK    5  A    between atoms: C_13  and  N_14
REMARK    6  A    between atoms: N_23  and  C_24
REMARK                            x       y       z     vdW  Elec       q    Type
REMARK                         _______ _______ _______ _____ _____    ______ ____
ROOT
ATOM      1  N   UNL     1       5.463   7.277  17.534  0.00  0.00    +0.000 N 
ATOM      2  C   UNL     1       4.712   6.151  17.705  0.00  0.00    +0.000 A 
ATOM      3  N   UNL     1       5.084   4.935  17.383  0.00  0.00    +0.000 NA
ATOM      4  C   UNL     1       3.990   4.142  17.587  0.00  0.00    +0.000 A 
ATOM      5  C   UNL     1       3.857   2.761  17.366  0.00  0.00    +0.000 A 
ATOM      6  C   UNL     1       2.655   2.130  17.701  0.00  0.00    +0.000 A 
ATOM      7  C   UNL     1       1.615   2.855  18.275  0.00  0.00    +0.000 A 
ATOM      8  C   UNL     1       1.731   4.231  18.498  0.00  0.00    +0.000 A 
ATOM      9  C   UNL     1       2.919   4.873  18.097  0.00  0.00    +0.000 A 
ATOM     10  N   UNL     1       3.375   6.190  18.131  0.00  0.00    +0.000 N 
ATOM     11  H   UNL     1       5.144   7.840  16.748  0.00  0.00    +0.000 HD
ENDROOT
BRANCH  10  12
ATOM     12  C   UNL     1       2.624   7.345  18.527  0.00  0.00    +0.000 A 
ATOM     13  C   UNL     1       2.155   7.480  19.843  0.00  0.00    +0.000 A 
ATOM     14  C   UNL     1       1.418   8.607  20.222  0.00  0.00    +0.000 A 
ATOM     15  C   UNL     1       1.143   9.602  19.289  0.00  0.00    +0.000 A 
ATOM     16 CL   UNL     1       0.238  10.989  19.755  0.00  0.00    +0.000 Cl
ATOM     17  C   UNL     1       1.606   9.485  17.982  0.00  0.00    +0.000 A 
ATOM     18  C   UNL     1       2.351   8.365  17.604  0.00  0.00    +0.000 A 
ENDBRANCH  10  12
BRANCH   1  19
ATOM     19  C   UNL     1       6.919   7.105  17.492  0.00  0.00    +0.000 C 
BRANCH  19  20
ATOM     20  C   UNL     1       7.584   8.485  17.476  0.00  0.00    +0.000 C 
BRANCH  20  21
ATOM     21  C   UNL     1       8.524   8.716  18.669  0.00  0.00    +0.000 C 
BRANCH  21  25
ATOM     22  C   UNL     1      10.199  12.744  18.992  0.00  0.00    +0.000 C 
ATOM     23  C   UNL     1       9.409  12.297  17.748  0.00  0.00    +0.000 C 
ATOM     24  C   UNL     1       8.538  11.051  17.924  0.00  0.00    +0.000 C 
ATOM     25  N   UNL     1       9.264   9.987  18.627  0.00  0.00    +0.000 NA
ATOM     26  C   UNL     1       9.588  10.447  19.984  0.00  0.00    +0.000 C 
ATOM     27  C   UNL     1      10.602  11.586  19.918  0.00  0.00    +0.000 C 
BRANCH  22  33
ATOM     28  F   UNL     1       6.337  15.568  19.957  0.00  0.00    +0.000 F 
ATOM     29  C   UNL     1       7.630  15.290  20.188  0.00  0.00    +0.000 A 
ATOM     30  C   UNL     1       8.358  16.090  21.054  0.00  0.00    +0.000 A 
ATOM     31  C   UNL     1       9.700  15.793  21.290  0.00  0.00    +0.000 A 
ATOM     32  C   UNL     1      10.307  14.703  20.651  0.00  0.00    +0.000 A 
ATOM     33  C   UNL     1       9.579  13.898  19.765  0.00  0.00    +0.000 A 
ATOM     34  C   UNL     1       8.225  14.207  19.545  0.00  0.00    +0.000 A 
ENDBRANCH  22  33
ENDBRANCH  21  25
ENDBRANCH  20  21
ENDBRANCH  19  20
ENDBRANCH   1  19
TORSDOF 6
ENDMDL
