MODEL 1
REMARK VINA RESULT:      -7.4      0.000      0.000
REMARK  Name = 
REMARK  8 active torsions:
REMARK  status: ('A' for Active; 'I' for Inactive)
REMARK    1  A    between atoms: C_2  and  O_3
REMARK    2  A    between atoms: C_2  and  C_4
REMARK    3  A    between atoms: C_7  and  N_8
REMARK    4  A    between atoms: N_8  and  C_9
REMARK    5  A    between atoms: C_9  and  C_11
REMARK    6  A    between atoms: N_15  and  C_16
REMARK    7  A    between atoms: C_20  and  C_21
REMARK    8  A    between atoms: C_29  and  O_30
REMARK                            x       y       z     vdW  Elec       q    Type
REMARK                         _______ _______ _______ _____ _____    ______ ____
ROOT
ATOM      1  C   UNL     1       1.286   9.910  19.717  0.00  0.00    +0.000 C 
ATOM      2  S   UNL     1       0.359   9.681  18.186  0.00  0.00    +0.000 S 
ATOM      3  C   UNL     1      -0.688  11.061  18.516  0.00  0.00    +0.000 C 
ATOM      4  S   UNL     1      -2.131  11.235  17.688  0.00  0.00    +0.000 S 
ATOM      5  N   UNL     1      -0.158  11.833  19.541  0.00  0.00    +0.000 N 
ATOM      6  C   UNL     1       0.926  11.285  20.221  0.00  0.00    +0.000 C 
ATOM      7  O   UNL     1       1.574  11.814  21.123  0.00  0.00    +0.000 OA
ENDROOT
BRANCH   5   8
ATOM      8  C   UNL     1      -0.588  13.163  19.867  0.00  0.00    +0.000 A 
ATOM      9  C   UNL     1      -1.594  13.369  20.818  0.00  0.00    +0.000 A 
ATOM     10  C   UNL     1      -2.094  14.648  21.069  0.00  0.00    +0.000 A 
ATOM     11  C   UNL     1      -1.588  15.745  20.377  0.00  0.00    +0.000 A 
ATOM     12  C   UNL     1      -0.570  15.572  19.428  0.00  0.00    +0.000 A 
ATOM     13  C   UNL     1      -0.079  14.278  19.181  0.00  0.00    +0.000 A 
BRANCH  12  14
ATOM     14  C   UNL     1      -0.010  16.754  18.675  0.00  0.00    +0.000 C 
ATOM     15  F   UNL     1       0.088  17.884  19.428  0.00  0.00    +0.000 F 
ATOM     16  F   UNL     1       1.237  16.518  18.188  0.00  0.00    +0.000 F 
ATOM     17  F   UNL     1      -0.774  17.094  17.597  0.00  0.00    +0.000 F 
ENDBRANCH  12  14
ENDBRANCH   5   8
BRANCH   1  18
ATOM     18  C   UNL     1       1.024   8.810  20.757  0.00  0.00    +0.000 C 
ATOM     19  S   UNL     1      -0.287   8.931  21.817  0.00  0.00    +0.000 S 
BRANCH  18  20
ATOM     20  N   UNL     1       1.970   7.779  20.703  0.00  0.00    +0.000 N 
ATOM     21  H   UNL     1       2.879   7.985  21.110  0.00  0.00    +0.000 HD
BRANCH  20  25
ATOM     22  C   UNL     1       1.835   3.913  18.941  0.00  0.00    +0.000 A 
ATOM     23  C   UNL     1       2.377   5.012  18.262  0.00  0.00    +0.000 A 
ATOM     24  C   UNL     1       2.409   6.278  18.865  0.00  0.00    +0.000 A 
ATOM     25  C   UNL     1       1.884   6.475  20.151  0.00  0.00    +0.000 A 
ATOM     26  C   UNL     1       1.383   5.366  20.835  0.00  0.00    +0.000 A 
ATOM     27  C   UNL     1       1.345   4.106  20.234  0.00  0.00    +0.000 A 
BRANCH  22  29
ATOM     28  O   UNL     1       2.789   2.134  17.686  0.00  0.00    +0.000 OA
ATOM     29  C   UNL     1       1.808   2.599  18.243  0.00  0.00    +0.000 C 
BRANCH  29  30
ATOM     30  O   UNL     1       0.632   1.941  18.326  0.00  0.00    +0.000 OA
ATOM     31  H   UNL     1       0.082   2.251  19.080  0.00  0.00    +0.000 HD
ENDBRANCH  29  30
ENDBRANCH  22  29
BRANCH  27  32
ATOM     32  O   UNL     1       0.836   3.047  20.944  0.00  0.00    +0.000 OA
ATOM     33  H   UNL     1       0.152   2.612  20.398  0.00  0.00    +0.000 HD
ENDBRANCH  27  32
ENDBRANCH  20  25
ENDBRANCH  18  20
ENDBRANCH   1  18
TORSDOF 8
ENDMDL
MODEL 2
REMARK VINA RESULT:      -7.2      2.633      3.142
REMARK  Name = 
REMARK  8 active torsions:
REMARK  status: ('A' for Active; 'I' for Inactive)
REMARK    1  A    between atoms: C_2  and  O_3
REMARK    2  A    between atoms: C_2  and  C_4
REMARK    3  A    between atoms: C_7  and  N_8
REMARK    4  A    between atoms: N_8  and  C_9
REMARK    5  A    between atoms: C_9  and  C_11
REMARK    6  A    between atoms: N_15  and  C_16
REMARK    7  A    between atoms: C_20  and  C_21
REMARK    8  A    between atoms: C_29  and  O_30
REMARK                            x       y       z     vdW  Elec       q    Type
REMARK                         _______ _______ _______ _____ _____    ______ ____
ROOT
ATOM      1  C   UNL     1       1.067   9.964  19.996  0.00  0.00    +0.000 C 
ATOM      2  S   UNL     1       0.220   9.898  18.404  0.00  0.00    +0.000 S 
ATOM      3  C   UNL     1      -1.077  10.957  18.956  0.00  0.00    +0.000 C 
ATOM      4  S   UNL     1      -2.517  11.033  18.107  0.00  0.00    +0.000 S 
ATOM      5  N   UNL     1      -0.718  11.578  20.145  0.00  0.00    +0.000 N 
ATOM      6  C   UNL     1       0.442  11.109  20.753  0.00  0.00    +0.000 C 
ATOM      7  O   UNL     1       0.965  11.545  21.778  0.00  0.00    +0.000 OA
ENDROOT
BRANCH   5   8
ATOM      8  C   UNL     1      -1.400  12.705  20.716  0.00  0.00    +0.000 A 
ATOM      9  C   UNL     1      -1.135  14.000  20.257  0.00  0.00    +0.000 A 
ATOM     10  C   UNL     1      -1.712  15.113  20.872  0.00  0.00    +0.000 A 
ATOM     11  C   UNL     1      -2.573  14.945  21.954  0.00  0.00    +0.000 A 
ATOM     12  C   UNL     1      -2.869  13.659  22.428  0.00  0.00    +0.000 A 
ATOM     13  C   UNL     1      -2.277  12.548  21.802  0.00  0.00    +0.000 A 
BRANCH  12  14
ATOM     14  C   UNL     1      -3.804  13.464  23.596  0.00  0.00    +0.000 C 
ATOM     15  F   UNL     1      -5.111  13.702  23.295  0.00  0.00    +0.000 F 
ATOM     16  F   UNL     1      -3.758  12.200  24.095  0.00  0.00    +0.000 F 
ATOM     17  F   UNL     1      -3.511  14.289  24.642  0.00  0.00    +0.000 F 
ENDBRANCH  12  14
ENDBRANCH   5   8
BRANCH   1  18
ATOM     18  C   UNL     1       1.009   8.639  20.771  0.00  0.00    +0.000 C 
ATOM     19  S   UNL     1      -0.180   8.388  21.945  0.00  0.00    +0.000 S 
BRANCH  18  20
ATOM     20  N   UNL     1       2.019   7.747  20.391  0.00  0.00    +0.000 N 
ATOM     21  H   UNL     1       2.972   8.099  20.452  0.00  0.00    +0.000 HD
BRANCH  20  25
ATOM     22  C   UNL     1       1.915   3.790  18.843  0.00  0.00    +0.000 A 
ATOM     23  C   UNL     1       2.498   4.844  18.128  0.00  0.00    +0.000 A 
ATOM     24  C   UNL     1       2.518   6.141  18.660  0.00  0.00    +0.000 A 
ATOM     25  C   UNL     1       1.942   6.415  19.909  0.00  0.00    +0.000 A 
ATOM     26  C   UNL     1       1.400   5.350  20.632  0.00  0.00    +0.000 A 
ATOM     27  C   UNL     1       1.373   4.059  20.100  0.00  0.00    +0.000 A 
BRANCH  22  29
ATOM     28  O   UNL     1       2.908   1.921  17.758  0.00  0.00    +0.000 OA
ATOM     29  C   UNL     1       1.903   2.439  18.218  0.00  0.00    +0.000 C 
BRANCH  29  30
ATOM     30  O   UNL     1       0.707   1.812  18.253  0.00  0.00    +0.000 OA
ATOM     31  H   UNL     1       0.334   1.769  19.162  0.00  0.00    +0.000 HD
ENDBRANCH  29  30
ENDBRANCH  22  29
BRANCH  27  32
ATOM     32  O   UNL     1       0.823   3.046  20.845  0.00  0.00    +0.000 OA
ATOM     33  H   UNL     1      -0.101   3.287  21.057  0.00  0.00    +0.000 HD
ENDBRANCH  27  32
ENDBRANCH  20  25
ENDBRANCH  18  20
ENDBRANCH   1  18
TORSDOF 8
ENDMDL
MODEL 3
REMARK VINA RESULT:      -7.1      0.578      1.458
REMARK  Name = 
REMARK  8 active torsions:
REMARK  status: ('A' for Active; 'I' for Inactive)
REMARK    1  A    between atoms: C_2  and  O_3
REMARK    2  A    between atoms: C_2  and  C_4
REMARK    3  A    between atoms: C_7  and  N_8
REMARK    4  A    between atoms: N_8  and  C_9
REMARK    5  A    between atoms: C_9  and  C_11
REMARK    6  A    between atoms: N_15  and  C_16
REMARK    7  A    between atoms: C_20  and  C_21
REMARK    8  A    between atoms: C_29  and  O_30
REMARK                            x       y       z     vdW  Elec       q    Type
REMARK                         _______ _______ _______ _____ _____    ______ ____
ROOT
ATOM      1  C   UNL     1       1.224   9.855  19.763  0.00  0.00    +0.000 C 
ATOM      2  S   UNL     1       0.318   9.639  18.218  0.00  0.00    +0.000 S 
ATOM      3  C   UNL     1      -0.725  11.024  18.539  0.00  0.00    +0.000 C 
ATOM      4  S   UNL     1      -2.156  11.211  17.691  0.00  0.00    +0.000 S 
ATOM      5  N   UNL     1      -0.205  11.789  19.575  0.00  0.00    +0.000 N 
ATOM      6  C   UNL     1       0.865  11.230  20.268  0.00  0.00    +0.000 C 
ATOM      7  O   UNL     1       1.503  11.752  21.181  0.00  0.00    +0.000 OA
ENDROOT
BRANCH   5   8
ATOM      8  C   UNL     1      -0.632  13.120  19.901  0.00  0.00    +0.000 A 
ATOM      9  C   UNL     1      -1.621  13.329  20.869  0.00  0.00    +0.000 A 
ATOM     10  C   UNL     1      -2.120  14.608  21.122  0.00  0.00    +0.000 A 
ATOM     11  C   UNL     1      -1.629  15.702  20.414  0.00  0.00    +0.000 A 
ATOM     12  C   UNL     1      -0.627  15.526  19.449  0.00  0.00    +0.000 A 
ATOM     13  C   UNL     1      -0.138  14.231  19.201  0.00  0.00    +0.000 A 
BRANCH  12  14
ATOM     14  C   UNL     1      -0.083  16.704  18.679  0.00  0.00    +0.000 C 
ATOM     15  F   UNL     1      -0.786  16.989  17.548  0.00  0.00    +0.000 F 
ATOM     16  F   UNL     1      -0.075  17.849  19.413  0.00  0.00    +0.000 F 
ATOM     17  F   UNL     1       1.206  16.512  18.273  0.00  0.00    +0.000 F 
ENDBRANCH  12  14
ENDBRANCH   5   8
BRANCH   1  18
ATOM     18  C   UNL     1       0.941   8.753  20.794  0.00  0.00    +0.000 C 
ATOM     19  S   UNL     1      -0.459   8.807  21.740  0.00  0.00    +0.000 S 
BRANCH  18  20
ATOM     20  N   UNL     1       1.946   7.779  20.833  0.00  0.00    +0.000 N 
ATOM     21  H   UNL     1       2.744   7.984  21.430  0.00  0.00    +0.000 HD
BRANCH  20  25
ATOM     22  C   UNL     1       2.136   4.005  18.886  0.00  0.00    +0.000 A 
ATOM     23  C   UNL     1       1.424   4.182  20.080  0.00  0.00    +0.000 A 
ATOM     24  C   UNL     1       1.379   5.438  20.703  0.00  0.00    +0.000 A 
ATOM     25  C   UNL     1       2.056   6.537  20.156  0.00  0.00    +0.000 A 
ATOM     26  C   UNL     1       2.727   6.361  18.945  0.00  0.00    +0.000 A 
ATOM     27  C   UNL     1       2.780   5.109  18.326  0.00  0.00    +0.000 A 
BRANCH  22  29
ATOM     28  O   UNL     1       3.201   2.128  17.888  0.00  0.00    +0.000 OA
ATOM     29  C   UNL     1       2.168   2.645  18.282  0.00  0.00    +0.000 C 
BRANCH  29  30
ATOM     30  O   UNL     1       0.976   2.011  18.258  0.00  0.00    +0.000 OA
ATOM     31  H   UNL     1       0.852   1.418  19.033  0.00  0.00    +0.000 HD
ENDBRANCH  29  30
ENDBRANCH  22  29
BRANCH  27  32
ATOM     32  O   UNL     1       3.459   4.984  17.140  0.00  0.00    +0.000 OA
ATOM     33  H   UNL     1       3.123   4.191  16.677  0.00  0.00    +0.000 HD
ENDBRANCH  27  32
ENDBRANCH  20  25
ENDBRANCH  18  20
ENDBRANCH   1  18
TORSDOF 8
ENDMDL
MODEL 4
REMARK VINA RESULT:      -7.0      2.432      3.133
REMARK  Name = 
REMARK  8 active torsions:
REMARK  status: ('A' for Active; 'I' for Inactive)
REMARK    1  A    between atoms: C_2  and  O_3
REMARK    2  A    between atoms: C_2  and  C_4
REMARK    3  A    between atoms: C_7  and  N_8
REMARK    4  A    between atoms: N_8  and  C_9
REMARK    5  A    between atoms: C_9  and  C_11
REMARK    6  A    between atoms: N_15  and  C_16
REMARK    7  A    between atoms: C_20  and  C_21
REMARK    8  A    between atoms: C_29  and  O_30
REMARK                            x       y       z     vdW  Elec       q    Type
REMARK                         _______ _______ _______ _____ _____    ______ ____
ROOT
ATOM      1  C   UNL     1       1.231   9.798  19.917  0.00  0.00    +0.000 C 
ATOM      2  S   UNL     1       0.578   9.619  18.245  0.00  0.00    +0.000 S 
ATOM      3  C   UNL     1      -0.746  10.743  18.551  0.00  0.00    +0.000 C 
ATOM      4  S   UNL     1      -2.072  10.775  17.531  0.00  0.00    +0.000 S 
ATOM      5  N   UNL     1      -0.514  11.452  19.722  0.00  0.00    +0.000 N 
ATOM      6  C   UNL     1       0.553  11.012  20.501  0.00  0.00    +0.000 C 
ATOM      7  O   UNL     1       0.962  11.521  21.543  0.00  0.00    +0.000 OA
ENDROOT
BRANCH   5   8
ATOM      8  C   UNL     1      -1.227  12.634  20.115  0.00  0.00    +0.000 A 
ATOM      9  C   UNL     1      -0.729  13.902  19.794  0.00  0.00    +0.000 A 
ATOM     10  C   UNL     1      -1.356  15.059  20.259  0.00  0.00    +0.000 A 
ATOM     11  C   UNL     1      -2.499  14.965  21.049  0.00  0.00    +0.000 A 
ATOM     12  C   UNL     1      -3.030  13.709  21.376  0.00  0.00    +0.000 A 
ATOM     13  C   UNL     1      -2.385  12.552  20.905  0.00  0.00    +0.000 A 
BRANCH  12  14
ATOM     14  C   UNL     1      -4.271  13.594  22.227  0.00  0.00    +0.000 C 
ATOM     15  F   UNL     1      -5.420  13.481  21.504  0.00  0.00    +0.000 F 
ATOM     16  F   UNL     1      -4.239  12.514  23.052  0.00  0.00    +0.000 F 
ATOM     17  F   UNL     1      -4.451  14.678  23.036  0.00  0.00    +0.000 F 
ENDBRANCH  12  14
ENDBRANCH   5   8
BRANCH   1  18
ATOM     18  C   UNL     1       1.044   8.543  20.781  0.00  0.00    +0.000 C 
ATOM     19  S   UNL     1      -0.333   8.365  21.744  0.00  0.00    +0.000 S 
BRANCH  18  20
ATOM     20  N   UNL     1       2.111   7.644  20.664  0.00  0.00    +0.000 N 
ATOM     21  H   UNL     1       2.999   7.949  21.058  0.00  0.00    +0.000 HD
BRANCH  20  25
ATOM     22  C   UNL     1       2.166   3.754  18.950  0.00  0.00    +0.000 A 
ATOM     23  C   UNL     1       1.477   4.024  20.140  0.00  0.00    +0.000 A 
ATOM     24  C   UNL     1       1.476   5.316  20.685  0.00  0.00    +0.000 A 
ATOM     25  C   UNL     1       2.176   6.360  20.063  0.00  0.00    +0.000 A 
ATOM     26  C   UNL     1       2.825   6.090  18.857  0.00  0.00    +0.000 A 
ATOM     27  C   UNL     1       2.834   4.803  18.316  0.00  0.00    +0.000 A 
BRANCH  22  29
ATOM     28  O   UNL     1       3.148   1.818  17.980  0.00  0.00    +0.000 OA
ATOM     29  C   UNL     1       2.151   2.359  18.430  0.00  0.00    +0.000 C 
BRANCH  29  30
ATOM     30  O   UNL     1       0.964   1.726  18.550  0.00  0.00    +0.000 OA
ATOM     31  H   UNL     1       0.461   1.713  17.705  0.00  0.00    +0.000 HD
ENDBRANCH  29  30
ENDBRANCH  22  29
BRANCH  27  32
ATOM     32  O   UNL     1       3.492   4.585  17.132  0.00  0.00    +0.000 OA
ATOM     33  H   UNL     1       4.112   5.327  16.984  0.00  0.00    +0.000 HD
ENDBRANCH  27  32
ENDBRANCH  20  25
ENDBRANCH  18  20
ENDBRANCH   1  18
TORSDOF 8
ENDMDL
MODEL 5
REMARK VINA RESULT:      -7.0      5.574      7.226
REMARK  Name = 
REMARK  8 active torsions:
REMARK  status: ('A' for Active; 'I' for Inactive)
REMARK    1  A    between atoms: C_2  and  O_3
REMARK    2  A    between atoms: C_2  and  C_4
REMARK    3  A    between atoms: C_7  and  N_8
REMARK    4  A    between atoms: N_8  and  C_9
REMARK    5  A    between atoms: C_9  and  C_11
REMARK    6  A    between atoms: N_15  and  C_16
REMARK    7  A    between atoms: C_20  and  C_21
REMARK    8  A    between atoms: C_29  and  O_30
REMARK                            x       y       z     vdW  Elec       q    Type
REMARK                         _______ _______ _______ _____ _____    ______ ____
ROOT
ATOM      1  C   UNL     1       0.994  12.326  20.085  0.00  0.00    +0.000 C 
ATOM      2  S   UNL     1       1.141  13.982  19.384  0.00  0.00    +0.000 S 
ATOM      3  C   UNL     1      -0.203  14.599  20.346  0.00  0.00    +0.000 C 
ATOM      4  S   UNL     1      -0.950  16.034  19.920  0.00  0.00    +0.000 S 
ATOM      5  N   UNL     1      -0.518  13.705  21.361  0.00  0.00    +0.000 N 
ATOM      6  C   UNL     1       0.108  12.463  21.298  0.00  0.00    +0.000 C 
ATOM      7  O   UNL     1       0.011  11.548  22.113  0.00  0.00    +0.000 OA
ENDROOT
BRANCH   5   8
ATOM      8  C   UNL     1      -1.352  14.011  22.488  0.00  0.00    +0.000 A 
ATOM      9  C   UNL     1      -0.855  14.774  23.551  0.00  0.00    +0.000 A 
ATOM     10  C   UNL     1      -1.619  14.992  24.699  0.00  0.00    +0.000 A 
ATOM     11  C   UNL     1      -2.900  14.455  24.798  0.00  0.00    +0.000 A 
ATOM     12  C   UNL     1      -3.431  13.698  23.744  0.00  0.00    +0.000 A 
ATOM     13  C   UNL     1      -2.649  13.482  22.595  0.00  0.00    +0.000 A 
BRANCH  12  14
ATOM     14  C   UNL     1      -4.820  13.115  23.837  0.00  0.00    +0.000 C 
ATOM     15  F   UNL     1      -5.248  12.537  22.680  0.00  0.00    +0.000 F 
ATOM     16  F   UNL     1      -4.919  12.154  24.794  0.00  0.00    +0.000 F 
ATOM     17  F   UNL     1      -5.760  14.053  24.150  0.00  0.00    +0.000 F 
ENDBRANCH  12  14
ENDBRANCH   5   8
BRANCH   1  18
ATOM     18  C   UNL     1       0.470  11.286  19.083  0.00  0.00    +0.000 C 
ATOM     19  S   UNL     1       0.992   9.681  19.167  0.00  0.00    +0.000 S 
BRANCH  18  20
ATOM     20  N   UNL     1      -0.428  11.832  18.159  0.00  0.00    +0.000 N 
ATOM     21  H   UNL     1      -0.029  12.467  17.469  0.00  0.00    +0.000 HD
BRANCH  20  25
ATOM     22  C   UNL     1      -4.651  11.441  17.875  0.00  0.00    +0.000 A 
ATOM     23  C   UNL     1      -4.035  11.935  19.032  0.00  0.00    +0.000 A 
ATOM     24  C   UNL     1      -2.639  12.053  19.101  0.00  0.00    +0.000 A 
ATOM     25  C   UNL     1      -1.831  11.665  18.022  0.00  0.00    +0.000 A 
ATOM     26  C   UNL     1      -2.456  11.213  16.859  0.00  0.00    +0.000 A 
ATOM     27  C   UNL     1      -3.846  11.088  16.792  0.00  0.00    +0.000 A 
BRANCH  22  29
ATOM     28  O   UNL     1      -6.733  10.574  18.629  0.00  0.00    +0.000 OA
ATOM     29  C   UNL     1      -6.134  11.317  17.868  0.00  0.00    +0.000 C 
BRANCH  29  30
ATOM     30  O   UNL     1      -6.764  12.132  16.993  0.00  0.00    +0.000 OA
ATOM     31  H   UNL     1      -7.439  12.699  17.430  0.00  0.00    +0.000 HD
ENDBRANCH  29  30
ENDBRANCH  22  29
BRANCH  27  32
ATOM     32  O   UNL     1      -4.415  10.632  15.629  0.00  0.00    +0.000 OA
ATOM     33  H   UNL     1      -3.731  10.156  15.118  0.00  0.00    +0.000 HD
ENDBRANCH  27  32
ENDBRANCH  20  25
ENDBRANCH  18  20
ENDBRANCH   1  18
TORSDOF 8
ENDMDL
MODEL 6
REMARK VINA RESULT:      -7.0      0.677      1.168
REMARK  Name = 
REMARK  8 active torsions:
REMARK  status: ('A' for Active; 'I' for Inactive)
REMARK    1  A    between atoms: C_2  and  O_3
REMARK    2  A    between atoms: C_2  and  C_4
REMARK    3  A    between atoms: C_7  and  N_8
REMARK    4  A    between atoms: N_8  and  C_9
REMARK    5  A    between atoms: C_9  and  C_11
REMARK    6  A    between atoms: N_15  and  C_16
REMARK    7  A    between atoms: C_20  and  C_21
REMARK    8  A    between atoms: C_29  and  O_30
REMARK                            x       y       z     vdW  Elec       q    Type
REMARK                         _______ _______ _______ _____ _____    ______ ____
ROOT
ATOM      1  C   UNL     1       1.121  10.086  19.748  0.00  0.00    +0.000 C 
ATOM      2  S   UNL     1       0.142   9.848  18.252  0.00  0.00    +0.000 S 
ATOM      3  C   UNL     1      -0.873  11.248  18.593  0.00  0.00    +0.000 C 
ATOM      4  S   UNL     1      -2.340  11.432  17.810  0.00  0.00    +0.000 S 
ATOM      5  N   UNL     1      -0.299  12.028  19.588  0.00  0.00    +0.000 N 
ATOM      6  C   UNL     1       0.798  11.474  20.242  0.00  0.00    +0.000 C 
ATOM      7  O   UNL     1       1.482  12.007  21.114  0.00  0.00    +0.000 OA
ENDROOT
BRANCH   5   8
ATOM      8  C   UNL     1      -0.699  13.369  19.907  0.00  0.00    +0.000 A 
ATOM      9  C   UNL     1      -1.661  13.606  20.896  0.00  0.00    +0.000 A 
ATOM     10  C   UNL     1      -2.135  14.895  21.144  0.00  0.00    +0.000 A 
ATOM     11  C   UNL     1      -1.646  15.972  20.410  0.00  0.00    +0.000 A 
ATOM     12  C   UNL     1      -0.672  15.770  19.422  0.00  0.00    +0.000 A 
ATOM     13  C   UNL     1      -0.207  14.465  19.179  0.00  0.00    +0.000 A 
BRANCH  12  14
ATOM     14  C   UNL     1      -0.131  16.929  18.623  0.00  0.00    +0.000 C 
ATOM     15  F   UNL     1      -0.921  17.282  17.571  0.00  0.00    +0.000 F 
ATOM     16  F   UNL     1       0.020  18.054  19.372  0.00  0.00    +0.000 F 
ATOM     17  F   UNL     1       1.098  16.668  18.090  0.00  0.00    +0.000 F 
ENDBRANCH  12  14
ENDBRANCH   5   8
BRANCH   1  18
ATOM     18  C   UNL     1       0.877   9.007  20.814  0.00  0.00    +0.000 C 
ATOM     19  S   UNL     1      -0.504   9.063  21.786  0.00  0.00    +0.000 S 
BRANCH  18  20
ATOM     20  N   UNL     1       1.899   8.051  20.857  0.00  0.00    +0.000 N 
ATOM     21  H   UNL     1       2.635   8.214  21.542  0.00  0.00    +0.000 HD
BRANCH  20  25
ATOM     22  C   UNL     1       2.615   4.622  18.449  0.00  0.00    +0.000 A 
ATOM     23  C   UNL     1       2.906   5.914  17.993  0.00  0.00    +0.000 A 
ATOM     24  C   UNL     1       2.659   7.030  18.807  0.00  0.00    +0.000 A 
ATOM     25  C   UNL     1       2.101   6.878  20.085  0.00  0.00    +0.000 A 
ATOM     26  C   UNL     1       1.853   5.584  20.546  0.00  0.00    +0.000 A 
ATOM     27  C   UNL     1       2.092   4.472  19.734  0.00  0.00    +0.000 A 
BRANCH  22  29
ATOM     28  O   UNL     1       2.030   2.639  17.275  0.00  0.00    +0.000 OA
ATOM     29  C   UNL     1       2.877   3.478  17.533  0.00  0.00    +0.000 C 
BRANCH  29  30
ATOM     30  O   UNL     1       4.104   3.478  16.970  0.00  0.00    +0.000 OA
ATOM     31  H   UNL     1       4.247   2.700  16.384  0.00  0.00    +0.000 HD
ENDBRANCH  29  30
ENDBRANCH  22  29
BRANCH  27  32
ATOM     32  O   UNL     1       1.826   3.220  20.229  0.00  0.00    +0.000 OA
ATOM     33  H   UNL     1       1.381   2.702  19.530  0.00  0.00    +0.000 HD
ENDBRANCH  27  32
ENDBRANCH  20  25
ENDBRANCH  18  20
ENDBRANCH   1  18
TORSDOF 8
ENDMDL
MODEL 7
REMARK VINA RESULT:      -6.9      2.733      3.475
REMARK  Name = 
REMARK  8 active torsions:
REMARK  status: ('A' for Active; 'I' for Inactive)
REMARK    1  A    between atoms: C_2  and  O_3
REMARK    2  A    between atoms: C_2  and  C_4
REMARK    3  A    between atoms: C_7  and  N_8
REMARK    4  A    between atoms: N_8  and  C_9
REMARK    5  A    between atoms: C_9  and  C_11
REMARK    6  A    between atoms: N_15  and  C_16
REMARK    7  A    between atoms: C_20  and  C_21
REMARK    8  A    between atoms: C_29  and  O_30
REMARK                            x       y       z     vdW  Elec       q    Type
REMARK                         _______ _______ _______ _____ _____    ______ ____
ROOT
ATOM      1  C   UNL     1       1.089   9.985  20.077  0.00  0.00    +0.000 C 
ATOM      2  S   UNL     1       0.436   9.894  18.397  0.00  0.00    +0.000 S 
ATOM      3  C   UNL     1      -0.941  10.924  18.787  0.00  0.00    +0.000 C 
ATOM      4  S   UNL     1      -2.273  10.962  17.775  0.00  0.00    +0.000 S 
ATOM      5  N   UNL     1      -0.738  11.558  20.006  0.00  0.00    +0.000 N 
ATOM      6  C   UNL     1       0.354  11.118  20.749  0.00  0.00    +0.000 C 
ATOM      7  O   UNL     1       0.743  11.570  21.824  0.00  0.00    +0.000 OA
ENDROOT
BRANCH   5   8
ATOM      8  C   UNL     1      -1.508  12.670  20.485  0.00  0.00    +0.000 A 
ATOM      9  C   UNL     1      -1.230  13.968  20.042  0.00  0.00    +0.000 A 
ATOM     10  C   UNL     1      -1.900  15.070  20.577  0.00  0.00    +0.000 A 
ATOM     11  C   UNL     1      -2.868  14.888  21.561  0.00  0.00    +0.000 A 
ATOM     12  C   UNL     1      -3.179  13.599  22.016  0.00  0.00    +0.000 A 
ATOM     13  C   UNL     1      -2.493  12.499  21.472  0.00  0.00    +0.000 A 
BRANCH  12  14
ATOM     14  C   UNL     1      -4.230  13.388  23.079  0.00  0.00    +0.000 C 
ATOM     15  F   UNL     1      -3.885  12.454  24.009  0.00  0.00    +0.000 F 
ATOM     16  F   UNL     1      -4.504  14.525  23.773  0.00  0.00    +0.000 F 
ATOM     17  F   UNL     1      -5.420  12.970  22.560  0.00  0.00    +0.000 F 
ENDBRANCH  12  14
ENDBRANCH   5   8
BRANCH   1  18
ATOM     18  C   UNL     1       0.971   8.663  20.848  0.00  0.00    +0.000 C 
ATOM     19  S   UNL     1      -0.437   8.298  21.708  0.00  0.00    +0.000 S 
BRANCH  18  20
ATOM     20  N   UNL     1       2.123   7.873  20.745  0.00  0.00    +0.000 N 
ATOM     21  H   UNL     1       2.931   8.190  21.278  0.00  0.00    +0.000 HD
BRANCH  20  25
ATOM     22  C   UNL     1       2.728   4.269  18.576  0.00  0.00    +0.000 A 
ATOM     23  C   UNL     1       1.952   4.304  19.742  0.00  0.00    +0.000 A 
ATOM     24  C   UNL     1       1.769   5.506  20.440  0.00  0.00    +0.000 A 
ATOM     25  C   UNL     1       2.370   6.693  19.998  0.00  0.00    +0.000 A 
ATOM     26  C   UNL     1       3.107   6.656  18.812  0.00  0.00    +0.000 A 
ATOM     27  C   UNL     1       3.296   5.458  18.119  0.00  0.00    +0.000 A 
BRANCH  22  29
ATOM     28  O   UNL     1       1.967   2.325  17.436  0.00  0.00    +0.000 OA
ATOM     29  C   UNL     1       2.905   2.960  17.889  0.00  0.00    +0.000 C 
BRANCH  29  30
ATOM     30  O   UNL     1       4.189   2.562  17.758  0.00  0.00    +0.000 OA
ATOM     31  H   UNL     1       4.277   1.583  17.738  0.00  0.00    +0.000 HD
ENDBRANCH  29  30
ENDBRANCH  22  29
BRANCH  27  32
ATOM     32  O   UNL     1       4.035   5.471  16.963  0.00  0.00    +0.000 OA
ATOM     33  H   UNL     1       4.222   4.546  16.708  0.00  0.00    +0.000 HD
ENDBRANCH  27  32
ENDBRANCH  20  25
ENDBRANCH  18  20
ENDBRANCH   1  18
TORSDOF 8
ENDMDL
MODEL 8
REMARK VINA RESULT:      -6.8      3.766      4.627
REMARK  Name = 
REMARK  8 active torsions:
REMARK  status: ('A' for Active; 'I' for Inactive)
REMARK    1  A    between atoms: C_2  and  O_3
REMARK    2  A    between atoms: C_2  and  C_4
REMARK    3  A    between atoms: C_7  and  N_8
REMARK    4  A    between atoms: N_8  and  C_9
REMARK    5  A    between atoms: C_9  and  C_11
REMARK    6  A    between atoms: N_15  and  C_16
REMARK    7  A    between atoms: C_20  and  C_21
REMARK    8  A    between atoms: C_29  and  O_30
REMARK                            x       y       z     vdW  Elec       q    Type
REMARK                         _______ _______ _______ _____ _____    ______ ____
ROOT
ATOM      1  C   UNL     1       1.082  11.662  20.476  0.00  0.00    +0.000 C 
ATOM      2  S   UNL     1       1.379  13.435  20.626  0.00  0.00    +0.000 S 
ATOM      3  C   UNL     1      -0.344  13.810  20.591  0.00  0.00    +0.000 C 
ATOM      4  S   UNL     1      -0.856  15.370  20.267  0.00  0.00    +0.000 S 
ATOM      5  N   UNL     1      -1.092  12.657  20.787  0.00  0.00    +0.000 N 
ATOM      6  C   UNL     1      -0.385  11.459  20.761  0.00  0.00    +0.000 C 
ATOM      7  O   UNL     1      -0.837  10.332  20.959  0.00  0.00    +0.000 OA
ENDROOT
BRANCH   5   8
ATOM      8  C   UNL     1      -2.492  12.636  21.101  0.00  0.00    +0.000 A 
ATOM      9  C   UNL     1      -3.447  12.578  20.079  0.00  0.00    +0.000 A 
ATOM     10  C   UNL     1      -4.811  12.662  20.363  0.00  0.00    +0.000 A 
ATOM     11  C   UNL     1      -5.243  12.797  21.680  0.00  0.00    +0.000 A 
ATOM     12  C   UNL     1      -4.312  12.845  22.727  0.00  0.00    +0.000 A 
ATOM     13  C   UNL     1      -2.941  12.764  22.426  0.00  0.00    +0.000 A 
BRANCH  12  14
ATOM     14  C   UNL     1      -4.767  12.987  24.159  0.00  0.00    +0.000 C 
ATOM     15  F   UNL     1      -6.088  13.297  24.283  0.00  0.00    +0.000 F 
ATOM     16  F   UNL     1      -4.580  11.850  24.881  0.00  0.00    +0.000 F 
ATOM     17  F   UNL     1      -4.094  13.968  24.825  0.00  0.00    +0.000 F 
ENDBRANCH  12  14
ENDBRANCH   5   8
BRANCH   1  18
ATOM     18  C   UNL     1       1.508  11.087  19.117  0.00  0.00    +0.000 C 
ATOM     19  S   UNL     1       2.387  12.032  18.027  0.00  0.00    +0.000 S 
BRANCH  18  20
ATOM     20  N   UNL     1       1.080   9.766  18.933  0.00  0.00    +0.000 N 
ATOM     21  H   UNL     1       0.078   9.634  18.810  0.00  0.00    +0.000 HD
BRANCH  20  25
ATOM     22  C   UNL     1       3.385   6.200  18.733  0.00  0.00    +0.000 A 
ATOM     23  C   UNL     1       3.418   7.156  17.709  0.00  0.00    +0.000 A 
ATOM     24  C   UNL     1       2.647   8.324  17.798  0.00  0.00    +0.000 A 
ATOM     25  C   UNL     1       1.815   8.553  18.904  0.00  0.00    +0.000 A 
ATOM     26  C   UNL     1       1.820   7.615  19.938  0.00  0.00    +0.000 A 
ATOM     27  C   UNL     1       2.582   6.447  19.847  0.00  0.00    +0.000 A 
BRANCH  22  29
ATOM     28  O   UNL     1       3.783   3.859  18.847  0.00  0.00    +0.000 OA
ATOM     29  C   UNL     1       4.207   4.970  18.573  0.00  0.00    +0.000 C 
BRANCH  29  30
ATOM     30  O   UNL     1       5.434   5.177  18.048  0.00  0.00    +0.000 OA
ATOM     31  H   UNL     1       5.622   4.578  17.290  0.00  0.00    +0.000 HD
ENDBRANCH  29  30
ENDBRANCH  22  29
BRANCH  27  32
ATOM     32  O   UNL     1       2.549   5.551  20.886  0.00  0.00    +0.000 OA
ATOM     33  H   UNL     1       2.963   4.718  20.586  0.00  0.00    +0.000 HD
ENDBRANCH  27  32
ENDBRANCH  20  25
ENDBRANCH  18  20
ENDBRANCH   1  18
TORSDOF 8
ENDMDL
MODEL 9
REMARK VINA RESULT:      -6.8      3.304      4.059
REMARK  Name = 
REMARK  8 active torsions:
REMARK  status: ('A' for Active; 'I' for Inactive)
REMARK    1  A    between atoms: C_2  and  O_3
REMARK    2  A    between atoms: C_2  and  C_4
REMARK    3  A    between atoms: C_7  and  N_8
REMARK    4  A    between atoms: N_8  and  C_9
REMARK    5  A    between atoms: C_9  and  C_11
REMARK    6  A    between atoms: N_15  and  C_16
REMARK    7  A    between atoms: C_20  and  C_21
REMARK    8  A    between atoms: C_29  and  O_30
REMARK                            x       y       z     vdW  Elec       q    Type
REMARK                         _______ _______ _______ _____ _____    ______ ____
ROOT
ATOM      1  C   UNL     1       1.185  10.719  19.478  0.00  0.00    +0.000 C 
ATOM      2  S   UNL     1       1.728  12.366  18.981  0.00  0.00    +0.000 S 
ATOM      3  C   UNL     1       0.276  13.131  19.626  0.00  0.00    +0.000 C 
ATOM      4  S   UNL     1      -0.136  14.682  19.151  0.00  0.00    +0.000 S 
ATOM      5  N   UNL     1      -0.408  12.247  20.449  0.00  0.00    +0.000 N 
ATOM      6  C   UNL     1       0.041  10.930  20.439  0.00  0.00    +0.000 C 
ATOM      7  O   UNL     1      -0.386  10.001  21.123  0.00  0.00    +0.000 OA
ENDROOT
BRANCH   5   8
ATOM      8  C   UNL     1      -1.458  12.621  21.354  0.00  0.00    +0.000 A 
ATOM      9  C   UNL     1      -1.164  12.943  22.685  0.00  0.00    +0.000 A 
ATOM     10  C   UNL     1      -2.184  13.207  23.602  0.00  0.00    +0.000 A 
ATOM     11  C   UNL     1      -3.515  13.160  23.199  0.00  0.00    +0.000 A 
ATOM     12  C   UNL     1      -3.841  12.854  21.870  0.00  0.00    +0.000 A 
ATOM     13  C   UNL     1      -2.804  12.585  20.958  0.00  0.00    +0.000 A 
BRANCH  12  14
ATOM     14  C   UNL     1      -5.280  12.805  21.420  0.00  0.00    +0.000 C 
ATOM     15  F   UNL     1      -6.144  12.414  22.397  0.00  0.00    +0.000 F 
ATOM     16  F   UNL     1      -5.730  14.010  20.980  0.00  0.00    +0.000 F 
ATOM     17  F   UNL     1      -5.474  11.934  20.387  0.00  0.00    +0.000 F 
ENDBRANCH  12  14
ENDBRANCH   5   8
BRANCH   1  18
ATOM     18  C   UNL     1       0.804   9.820  18.293  0.00  0.00    +0.000 C 
ATOM     19  S   UNL     1      -0.794   9.756  17.747  0.00  0.00    +0.000 S 
BRANCH  18  20
ATOM     20  N   UNL     1       1.898   9.112  17.780  0.00  0.00    +0.000 N 
ATOM     21  H   UNL     1       2.336   9.505  16.950  0.00  0.00    +0.000 HD
BRANCH  20  25
ATOM     22  C   UNL     1       3.849   5.535  18.993  0.00  0.00    +0.000 A 
ATOM     23  C   UNL     1       4.201   6.201  17.812  0.00  0.00    +0.000 A 
ATOM     24  C   UNL     1       3.541   7.379  17.433  0.00  0.00    +0.000 A 
ATOM     25  C   UNL     1       2.505   7.906  18.218  0.00  0.00    +0.000 A 
ATOM     26  C   UNL     1       2.189   7.259  19.413  0.00  0.00    +0.000 A 
ATOM     27  C   UNL     1       2.841   6.081  19.788  0.00  0.00    +0.000 A 
BRANCH  22  29
ATOM     28  O   UNL     1       3.995   3.291  19.764  0.00  0.00    +0.000 OA
ATOM     29  C   UNL     1       4.569   4.278  19.332  0.00  0.00    +0.000 C 
BRANCH  29  30
ATOM     30  O   UNL     1       5.894   4.298  19.070  0.00  0.00    +0.000 OA
ATOM     31  H   UNL     1       6.119   3.817  18.242  0.00  0.00    +0.000 HD
ENDBRANCH  29  30
ENDBRANCH  22  29
BRANCH  27  32
ATOM     32  O   UNL     1       2.491   5.477  20.970  0.00  0.00    +0.000 OA
ATOM     33  H   UNL     1       3.001   4.647  21.053  0.00  0.00    +0.000 HD
ENDBRANCH  27  32
ENDBRANCH  20  25
ENDBRANCH  18  20
ENDBRANCH   1  18
TORSDOF 8
ENDMDL
