MODEL 1
REMARK VINA RESULT:      -7.0      0.000      0.000
REMARK  Name = 
REMARK  4 active torsions:
REMARK  status: ('A' for Active; 'I' for Inactive)
REMARK    1  A    between atoms: C_2  and  O_3
REMARK    2  A    between atoms: C_2  and  C_4
REMARK    3  A    between atoms: N_8  and  S_9
REMARK    4  A    between atoms: S_9  and  C_12
REMARK                            x       y       z     vdW  Elec       q    Type
REMARK                         _______ _______ _______ _____ _____    ______ ____
ROOT
ATOM      1  S   UNL     1       4.662   3.990  19.218  0.00  0.00    +0.000 S 
ATOM      2  O   UNL     1       4.868   5.198  19.987  0.00  0.00    +0.000 OA
ATOM      3  O   UNL     1       5.068   2.706  19.751  0.00  0.00    +0.000 OA
ENDROOT
BRANCH   1   4
ATOM      4  C   UNL     1       5.441   4.223  17.635  0.00  0.00    +0.000 A 
ATOM      5  C   UNL     1       4.676   4.116  16.466  0.00  0.00    +0.000 A 
ATOM      6  C   UNL     1       5.273   4.333  15.222  0.00  0.00    +0.000 A 
ATOM      7  C   UNL     1       6.622   4.682  15.152  0.00  0.00    +0.000 A 
ATOM      8 CL   UNL     1       7.351   4.963  13.619  0.00  0.00    +0.000 Cl
ATOM      9  C   UNL     1       7.379   4.819  16.316  0.00  0.00    +0.000 A 
ATOM     10  C   UNL     1       6.788   4.594  17.565  0.00  0.00    +0.000 A 
ENDBRANCH   1   4
BRANCH   1  15
ATOM     11  C   UNL     1       2.063   4.985  19.038  0.00  0.00    +0.000 C 
ATOM     12  C   UNL     1       1.317   4.611  20.322  0.00  0.00    +0.000 C 
ATOM     13  C   UNL     1       1.131   3.111  20.192  0.00  0.00    +0.000 C 
ATOM     14  C   UNL     1       2.328   2.629  19.383  0.00  0.00    +0.000 C 
ATOM     15  N   UNL     1       3.016   3.854  18.888  0.00  0.00    +0.000 NA
BRANCH  11  17
ATOM     16  O   UNL     1       2.739   7.054  18.002  0.00  0.00    +0.000 OA
ATOM     17  C   UNL     1       2.417   6.454  19.021  0.00  0.00    +0.000 C 
BRANCH  17  18
ATOM     18  O   UNL     1       2.481   7.064  20.220  0.00  0.00    +0.000 OA
ATOM     19  H   UNL     1       1.720   6.878  20.823  0.00  0.00    +0.000 HD
ENDBRANCH  17  18
ENDBRANCH  11  17
ENDBRANCH   1  15
TORSDOF 4
ENDMDL
MODEL 2
REMARK VINA RESULT:      -6.9      0.094      1.147
REMARK  Name = 
REMARK  4 active torsions:
REMARK  status: ('A' for Active; 'I' for Inactive)
REMARK    1  A    between atoms: C_2  and  O_3
REMARK    2  A    between atoms: C_2  and  C_4
REMARK    3  A    between atoms: N_8  and  S_9
REMARK    4  A    between atoms: S_9  and  C_12
REMARK                            x       y       z     vdW  Elec       q    Type
REMARK                         _______ _______ _______ _____ _____    ______ ____
ROOT
ATOM      1  S   UNL     1       4.695   4.074  19.178  0.00  0.00    +0.000 S 
ATOM      2  O   UNL     1       4.897   5.276  19.955  0.00  0.00    +0.000 OA
ATOM      3  O   UNL     1       5.147   2.793  19.682  0.00  0.00    +0.000 OA
ENDROOT
BRANCH   1   4
ATOM      4  C   UNL     1       5.419   4.343  17.574  0.00  0.00    +0.000 A 
ATOM      5  C   UNL     1       6.783   4.643  17.473  0.00  0.00    +0.000 A 
ATOM      6  C   UNL     1       7.365   4.820  16.215  0.00  0.00    +0.000 A 
ATOM      7  C   UNL     1       6.589   4.671  15.066  0.00  0.00    +0.000 A 
ATOM      8 CL   UNL     1       7.311   4.876  13.518  0.00  0.00    +0.000 Cl
ATOM      9  C   UNL     1       5.237   4.343  15.162  0.00  0.00    +0.000 A 
ATOM     10  C   UNL     1       4.646   4.173  16.420  0.00  0.00    +0.000 A 
ENDBRANCH   1   4
BRANCH   1  15
ATOM     11  C   UNL     1       2.071   5.012  19.082  0.00  0.00    +0.000 C 
ATOM     12  C   UNL     1       1.372   4.615  20.385  0.00  0.00    +0.000 C 
ATOM     13  C   UNL     1       1.215   3.112  20.252  0.00  0.00    +0.000 C 
ATOM     14  C   UNL     1       2.397   2.660  19.405  0.00  0.00    +0.000 C 
ATOM     15  N   UNL     1       3.043   3.902  18.896  0.00  0.00    +0.000 NA
BRANCH  11  17
ATOM     16  O   UNL     1       2.701   7.093  18.042  0.00  0.00    +0.000 OA
ATOM     17  C   UNL     1       2.392   6.489  19.062  0.00  0.00    +0.000 C 
BRANCH  17  18
ATOM     18  O   UNL     1       2.442   7.102  20.260  0.00  0.00    +0.000 OA
ATOM     19  H   UNL     1       3.053   6.685  20.916  0.00  0.00    +0.000 HD
ENDBRANCH  17  18
ENDBRANCH  11  17
ENDBRANCH   1  15
TORSDOF 4
ENDMDL
MODEL 3
REMARK VINA RESULT:      -6.9      1.817      2.830
REMARK  Name = 
REMARK  4 active torsions:
REMARK  status: ('A' for Active; 'I' for Inactive)
REMARK    1  A    between atoms: C_2  and  O_3
REMARK    2  A    between atoms: C_2  and  C_4
REMARK    3  A    between atoms: N_8  and  S_9
REMARK    4  A    between atoms: S_9  and  C_12
REMARK                            x       y       z     vdW  Elec       q    Type
REMARK                         _______ _______ _______ _____ _____    ______ ____
ROOT
ATOM      1  S   UNL     1       4.092   3.324  18.966  0.00  0.00    +0.000 S 
ATOM      2  O   UNL     1       4.945   2.481  19.773  0.00  0.00    +0.000 OA
ATOM      3  O   UNL     1       2.835   2.817  18.454  0.00  0.00    +0.000 OA
ENDROOT
BRANCH   1   4
ATOM      4  C   UNL     1       5.065   3.922  17.600  0.00  0.00    +0.000 A 
ATOM      5  C   UNL     1       6.399   4.293  17.813  0.00  0.00    +0.000 A 
ATOM      6  C   UNL     1       7.178   4.728  16.738  0.00  0.00    +0.000 A 
ATOM      7  C   UNL     1       6.632   4.766  15.455  0.00  0.00    +0.000 A 
ATOM      8 CL   UNL     1       7.599   5.289  14.132  0.00  0.00    +0.000 Cl
ATOM      9  C   UNL     1       5.313   4.368  15.236  0.00  0.00    +0.000 A 
ATOM     10  C   UNL     1       4.524   3.940  16.310  0.00  0.00    +0.000 A 
ENDBRANCH   1   4
BRANCH   1  15
ATOM     11  C   UNL     1       2.544   4.749  20.797  0.00  0.00    +0.000 C 
ATOM     12  C   UNL     1       1.544   5.605  20.015  0.00  0.00    +0.000 C 
ATOM     13  C   UNL     1       2.418   6.673  19.384  0.00  0.00    +0.000 C 
ATOM     14  C   UNL     1       3.769   6.005  19.164  0.00  0.00    +0.000 C 
ATOM     15  N   UNL     1       3.704   4.693  19.867  0.00  0.00    +0.000 NA
BRANCH  11  17
ATOM     16  O   UNL     1       2.348   2.938  22.376  0.00  0.00    +0.000 OA
ATOM     17  C   UNL     1       1.862   3.564  21.440  0.00  0.00    +0.000 C 
BRANCH  17  18
ATOM     18  O   UNL     1       0.728   3.140  20.852  0.00  0.00    +0.000 OA
ATOM     19  H   UNL     1       0.318   3.783  20.223  0.00  0.00    +0.000 HD
ENDBRANCH  17  18
ENDBRANCH  11  17
ENDBRANCH   1  15
TORSDOF 4
ENDMDL
MODEL 4
REMARK VINA RESULT:      -6.9      3.921      5.279
REMARK  Name = 
REMARK  4 active torsions:
REMARK  status: ('A' for Active; 'I' for Inactive)
REMARK    1  A    between atoms: C_2  and  O_3
REMARK    2  A    between atoms: C_2  and  C_4
REMARK    3  A    between atoms: N_8  and  S_9
REMARK    4  A    between atoms: S_9  and  C_12
REMARK                            x       y       z     vdW  Elec       q    Type
REMARK                         _______ _______ _______ _____ _____    ______ ____
ROOT
ATOM      1  S   UNL     1       3.459   5.379  19.053  0.00  0.00    +0.000 S 
ATOM      2  O   UNL     1       4.769   5.564  19.635  0.00  0.00    +0.000 OA
ATOM      3  O   UNL     1       3.323   4.881  17.700  0.00  0.00    +0.000 OA
ENDROOT
BRANCH   1   4
ATOM      4  C   UNL     1       2.592   6.929  19.180  0.00  0.00    +0.000 A 
ATOM      5  C   UNL     1       2.418   7.718  18.036  0.00  0.00    +0.000 A 
ATOM      6  C   UNL     1       1.707   8.918  18.122  0.00  0.00    +0.000 A 
ATOM      7  C   UNL     1       1.152   9.310  19.340  0.00  0.00    +0.000 A 
ATOM      8 CL   UNL     1       0.266  10.781  19.439  0.00  0.00    +0.000 Cl
ATOM      9  C   UNL     1       1.299   8.511  20.474  0.00  0.00    +0.000 A 
ATOM     10  C   UNL     1       2.017   7.312  20.397  0.00  0.00    +0.000 A 
ENDBRANCH   1   4
BRANCH   1  15
ATOM     11  C   UNL     1       3.042   2.913  20.287  0.00  0.00    +0.000 C 
ATOM     12  C   UNL     1       2.077   2.100  19.419  0.00  0.00    +0.000 C 
ATOM     13  C   UNL     1       0.753   2.817  19.607  0.00  0.00    +0.000 C 
ATOM     14  C   UNL     1       1.119   4.275  19.852  0.00  0.00    +0.000 C 
ATOM     15  N   UNL     1       2.598   4.309  20.028  0.00  0.00    +0.000 NA
BRANCH  11  17
ATOM     16  O   UNL     1       5.030   1.794  21.068  0.00  0.00    +0.000 OA
ATOM     17  C   UNL     1       4.456   2.392  20.164  0.00  0.00    +0.000 C 
BRANCH  17  18
ATOM     18  O   UNL     1       5.117   2.726  19.039  0.00  0.00    +0.000 OA
ATOM     19  H   UNL     1       4.666   2.465  18.199  0.00  0.00    +0.000 HD
ENDBRANCH  17  18
ENDBRANCH  11  17
ENDBRANCH   1  15
TORSDOF 4
ENDMDL
MODEL 5
REMARK VINA RESULT:      -6.7      1.820      2.565
REMARK  Name = 
REMARK  4 active torsions:
REMARK  status: ('A' for Active; 'I' for Inactive)
REMARK    1  A    between atoms: C_2  and  O_3
REMARK    2  A    between atoms: C_2  and  C_4
REMARK    3  A    between atoms: N_8  and  S_9
REMARK    4  A    between atoms: S_9  and  C_12
REMARK                            x       y       z     vdW  Elec       q    Type
REMARK                         _______ _______ _______ _____ _____    ______ ____
ROOT
ATOM      1  S   UNL     1       4.182   3.285  19.026  0.00  0.00    +0.000 S 
ATOM      2  O   UNL     1       5.058   2.526  19.889  0.00  0.00    +0.000 OA
ATOM      3  O   UNL     1       2.950   2.702  18.538  0.00  0.00    +0.000 OA
ENDROOT
BRANCH   1   4
ATOM      4  C   UNL     1       5.145   3.834  17.633  0.00  0.00    +0.000 A 
ATOM      5  C   UNL     1       4.560   3.873  16.361  0.00  0.00    +0.000 A 
ATOM      6  C   UNL     1       5.300   4.336  15.270  0.00  0.00    +0.000 A 
ATOM      7  C   UNL     1       6.608   4.782  15.458  0.00  0.00    +0.000 A 
ATOM      8 CL   UNL     1       7.511   5.365  14.114  0.00  0.00    +0.000 Cl
ATOM      9  C   UNL     1       7.183   4.772  16.728  0.00  0.00    +0.000 A 
ATOM     10  C   UNL     1       6.450   4.301  17.824  0.00  0.00    +0.000 A 
ENDBRANCH   1   4
BRANCH   1  15
ATOM     11  C   UNL     1       2.548   4.772  20.728  0.00  0.00    +0.000 C 
ATOM     12  C   UNL     1       1.554   5.560  19.870  0.00  0.00    +0.000 C 
ATOM     13  C   UNL     1       2.424   6.612  19.208  0.00  0.00    +0.000 C 
ATOM     14  C   UNL     1       3.795   5.965  19.066  0.00  0.00    +0.000 C 
ATOM     15  N   UNL     1       3.737   4.692  19.838  0.00  0.00    +0.000 NA
BRANCH  11  17
ATOM     16  O   UNL     1       2.347   3.038  22.391  0.00  0.00    +0.000 OA
ATOM     17  C   UNL     1       1.871   3.608  21.415  0.00  0.00    +0.000 C 
BRANCH  17  18
ATOM     18  O   UNL     1       0.758   3.134  20.824  0.00  0.00    +0.000 OA
ATOM     19  H   UNL     1      -0.072   3.244  21.349  0.00  0.00    +0.000 HD
ENDBRANCH  17  18
ENDBRANCH  11  17
ENDBRANCH   1  15
TORSDOF 4
ENDMDL
MODEL 6
REMARK VINA RESULT:      -6.7      3.881      5.303
REMARK  Name = 
REMARK  4 active torsions:
REMARK  status: ('A' for Active; 'I' for Inactive)
REMARK    1  A    between atoms: C_2  and  O_3
REMARK    2  A    between atoms: C_2  and  C_4
REMARK    3  A    between atoms: N_8  and  S_9
REMARK    4  A    between atoms: S_9  and  C_12
REMARK                            x       y       z     vdW  Elec       q    Type
REMARK                         _______ _______ _______ _____ _____    ______ ____
ROOT
ATOM      1  S   UNL     1       3.420   5.336  19.029  0.00  0.00    +0.000 S 
ATOM      2  O   UNL     1       4.756   5.575  19.525  0.00  0.00    +0.000 OA
ATOM      3  O   UNL     1       3.220   4.770  17.711  0.00  0.00    +0.000 OA
ENDROOT
BRANCH   1   4
ATOM      4  C   UNL     1       2.526   6.871  19.133  0.00  0.00    +0.000 A 
ATOM      5  C   UNL     1       2.033   7.301  20.371  0.00  0.00    +0.000 A 
ATOM      6  C   UNL     1       1.362   8.523  20.466  0.00  0.00    +0.000 A 
ATOM      7  C   UNL     1       1.210   9.320  19.331  0.00  0.00    +0.000 A 
ATOM      8 CL   UNL     1       0.396  10.831  19.455  0.00  0.00    +0.000 Cl
ATOM      9  C   UNL     1       1.726   8.908  18.103  0.00  0.00    +0.000 A 
ATOM     10  C   UNL     1       2.391   7.681  18.000  0.00  0.00    +0.000 A 
ENDBRANCH   1   4
BRANCH   1  15
ATOM     11  C   UNL     1       2.963   2.847  20.201  0.00  0.00    +0.000 C 
ATOM     12  C   UNL     1       1.765   2.200  19.500  0.00  0.00    +0.000 C 
ATOM     13  C   UNL     1       0.591   3.035  19.976  0.00  0.00    +0.000 C 
ATOM     14  C   UNL     1       1.162   4.427  20.214  0.00  0.00    +0.000 C 
ATOM     15  N   UNL     1       2.641   4.295  20.100  0.00  0.00    +0.000 NA
BRANCH  11  17
ATOM     16  O   UNL     1       5.156   1.917  20.570  0.00  0.00    +0.000 OA
ATOM     17  C   UNL     1       4.259   2.192  19.782  0.00  0.00    +0.000 C 
BRANCH  17  18
ATOM     18  O   UNL     1       4.441   2.029  18.457  0.00  0.00    +0.000 OA
ATOM     19  H   UNL     1       4.127   1.164  18.097  0.00  0.00    +0.000 HD
ENDBRANCH  17  18
ENDBRANCH  11  17
ENDBRANCH   1  15
TORSDOF 4
ENDMDL
MODEL 7
REMARK VINA RESULT:      -6.6      1.293      2.193
REMARK  Name = 
REMARK  4 active torsions:
REMARK  status: ('A' for Active; 'I' for Inactive)
REMARK    1  A    between atoms: C_2  and  O_3
REMARK    2  A    between atoms: C_2  and  C_4
REMARK    3  A    between atoms: N_8  and  S_9
REMARK    4  A    between atoms: S_9  and  C_12
REMARK                            x       y       z     vdW  Elec       q    Type
REMARK                         _______ _______ _______ _____ _____    ______ ____
ROOT
ATOM      1  S   UNL     1       4.777   4.299  19.030  0.00  0.00    +0.000 S 
ATOM      2  O   UNL     1       4.841   5.539  19.770  0.00  0.00    +0.000 OA
ATOM      3  O   UNL     1       5.310   3.079  19.600  0.00  0.00    +0.000 OA
ENDROOT
BRANCH   1   4
ATOM      4  C   UNL     1       5.550   4.576  17.450  0.00  0.00    +0.000 A 
ATOM      5  C   UNL     1       6.940   4.455  17.331  0.00  0.00    +0.000 A 
ATOM      6  C   UNL     1       7.549   4.635  16.086  0.00  0.00    +0.000 A 
ATOM      7  C   UNL     1       6.766   4.909  14.965  0.00  0.00    +0.000 A 
ATOM      8 CL   UNL     1       7.518   5.117  13.431  0.00  0.00    +0.000 Cl
ATOM      9  C   UNL     1       5.379   5.001  15.075  0.00  0.00    +0.000 A 
ATOM     10  C   UNL     1       4.764   4.830  16.321  0.00  0.00    +0.000 A 
ENDBRANCH   1   4
BRANCH   1  15
ATOM     11  C   UNL     1       2.137   3.744  19.735  0.00  0.00    +0.000 C 
ATOM     12  C   UNL     1       1.926   2.230  19.650  0.00  0.00    +0.000 C 
ATOM     13  C   UNL     1       1.958   1.958  18.158  0.00  0.00    +0.000 C 
ATOM     14  C   UNL     1       2.885   3.018  17.578  0.00  0.00    +0.000 C 
ATOM     15  N   UNL     1       3.161   3.979  18.683  0.00  0.00    +0.000 NA
BRANCH  11  17
ATOM     16  O   UNL     1       2.122   3.439  22.127  0.00  0.00    +0.000 OA
ATOM     17  C   UNL     1       2.218   4.204  21.173  0.00  0.00    +0.000 C 
BRANCH  17  18
ATOM     18  O   UNL     1       2.282   5.535  21.369  0.00  0.00    +0.000 OA
ATOM     19  H   UNL     1       2.105   5.828  22.296  0.00  0.00    +0.000 HD
ENDBRANCH  17  18
ENDBRANCH  11  17
ENDBRANCH   1  15
TORSDOF 4
ENDMDL
MODEL 8
REMARK VINA RESULT:      -6.6      1.269      1.857
REMARK  Name = 
REMARK  4 active torsions:
REMARK  status: ('A' for Active; 'I' for Inactive)
REMARK    1  A    between atoms: C_2  and  O_3
REMARK    2  A    between atoms: C_2  and  C_4
REMARK    3  A    between atoms: N_8  and  S_9
REMARK    4  A    between atoms: S_9  and  C_12
REMARK                            x       y       z     vdW  Elec       q    Type
REMARK                         _______ _______ _______ _____ _____    ______ ____
ROOT
ATOM      1  S   UNL     1       4.772   4.196  19.019  0.00  0.00    +0.000 S 
ATOM      2  O   UNL     1       4.894   5.446  19.735  0.00  0.00    +0.000 OA
ATOM      3  O   UNL     1       5.250   2.964  19.612  0.00  0.00    +0.000 OA
ENDROOT
BRANCH   1   4
ATOM      4  C   UNL     1       5.554   4.407  17.434  0.00  0.00    +0.000 A 
ATOM      5  C   UNL     1       4.764   4.526  16.284  0.00  0.00    +0.000 A 
ATOM      6  C   UNL     1       5.371   4.729  15.042  0.00  0.00    +0.000 A 
ATOM      7  C   UNL     1       6.759   4.836  14.958  0.00  0.00    +0.000 A 
ATOM      8 CL   UNL     1       7.501   5.099  13.428  0.00  0.00    +0.000 Cl
ATOM      9  C   UNL     1       7.546   4.748  16.105  0.00  0.00    +0.000 A 
ATOM     10  C   UNL     1       6.945   4.536  17.352  0.00  0.00    +0.000 A 
ENDBRANCH   1   4
BRANCH   1  15
ATOM     11  C   UNL     1       2.112   3.767  19.738  0.00  0.00    +0.000 C 
ATOM     12  C   UNL     1       1.835   2.263  19.674  0.00  0.00    +0.000 C 
ATOM     13  C   UNL     1       1.850   1.969  18.185  0.00  0.00    +0.000 C 
ATOM     14  C   UNL     1       2.822   2.980  17.589  0.00  0.00    +0.000 C 
ATOM     15  N   UNL     1       3.142   3.942  18.680  0.00  0.00    +0.000 NA
BRANCH  11  17
ATOM     16  O   UNL     1       2.120   3.490  22.133  0.00  0.00    +0.000 OA
ATOM     17  C   UNL     1       2.217   4.242  21.169  0.00  0.00    +0.000 C 
BRANCH  17  18
ATOM     18  O   UNL     1       2.304   5.573  21.349  0.00  0.00    +0.000 OA
ATOM     19  H   UNL     1       3.225   5.927  21.401  0.00  0.00    +0.000 HD
ENDBRANCH  17  18
ENDBRANCH  11  17
ENDBRANCH   1  15
TORSDOF 4
ENDMDL
MODEL 9
REMARK VINA RESULT:      -6.5      1.830      3.127
REMARK  Name = 
REMARK  4 active torsions:
REMARK  status: ('A' for Active; 'I' for Inactive)
REMARK    1  A    between atoms: C_2  and  O_3
REMARK    2  A    between atoms: C_2  and  C_4
REMARK    3  A    between atoms: N_8  and  S_9
REMARK    4  A    between atoms: S_9  and  C_12
REMARK                            x       y       z     vdW  Elec       q    Type
REMARK                         _______ _______ _______ _____ _____    ______ ____
ROOT
ATOM      1  S   UNL     1       2.505   5.136  18.396  0.00  0.00    +0.000 S 
ATOM      2  O   UNL     1       1.447   4.462  17.677  0.00  0.00    +0.000 OA
ATOM      3  O   UNL     1       2.302   6.474  18.911  0.00  0.00    +0.000 OA
ENDROOT
BRANCH   1   4
ATOM      4  C   UNL     1       3.947   5.137  17.353  0.00  0.00    +0.000 A 
ATOM      5  C   UNL     1       4.162   4.071  16.471  0.00  0.00    +0.000 A 
ATOM      6  C   UNL     1       5.273   4.084  15.623  0.00  0.00    +0.000 A 
ATOM      7  C   UNL     1       6.146   5.171  15.642  0.00  0.00    +0.000 A 
ATOM      8 CL   UNL     1       7.505   5.190  14.587  0.00  0.00    +0.000 Cl
ATOM      9  C   UNL     1       5.918   6.248  16.498  0.00  0.00    +0.000 A 
ATOM     10  C   UNL     1       4.811   6.237  17.356  0.00  0.00    +0.000 A 
ENDBRANCH   1   4
BRANCH   1  15
ATOM     11  C   UNL     1       2.838   2.704  19.720  0.00  0.00    +0.000 C 
ATOM     12  C   UNL     1       1.590   2.445  20.568  0.00  0.00    +0.000 C 
ATOM     13  C   UNL     1       1.706   3.471  21.680  0.00  0.00    +0.000 C 
ATOM     14  C   UNL     1       2.443   4.651  21.059  0.00  0.00    +0.000 C 
ATOM     15  N   UNL     1       2.920   4.189  19.726  0.00  0.00    +0.000 NA
BRANCH  11  17
ATOM     16  O   UNL     1       3.869   1.244  18.102  0.00  0.00    +0.000 OA
ATOM     17  C   UNL     1       2.860   1.817  18.497  0.00  0.00    +0.000 C 
BRANCH  17  18
ATOM     18  O   UNL     1       1.725   1.776  17.772  0.00  0.00    +0.000 OA
ATOM     19  H   UNL     1       1.306   2.656  17.605  0.00  0.00    +0.000 HD
ENDBRANCH  17  18
ENDBRANCH  11  17
ENDBRANCH   1  15
TORSDOF 4
ENDMDL
