MODEL 1
REMARK VINA RESULT:      -8.1      0.000      0.000
REMARK  Name = 
REMARK  10 active torsions:
REMARK  status: ('A' for Active; 'I' for Inactive)
REMARK    1  A    between atoms: C_1  and  O_2
REMARK    2  A    between atoms: O_2  and  C_3
REMARK    3  A    between atoms: C_8  and  C_9
REMARK    4  A    between atoms: N_11  and  C_12
REMARK    5  A    between atoms: C_12  and  C_13
REMARK    6  A    between atoms: C_13  and  N_14
REMARK    7  A    between atoms: N_14  and  C_15
REMARK    8  A    between atoms: C_19  and  C_20
REMARK    9  A    between atoms: C_22  and  C_23
REMARK   10  A    between atoms: C_26  and  C_27
REMARK                            x       y       z     vdW  Elec       q    Type
REMARK                         _______ _______ _______ _____ _____    ______ ____
ROOT
ATOM      1  N   UNL     1       2.071   7.930  18.598  0.00  0.00    +0.000 N 
ATOM      2  H   UNL     1       1.313   7.425  19.049  0.00  0.00    +0.000 HD
ENDROOT
BRANCH   1   3
ATOM      3  C   UNL     1       3.088   7.067  18.181  0.00  0.00    +0.000 A 
ATOM      4  N   UNL     1       3.846   7.320  17.102  0.00  0.00    +0.000 NA
ATOM      5  C   UNL     1       4.927   6.535  16.938  0.00  0.00    +0.000 A 
ATOM      6  C   UNL     1       5.253   6.022  15.693  0.00  0.00    +0.000 A 
ATOM      7  C   UNL     1       6.188   4.983  15.588  0.00  0.00    +0.000 A 
ATOM      8  C   UNL     1       6.120   4.009  14.453  0.00  0.00    +0.000 C 
ATOM      9  C   UNL     1       7.098   4.787  16.626  0.00  0.00    +0.000 A 
ATOM     10  C   UNL     1       6.832   5.344  17.871  0.00  0.00    +0.000 A 
ATOM     11  C   UNL     1       7.848   5.269  18.973  0.00  0.00    +0.000 C 
ATOM     12  C   UNL     1       5.570   5.947  18.031  0.00  0.00    +0.000 A 
ATOM     13  C   UNL     1       4.727   5.669  19.115  0.00  0.00    +0.000 A 
ATOM     14  C   UNL     1       3.364   5.943  18.946  0.00  0.00    +0.000 A 
BRANCH  14  15
ATOM     15  C   UNL     1       2.536   4.788  18.627  0.00  0.00    +0.000 C 
ATOM     16  N   UNL     1       1.850   3.932  18.233  0.00  0.00    +0.000 NA
ENDBRANCH  14  15
ENDBRANCH   1   3
BRANCH   1  17
ATOM     17  C   UNL     1       1.603   8.972  17.680  0.00  0.00    +0.000 C 
BRANCH  17  18
ATOM     18  C   UNL     1       0.958  10.148  18.446  0.00  0.00    +0.000 C 
BRANCH  18  21
ATOM     19  C   UNL     1      -1.269  11.187  18.823  0.00  0.00    +0.000 C 
ATOM     20  O   UNL     1      -0.909  11.675  19.892  0.00  0.00    +0.000 OA
ATOM     21  N   UNL     1      -0.420  10.422  18.057  0.00  0.00    +0.000 N 
ATOM     22  H   UNL     1      -0.745  10.116  17.145  0.00  0.00    +0.000 HD
BRANCH  19  28
ATOM     23  C   UNL     1      -3.175  11.001  17.079  0.00  0.00    +0.000 A 
ATOM     24  C   UNL     1      -4.525  11.247  16.773  0.00  0.00    +0.000 A 
ATOM     25  C   UNL     1      -5.375  11.855  17.700  0.00  0.00    +0.000 A 
ATOM     26  C   UNL     1      -4.890  12.237  18.941  0.00  0.00    +0.000 A 
ATOM     27  C   UNL     1      -3.551  12.012  19.255  0.00  0.00    +0.000 A 
ATOM     28  C   UNL     1      -2.675  11.396  18.338  0.00  0.00    +0.000 A 
BRANCH  23  30
ATOM     29  C   UNL     1      -2.820  10.177  14.871  0.00  0.00    +0.000 C 
ATOM     30  O   UNL     1      -2.310  10.422  16.181  0.00  0.00    +0.000 OA
ENDBRANCH  23  30
ENDBRANCH  19  28
ENDBRANCH  18  21
ENDBRANCH  17  18
ENDBRANCH   1  17
TORSDOF 7
ENDMDL
MODEL 2
REMARK VINA RESULT:      -8.1      5.588      9.068
REMARK  Name = 
REMARK  10 active torsions:
REMARK  status: ('A' for Active; 'I' for Inactive)
REMARK    1  A    between atoms: C_1  and  O_2
REMARK    2  A    between atoms: O_2  and  C_3
REMARK    3  A    between atoms: C_8  and  C_9
REMARK    4  A    between atoms: N_11  and  C_12
REMARK    5  A    between atoms: C_12  and  C_13
REMARK    6  A    between atoms: C_13  and  N_14
REMARK    7  A    between atoms: N_14  and  C_15
REMARK    8  A    between atoms: C_19  and  C_20
REMARK    9  A    between atoms: C_22  and  C_23
REMARK   10  A    between atoms: C_26  and  C_27
REMARK                            x       y       z     vdW  Elec       q    Type
REMARK                         _______ _______ _______ _____ _____    ______ ____
ROOT
ATOM      1  N   UNL     1       6.707   6.935  16.402  0.00  0.00    +0.000 N 
ATOM      2  H   UNL     1       6.933   6.440  15.545  0.00  0.00    +0.000 HD
ENDROOT
BRANCH   1   3
ATOM      3  C   UNL     1       5.741   6.257  17.151  0.00  0.00    +0.000 A 
ATOM      4  N   UNL     1       4.488   6.714  17.289  0.00  0.00    +0.000 NA
ATOM      5  C   UNL     1       3.602   5.864  17.840  0.00  0.00    +0.000 A 
ATOM      6  C   UNL     1       2.701   6.297  18.799  0.00  0.00    +0.000 A 
ATOM      7  C   UNL     1       1.999   5.362  19.572  0.00  0.00    +0.000 A 
ATOM      8  C   UNL     1       1.538   5.707  20.954  0.00  0.00    +0.000 C 
ATOM      9  C   UNL     1       1.854   4.062  19.089  0.00  0.00    +0.000 A 
ATOM     10  C   UNL     1       2.700   3.618  18.081  0.00  0.00    +0.000 A 
ATOM     11  C   UNL     1       2.490   2.275  17.444  0.00  0.00    +0.000 C 
ATOM     12  C   UNL     1       3.753   4.479  17.723  0.00  0.00    +0.000 A 
ATOM     13  C   UNL     1       5.084   4.052  17.621  0.00  0.00    +0.000 A 
ATOM     14  C   UNL     1       6.077   5.036  17.718  0.00  0.00    +0.000 A 
BRANCH  14  15
ATOM     15  C   UNL     1       6.716   5.140  19.022  0.00  0.00    +0.000 C 
ATOM     16  N   UNL     1       7.200   5.377  20.057  0.00  0.00    +0.000 NA
ENDBRANCH  14  15
ENDBRANCH   1   3
BRANCH   1  17
ATOM     17  C   UNL     1       7.887   7.471  17.087  0.00  0.00    +0.000 C 
BRANCH  17  18
ATOM     18  C   UNL     1       7.526   8.697  17.955  0.00  0.00    +0.000 C 
BRANCH  18  21
ATOM     19  C   UNL     1       9.163  10.437  18.642  0.00  0.00    +0.000 C 
ATOM     20  O   UNL     1       9.236   9.981  19.781  0.00  0.00    +0.000 OA
ATOM     21  N   UNL     1       8.346   9.872  17.689  0.00  0.00    +0.000 N 
ATOM     22  H   UNL     1       8.391  10.239  16.744  0.00  0.00    +0.000 HD
BRANCH  19  28
ATOM     23  C   UNL     1       9.431  12.829  17.687  0.00  0.00    +0.000 A 
ATOM     24  C   UNL     1      10.297  13.902  17.412  0.00  0.00    +0.000 A 
ATOM     25  C   UNL     1      11.657  13.829  17.722  0.00  0.00    +0.000 A 
ATOM     26  C   UNL     1      12.176  12.681  18.301  0.00  0.00    +0.000 A 
ATOM     27  C   UNL     1      11.333  11.604  18.569  0.00  0.00    +0.000 A 
ATOM     28  C   UNL     1       9.956  11.657  18.269  0.00  0.00    +0.000 A 
BRANCH  23  30
ATOM     29  C   UNL     1       7.390  14.061  17.712  0.00  0.00    +0.000 C 
ATOM     30  O   UNL     1       8.092  12.866  17.375  0.00  0.00    +0.000 OA
ENDBRANCH  23  30
ENDBRANCH  19  28
ENDBRANCH  18  21
ENDBRANCH  17  18
ENDBRANCH   1  17
TORSDOF 7
ENDMDL
MODEL 3
REMARK VINA RESULT:      -7.9      2.923      4.049
REMARK  Name = 
REMARK  10 active torsions:
REMARK  status: ('A' for Active; 'I' for Inactive)
REMARK    1  A    between atoms: C_1  and  O_2
REMARK    2  A    between atoms: O_2  and  C_3
REMARK    3  A    between atoms: C_8  and  C_9
REMARK    4  A    between atoms: N_11  and  C_12
REMARK    5  A    between atoms: C_12  and  C_13
REMARK    6  A    between atoms: C_13  and  N_14
REMARK    7  A    between atoms: N_14  and  C_15
REMARK    8  A    between atoms: C_19  and  C_20
REMARK    9  A    between atoms: C_22  and  C_23
REMARK   10  A    between atoms: C_26  and  C_27
REMARK                            x       y       z     vdW  Elec       q    Type
REMARK                         _______ _______ _______ _____ _____    ______ ____
ROOT
ATOM      1  N   UNL     1       1.506   4.402  19.214  0.00  0.00    +0.000 N 
ATOM      2  H   UNL     1       0.845   4.917  18.639  0.00  0.00    +0.000 HD
ENDROOT
BRANCH   1   3
ATOM      3  C   UNL     1       2.769   4.341  18.620  0.00  0.00    +0.000 A 
ATOM      4  N   UNL     1       3.102   5.095  17.562  0.00  0.00    +0.000 NA
ATOM      5  C   UNL     1       4.406   5.109  17.227  0.00  0.00    +0.000 A 
ATOM      6  C   UNL     1       4.803   5.012  15.904  0.00  0.00    +0.000 A 
ATOM      7  C   UNL     1       6.140   4.728  15.594  0.00  0.00    +0.000 A 
ATOM      8  C   UNL     1       6.495   4.018  14.325  0.00  0.00    +0.000 C 
ATOM      9  C   UNL     1       7.123   4.995  16.546  0.00  0.00    +0.000 A 
ATOM     10  C   UNL     1       6.750   5.163  17.874  0.00  0.00    +0.000 A 
ATOM     11  C   UNL     1       7.759   5.582  18.903  0.00  0.00    +0.000 C 
ATOM     12  C   UNL     1       5.403   4.898  18.184  0.00  0.00    +0.000 A 
ATOM     13  C   UNL     1       5.016   4.072  19.248  0.00  0.00    +0.000 A 
ATOM     14  C   UNL     1       3.732   3.517  19.186  0.00  0.00    +0.000 A 
BRANCH  14  15
ATOM     15  C   UNL     1       3.678   2.136  18.728  0.00  0.00    +0.000 C 
ATOM     16  N   UNL     1       3.786   1.024  18.394  0.00  0.00    +0.000 NA
ENDBRANCH  14  15
ENDBRANCH   1   3
BRANCH   1  17
ATOM     17  C   UNL     1       1.407   4.731  20.639  0.00  0.00    +0.000 C 
BRANCH  17  18
ATOM     18  C   UNL     1       2.256   5.974  20.989  0.00  0.00    +0.000 C 
BRANCH  18  21
ATOM     19  C   UNL     1       1.679   8.121  19.878  0.00  0.00    +0.000 C 
ATOM     20  O   UNL     1       2.463   7.905  18.956  0.00  0.00    +0.000 OA
ATOM     21  N   UNL     1       1.521   7.231  20.915  0.00  0.00    +0.000 N 
ATOM     22  H   UNL     1       0.799   7.422  21.603  0.00  0.00    +0.000 HD
BRANCH  19  28
ATOM     23  C   UNL     1       0.054   9.822  20.963  0.00  0.00    +0.000 A 
ATOM     24  C   UNL     1      -0.613  11.054  20.853  0.00  0.00    +0.000 A 
ATOM     25  C   UNL     1      -0.452  11.864  19.727  0.00  0.00    +0.000 A 
ATOM     26  C   UNL     1       0.369  11.453  18.688  0.00  0.00    +0.000 A 
ATOM     27  C   UNL     1       1.029  10.228  18.775  0.00  0.00    +0.000 A 
ATOM     28  C   UNL     1       0.885   9.396  19.905  0.00  0.00    +0.000 A 
BRANCH  23  30
ATOM     29  C   UNL     1      -0.377   9.628  23.300  0.00  0.00    +0.000 C 
ATOM     30  O   UNL     1      -0.101   8.995  22.051  0.00  0.00    +0.000 OA
ENDBRANCH  23  30
ENDBRANCH  19  28
ENDBRANCH  18  21
ENDBRANCH  17  18
ENDBRANCH   1  17
TORSDOF 7
ENDMDL
MODEL 4
REMARK VINA RESULT:      -7.9      3.326      3.852
REMARK  Name = 
REMARK  10 active torsions:
REMARK  status: ('A' for Active; 'I' for Inactive)
REMARK    1  A    between atoms: C_1  and  O_2
REMARK    2  A    between atoms: O_2  and  C_3
REMARK    3  A    between atoms: C_8  and  C_9
REMARK    4  A    between atoms: N_11  and  C_12
REMARK    5  A    between atoms: C_12  and  C_13
REMARK    6  A    between atoms: C_13  and  N_14
REMARK    7  A    between atoms: N_14  and  C_15
REMARK    8  A    between atoms: C_19  and  C_20
REMARK    9  A    between atoms: C_22  and  C_23
REMARK   10  A    between atoms: C_26  and  C_27
REMARK                            x       y       z     vdW  Elec       q    Type
REMARK                         _______ _______ _______ _____ _____    ______ ____
ROOT
ATOM      1  N   UNL     1       1.627   4.453  19.222  0.00  0.00    +0.000 N 
ATOM      2  H   UNL     1       0.894   4.630  18.541  0.00  0.00    +0.000 HD
ENDROOT
BRANCH   1   3
ATOM      3  C   UNL     1       2.889   4.418  18.623  0.00  0.00    +0.000 A 
ATOM      4  N   UNL     1       3.207   5.189  17.573  0.00  0.00    +0.000 NA
ATOM      5  C   UNL     1       4.510   5.226  17.234  0.00  0.00    +0.000 A 
ATOM      6  C   UNL     1       4.904   5.151  15.908  0.00  0.00    +0.000 A 
ATOM      7  C   UNL     1       6.244   4.890  15.590  0.00  0.00    +0.000 A 
ATOM      8  C   UNL     1       6.604   4.201  14.311  0.00  0.00    +0.000 C 
ATOM      9  C   UNL     1       7.226   5.159  16.542  0.00  0.00    +0.000 A 
ATOM     10  C   UNL     1       6.855   5.305  17.873  0.00  0.00    +0.000 A 
ATOM     11  C   UNL     1       7.861   5.726  18.904  0.00  0.00    +0.000 C 
ATOM     12  C   UNL     1       5.513   5.017  18.184  0.00  0.00    +0.000 A 
ATOM     13  C   UNL     1       5.142   4.173  19.240  0.00  0.00    +0.000 A 
ATOM     14  C   UNL     1       3.865   3.600  19.175  0.00  0.00    +0.000 A 
BRANCH  14  15
ATOM     15  C   UNL     1       3.829   2.224  18.700  0.00  0.00    +0.000 C 
ATOM     16  N   UNL     1       3.753   1.085  18.463  0.00  0.00    +0.000 NA
ENDBRANCH  14  15
ENDBRANCH   1   3
BRANCH   1  17
ATOM     17  C   UNL     1       1.453   5.209  20.465  0.00  0.00    +0.000 C 
BRANCH  17  18
ATOM     18  C   UNL     1       2.190   6.566  20.406  0.00  0.00    +0.000 C 
BRANCH  18  21
ATOM     19  C   UNL     1       1.136   8.817  20.450  0.00  0.00    +0.000 C 
ATOM     20  O   UNL     1       1.404   9.014  19.267  0.00  0.00    +0.000 OA
ATOM     21  N   UNL     1       1.490   7.649  21.085  0.00  0.00    +0.000 N 
ATOM     22  H   UNL     1       1.168   7.507  22.038  0.00  0.00    +0.000 HD
BRANCH  19  28
ATOM     23  C   UNL     1       0.397  11.252  20.933  0.00  0.00    +0.000 A 
ATOM     24  C   UNL     1      -0.325  12.125  21.765  0.00  0.00    +0.000 A 
ATOM     25  C   UNL     1      -1.021  11.649  22.879  0.00  0.00    +0.000 A 
ATOM     26  C   UNL     1      -0.998  10.297  23.186  0.00  0.00    +0.000 A 
ATOM     27  C   UNL     1      -0.277   9.420  22.379  0.00  0.00    +0.000 A 
ATOM     28  C   UNL     1       0.430   9.877  21.246  0.00  0.00    +0.000 A 
BRANCH  23  30
ATOM     29  C   UNL     1       0.845  13.028  19.406  0.00  0.00    +0.000 C 
ATOM     30  O   UNL     1       1.107  11.694  19.842  0.00  0.00    +0.000 OA
ENDBRANCH  23  30
ENDBRANCH  19  28
ENDBRANCH  18  21
ENDBRANCH  17  18
ENDBRANCH   1  17
TORSDOF 7
ENDMDL
MODEL 5
REMARK VINA RESULT:      -7.9      1.267      2.249
REMARK  Name = 
REMARK  10 active torsions:
REMARK  status: ('A' for Active; 'I' for Inactive)
REMARK    1  A    between atoms: C_1  and  O_2
REMARK    2  A    between atoms: O_2  and  C_3
REMARK    3  A    between atoms: C_8  and  C_9
REMARK    4  A    between atoms: N_11  and  C_12
REMARK    5  A    between atoms: C_12  and  C_13
REMARK    6  A    between atoms: C_13  and  N_14
REMARK    7  A    between atoms: N_14  and  C_15
REMARK    8  A    between atoms: C_19  and  C_20
REMARK    9  A    between atoms: C_22  and  C_23
REMARK   10  A    between atoms: C_26  and  C_27
REMARK                            x       y       z     vdW  Elec       q    Type
REMARK                         _______ _______ _______ _____ _____    ______ ____
ROOT
ATOM      1  N   UNL     1       1.930   7.358  19.000  0.00  0.00    +0.000 N 
ATOM      2  H   UNL     1       1.755   8.204  18.466  0.00  0.00    +0.000 HD
ENDROOT
BRANCH   1   3
ATOM      3  C   UNL     1       3.028   6.652  18.504  0.00  0.00    +0.000 A 
ATOM      4  N   UNL     1       3.712   7.056  17.422  0.00  0.00    +0.000 NA
ATOM      5  C   UNL     1       4.874   6.420  17.181  0.00  0.00    +0.000 A 
ATOM      6  C   UNL     1       5.217   6.022  15.899  0.00  0.00    +0.000 A 
ATOM      7  C   UNL     1       6.265   5.112  15.706  0.00  0.00    +0.000 A 
ATOM      8  C   UNL     1       6.276   4.203  14.516  0.00  0.00    +0.000 C 
ATOM      9  C   UNL     1       7.227   4.971  16.705  0.00  0.00    +0.000 A 
ATOM     10  C   UNL     1       6.939   5.419  17.988  0.00  0.00    +0.000 A 
ATOM     11  C   UNL     1       7.994   5.406  19.056  0.00  0.00    +0.000 C 
ATOM     12  C   UNL     1       5.621   5.853  18.219  0.00  0.00    +0.000 A 
ATOM     13  C   UNL     1       4.854   5.413  19.307  0.00  0.00    +0.000 A 
ATOM     14  C   UNL     1       3.463   5.528  19.192  0.00  0.00    +0.000 A 
BRANCH  14  15
ATOM     15  C   UNL     1       2.770   4.301  18.826  0.00  0.00    +0.000 C 
ATOM     16  N   UNL     1       2.242   3.271  18.679  0.00  0.00    +0.000 NA
ENDBRANCH  14  15
ENDBRANCH   1   3
BRANCH   1  17
ATOM     17  C   UNL     1       1.810   7.557  20.448  0.00  0.00    +0.000 C 
BRANCH  17  18
ATOM     18  C   UNL     1       1.420   9.014  20.785  0.00  0.00    +0.000 C 
BRANCH  18  21
ATOM     19  C   UNL     1       0.101  10.078  18.966  0.00  0.00    +0.000 C 
ATOM     20  O   UNL     1       1.115  10.331  18.319  0.00  0.00    +0.000 OA
ATOM     21  N   UNL     1       0.162   9.442  20.185  0.00  0.00    +0.000 N 
ATOM     22  H   UNL     1      -0.712   9.184  20.633  0.00  0.00    +0.000 HD
BRANCH  19  28
ATOM     23  C   UNL     1      -2.083  11.470  19.021  0.00  0.00    +0.000 A 
ATOM     24  C   UNL     1      -3.312  11.766  18.405  0.00  0.00    +0.000 A 
ATOM     25  C   UNL     1      -3.702  11.121  17.228  0.00  0.00    +0.000 A 
ATOM     26  C   UNL     1      -2.879  10.165  16.654  0.00  0.00    +0.000 A 
ATOM     27  C   UNL     1      -1.664   9.851  17.259  0.00  0.00    +0.000 A 
ATOM     28  C   UNL     1      -1.246  10.492  18.444  0.00  0.00    +0.000 A 
BRANCH  23  30
ATOM     29  C   UNL     1      -2.713  12.578  21.035  0.00  0.00    +0.000 C 
ATOM     30  O   UNL     1      -1.681  12.074  20.188  0.00  0.00    +0.000 OA
ENDBRANCH  23  30
ENDBRANCH  19  28
ENDBRANCH  18  21
ENDBRANCH  17  18
ENDBRANCH   1  17
TORSDOF 7
ENDMDL
MODEL 6
REMARK VINA RESULT:      -7.9      2.244      3.154
REMARK  Name = 
REMARK  10 active torsions:
REMARK  status: ('A' for Active; 'I' for Inactive)
REMARK    1  A    between atoms: C_1  and  O_2
REMARK    2  A    between atoms: O_2  and  C_3
REMARK    3  A    between atoms: C_8  and  C_9
REMARK    4  A    between atoms: N_11  and  C_12
REMARK    5  A    between atoms: C_12  and  C_13
REMARK    6  A    between atoms: C_13  and  N_14
REMARK    7  A    between atoms: N_14  and  C_15
REMARK    8  A    between atoms: C_19  and  C_20
REMARK    9  A    between atoms: C_22  and  C_23
REMARK   10  A    between atoms: C_26  and  C_27
REMARK                            x       y       z     vdW  Elec       q    Type
REMARK                         _______ _______ _______ _____ _____    ______ ____
ROOT
ATOM      1  N   UNL     1       1.669   5.323  19.331  0.00  0.00    +0.000 N 
ATOM      2  H   UNL     1       0.970   5.602  18.649  0.00  0.00    +0.000 HD
ENDROOT
BRANCH   1   3
ATOM      3  C   UNL     1       2.921   5.138  18.739  0.00  0.00    +0.000 A 
ATOM      4  N   UNL     1       3.329   5.856  17.682  0.00  0.00    +0.000 NA
ATOM      5  C   UNL     1       4.629   5.740  17.349  0.00  0.00    +0.000 A 
ATOM      6  C   UNL     1       5.016   5.606  16.026  0.00  0.00    +0.000 A 
ATOM      7  C   UNL     1       6.319   5.191  15.718  0.00  0.00    +0.000 A 
ATOM      8  C   UNL     1       6.604   4.451  14.448  0.00  0.00    +0.000 C 
ATOM      9  C   UNL     1       7.322   5.358  16.672  0.00  0.00    +0.000 A 
ATOM     10  C   UNL     1       6.965   5.560  17.999  0.00  0.00    +0.000 A 
ATOM     11  C   UNL     1       8.009   5.875  19.030  0.00  0.00    +0.000 C 
ATOM     12  C   UNL     1       5.599   5.430  18.307  0.00  0.00    +0.000 A 
ATOM     13  C   UNL     1       5.129   4.646  19.369  0.00  0.00    +0.000 A 
ATOM     14  C   UNL     1       3.796   4.221  19.305  0.00  0.00    +0.000 A 
BRANCH  14  15
ATOM     15  C   UNL     1       3.605   2.853  18.844  0.00  0.00    +0.000 C 
ATOM     16  N   UNL     1       3.511   1.714  18.613  0.00  0.00    +0.000 NA
ENDBRANCH  14  15
ENDBRANCH   1   3
BRANCH   1  17
ATOM     17  C   UNL     1       1.583   6.076  20.585  0.00  0.00    +0.000 C 
BRANCH  17  18
ATOM     18  C   UNL     1       2.108   7.519  20.413  0.00  0.00    +0.000 C 
BRANCH  18  21
ATOM     19  C   UNL     1       0.974   9.378  21.610  0.00  0.00    +0.000 C 
ATOM     20  O   UNL     1       1.751   9.299  22.559  0.00  0.00    +0.000 OA
ATOM     21  N   UNL     1       1.075   8.541  20.523  0.00  0.00    +0.000 N 
ATOM     22  H   UNL     1       0.460   8.708  19.733  0.00  0.00    +0.000 HD
BRANCH  19  28
ATOM     23  C   UNL     1      -0.669  11.047  20.504  0.00  0.00    +0.000 A 
ATOM     24  C   UNL     1      -1.727  11.956  20.679  0.00  0.00    +0.000 A 
ATOM     25  C   UNL     1      -2.267  12.198  21.944  0.00  0.00    +0.000 A 
ATOM     26  C   UNL     1      -1.754  11.547  23.055  0.00  0.00    +0.000 A 
ATOM     27  C   UNL     1      -0.697  10.652  22.900  0.00  0.00    +0.000 A 
ATOM     28  C   UNL     1      -0.138  10.388  21.632  0.00  0.00    +0.000 A 
BRANCH  23  30
ATOM     29  C   UNL     1      -0.999  10.715  18.166  0.00  0.00    +0.000 C 
ATOM     30  O   UNL     1      -0.105  10.803  19.274  0.00  0.00    +0.000 OA
ENDBRANCH  23  30
ENDBRANCH  19  28
ENDBRANCH  18  21
ENDBRANCH  17  18
ENDBRANCH   1  17
TORSDOF 7
ENDMDL
MODEL 7
REMARK VINA RESULT:      -7.8      5.714      9.457
REMARK  Name = 
REMARK  10 active torsions:
REMARK  status: ('A' for Active; 'I' for Inactive)
REMARK    1  A    between atoms: C_1  and  O_2
REMARK    2  A    between atoms: O_2  and  C_3
REMARK    3  A    between atoms: C_8  and  C_9
REMARK    4  A    between atoms: N_11  and  C_12
REMARK    5  A    between atoms: C_12  and  C_13
REMARK    6  A    between atoms: C_13  and  N_14
REMARK    7  A    between atoms: N_14  and  C_15
REMARK    8  A    between atoms: C_19  and  C_20
REMARK    9  A    between atoms: C_22  and  C_23
REMARK   10  A    between atoms: C_26  and  C_27
REMARK                            x       y       z     vdW  Elec       q    Type
REMARK                         _______ _______ _______ _____ _____    ______ ____
ROOT
ATOM      1  N   UNL     1       7.822   6.923  17.132  0.00  0.00    +0.000 N 
ATOM      2  H   UNL     1       8.586   6.349  16.787  0.00  0.00    +0.000 HD
ENDROOT
BRANCH   1   3
ATOM      3  C   UNL     1       6.645   6.185  17.276  0.00  0.00    +0.000 A 
ATOM      4  N   UNL     1       6.400   5.429  18.357  0.00  0.00    +0.000 NA
ATOM      5  C   UNL     1       5.147   4.951  18.477  0.00  0.00    +0.000 A 
ATOM      6  C   UNL     1       4.918   3.639  18.858  0.00  0.00    +0.000 A 
ATOM      7  C   UNL     1       3.646   3.074  18.691  0.00  0.00    +0.000 A 
ATOM      8  C   UNL     1       3.487   1.601  18.481  0.00  0.00    +0.000 C 
ATOM      9  C   UNL     1       2.542   3.920  18.589  0.00  0.00    +0.000 A 
ATOM     10  C   UNL     1       2.743   5.258  18.272  0.00  0.00    +0.000 A 
ATOM     11  C   UNL     1       1.595   6.225  18.284  0.00  0.00    +0.000 C 
ATOM     12  C   UNL     1       4.055   5.629  17.927  0.00  0.00    +0.000 A 
ATOM     13  C   UNL     1       4.358   6.373  16.778  0.00  0.00    +0.000 A 
ATOM     14  C   UNL     1       5.669   6.289  16.295  0.00  0.00    +0.000 A 
BRANCH  14  15
ATOM     15  C   UNL     1       5.857   5.382  15.171  0.00  0.00    +0.000 C 
ATOM     16  N   UNL     1       5.999   4.540  14.376  0.00  0.00    +0.000 NA
ENDBRANCH  14  15
ENDBRANCH   1   3
BRANCH   1  17
ATOM     17  C   UNL     1       8.226   7.832  18.210  0.00  0.00    +0.000 C 
BRANCH  17  18
ATOM     18  C   UNL     1       7.934   9.304  17.843  0.00  0.00    +0.000 C 
BRANCH  18  21
ATOM     19  C   UNL     1       8.952  11.570  17.917  0.00  0.00    +0.000 C 
ATOM     20  O   UNL     1       8.003  12.064  17.311  0.00  0.00    +0.000 OA
ATOM     21  N   UNL     1       9.000  10.227  18.213  0.00  0.00    +0.000 N 
ATOM     22  H   UNL     1       9.766   9.892  18.788  0.00  0.00    +0.000 HD
BRANCH  19  28
ATOM     23  C   UNL     1      10.628  12.540  19.637  0.00  0.00    +0.000 A 
ATOM     24  C   UNL     1      11.734  13.377  19.868  0.00  0.00    +0.000 A 
ATOM     25  C   UNL     1      12.333  14.084  18.823  0.00  0.00    +0.000 A 
ATOM     26  C   UNL     1      11.833  13.976  17.534  0.00  0.00    +0.000 A 
ATOM     27  C   UNL     1      10.729  13.161  17.291  0.00  0.00    +0.000 A 
ATOM     28  C   UNL     1      10.110  12.433  18.330  0.00  0.00    +0.000 A 
BRANCH  23  30
ATOM     29  C   UNL     1       9.601  12.605  21.788  0.00  0.00    +0.000 C 
ATOM     30  O   UNL     1      10.006  11.847  20.649  0.00  0.00    +0.000 OA
ENDBRANCH  23  30
ENDBRANCH  19  28
ENDBRANCH  18  21
ENDBRANCH  17  18
ENDBRANCH   1  17
TORSDOF 7
ENDMDL
MODEL 8
REMARK VINA RESULT:      -7.8      5.890      9.303
REMARK  Name = 
REMARK  10 active torsions:
REMARK  status: ('A' for Active; 'I' for Inactive)
REMARK    1  A    between atoms: C_1  and  O_2
REMARK    2  A    between atoms: O_2  and  C_3
REMARK    3  A    between atoms: C_8  and  C_9
REMARK    4  A    between atoms: N_11  and  C_12
REMARK    5  A    between atoms: C_12  and  C_13
REMARK    6  A    between atoms: C_13  and  N_14
REMARK    7  A    between atoms: N_14  and  C_15
REMARK    8  A    between atoms: C_19  and  C_20
REMARK    9  A    between atoms: C_22  and  C_23
REMARK   10  A    between atoms: C_26  and  C_27
REMARK                            x       y       z     vdW  Elec       q    Type
REMARK                         _______ _______ _______ _____ _____    ______ ____
ROOT
ATOM      1  N   UNL     1       7.933   6.958  18.040  0.00  0.00    +0.000 N 
ATOM      2  H   UNL     1       8.479   6.740  18.868  0.00  0.00    +0.000 HD
ENDROOT
BRANCH   1   3
ATOM      3  C   UNL     1       6.781   6.171  17.959  0.00  0.00    +0.000 A 
ATOM      4  N   UNL     1       6.341   5.434  18.989  0.00  0.00    +0.000 NA
ATOM      5  C   UNL     1       5.111   4.903  18.860  0.00  0.00    +0.000 A 
ATOM      6  C   UNL     1       4.857   3.593  19.230  0.00  0.00    +0.000 A 
ATOM      7  C   UNL     1       3.672   2.967  18.819  0.00  0.00    +0.000 A 
ATOM      8  C   UNL     1       3.618   1.483  18.632  0.00  0.00    +0.000 C 
ATOM      9  C   UNL     1       2.583   3.759  18.457  0.00  0.00    +0.000 A 
ATOM     10  C   UNL     1       2.795   5.096  18.142  0.00  0.00    +0.000 A 
ATOM     11  C   UNL     1       1.635   6.011  17.878  0.00  0.00    +0.000 C 
ATOM     12  C   UNL     1       4.135   5.517  18.068  0.00  0.00    +0.000 A 
ATOM     13  C   UNL     1       4.646   6.243  16.983  0.00  0.00    +0.000 A 
ATOM     14  C   UNL     1       6.032   6.205  16.790  0.00  0.00    +0.000 A 
BRANCH  14  15
ATOM     15  C   UNL     1       6.489   5.278  15.764  0.00  0.00    +0.000 C 
ATOM     16  N   UNL     1       6.915   4.660  14.872  0.00  0.00    +0.000 NA
ENDBRANCH  14  15
ENDBRANCH   1   3
BRANCH   1  17
ATOM     17  C   UNL     1       7.828   8.398  17.783  0.00  0.00    +0.000 C 
BRANCH  17  18
ATOM     18  C   UNL     1       8.660   9.212  18.798  0.00  0.00    +0.000 C 
BRANCH  18  21
ATOM     19  C   UNL     1       9.685  11.468  18.993  0.00  0.00    +0.000 C 
ATOM     20  O   UNL     1       9.505  11.493  20.209  0.00  0.00    +0.000 OA
ATOM     21  N   UNL     1       9.296  10.393  18.227  0.00  0.00    +0.000 N 
ATOM     22  H   UNL     1       9.547  10.393  17.244  0.00  0.00    +0.000 HD
BRANCH  19  28
ATOM     23  C   UNL     1       9.730  13.916  18.148  0.00  0.00    +0.000 A 
ATOM     24  C   UNL     1      10.456  14.928  17.496  0.00  0.00    +0.000 A 
ATOM     25  C   UNL     1      11.748  14.696  17.020  0.00  0.00    +0.000 A 
ATOM     26  C   UNL     1      12.333  13.449  17.178  0.00  0.00    +0.000 A 
ATOM     27  C   UNL     1      11.623  12.432  17.811  0.00  0.00    +0.000 A 
ATOM     28  C   UNL     1      10.318  12.644  18.304  0.00  0.00    +0.000 A 
BRANCH  23  30
ATOM     29  C   UNL     1       7.674  15.105  17.943  0.00  0.00    +0.000 C 
ATOM     30  O   UNL     1       8.450  14.110  18.609  0.00  0.00    +0.000 OA
ENDBRANCH  23  30
ENDBRANCH  19  28
ENDBRANCH  18  21
ENDBRANCH  17  18
ENDBRANCH   1  17
TORSDOF 7
ENDMDL
MODEL 9
REMARK VINA RESULT:      -7.7      2.268      2.955
REMARK  Name = 
REMARK  10 active torsions:
REMARK  status: ('A' for Active; 'I' for Inactive)
REMARK    1  A    between atoms: C_1  and  O_2
REMARK    2  A    between atoms: O_2  and  C_3
REMARK    3  A    between atoms: C_8  and  C_9
REMARK    4  A    between atoms: N_11  and  C_12
REMARK    5  A    between atoms: C_12  and  C_13
REMARK    6  A    between atoms: C_13  and  N_14
REMARK    7  A    between atoms: N_14  and  C_15
REMARK    8  A    between atoms: C_19  and  C_20
REMARK    9  A    between atoms: C_22  and  C_23
REMARK   10  A    between atoms: C_26  and  C_27
REMARK                            x       y       z     vdW  Elec       q    Type
REMARK                         _______ _______ _______ _____ _____    ______ ____
ROOT
ATOM      1  N   UNL     1       1.877   6.628  19.558  0.00  0.00    +0.000 N 
ATOM      2  H   UNL     1       1.033   6.425  19.029  0.00  0.00    +0.000 HD
ENDROOT
BRANCH   1   3
ATOM      3  C   UNL     1       3.018   6.141  18.916  0.00  0.00    +0.000 A 
ATOM      4  N   UNL     1       3.545   6.739  17.836  0.00  0.00    +0.000 NA
ATOM      5  C   UNL     1       4.760   6.307  17.451  0.00  0.00    +0.000 A 
ATOM      6  C   UNL     1       5.046   6.084  16.114  0.00  0.00    +0.000 A 
ATOM      7  C   UNL     1       6.192   5.361  15.755  0.00  0.00    +0.000 A 
ATOM      8  C   UNL     1       6.232   4.576  14.481  0.00  0.00    +0.000 C 
ATOM      9  C   UNL     1       7.246   5.274  16.665  0.00  0.00    +0.000 A 
ATOM     10  C   UNL     1       7.006   5.556  18.004  0.00  0.00    +0.000 A 
ATOM     11  C   UNL     1       8.139   5.604  18.988  0.00  0.00    +0.000 C 
ATOM     12  C   UNL     1       5.664   5.766  18.370  0.00  0.00    +0.000 A 
ATOM     13  C   UNL     1       5.062   5.120  19.458  0.00  0.00    +0.000 A 
ATOM     14  C   UNL     1       3.664   5.037  19.453  0.00  0.00    +0.000 A 
BRANCH  14  15
ATOM     15  C   UNL     1       3.123   3.758  19.013  0.00  0.00    +0.000 C 
ATOM     16  N   UNL     1       2.597   2.818  18.568  0.00  0.00    +0.000 NA
ENDBRANCH  14  15
ENDBRANCH   1   3
BRANCH   1  17
ATOM     17  C   UNL     1       1.898   7.987  20.108  0.00  0.00    +0.000 C 
BRANCH  17  18
ATOM     18  C   UNL     1       0.965   8.111  21.334  0.00  0.00    +0.000 C 
BRANCH  18  21
ATOM     19  C   UNL     1      -0.145  10.106  22.317  0.00  0.00    +0.000 C 
ATOM     20  O   UNL     1       0.448   9.964  23.384  0.00  0.00    +0.000 OA
ATOM     21  N   UNL     1       0.046   9.240  21.265  0.00  0.00    +0.000 N 
ATOM     22  H   UNL     1      -0.406   9.456  20.381  0.00  0.00    +0.000 HD
BRANCH  19  28
ATOM     23  C   UNL     1      -1.318  11.981  20.969  0.00  0.00    +0.000 A 
ATOM     24  C   UNL     1      -2.294  12.993  20.954  0.00  0.00    +0.000 A 
ATOM     25  C   UNL     1      -3.084  13.249  22.077  0.00  0.00    +0.000 A 
ATOM     26  C   UNL     1      -2.907  12.507  23.235  0.00  0.00    +0.000 A 
ATOM     27  C   UNL     1      -1.935  11.509  23.270  0.00  0.00    +0.000 A 
ATOM     28  C   UNL     1      -1.128  11.229  22.147  0.00  0.00    +0.000 A 
BRANCH  23  30
ATOM     29  C   UNL     1      -0.997  12.142  18.612  0.00  0.00    +0.000 C 
ATOM     30  O   UNL     1      -0.512  11.720  19.886  0.00  0.00    +0.000 OA
ENDBRANCH  23  30
ENDBRANCH  19  28
ENDBRANCH  18  21
ENDBRANCH  17  18
ENDBRANCH   1  17
TORSDOF 7
ENDMDL
