MODEL 1
REMARK VINA RESULT:      -8.4      0.000      0.000
REMARK  Name = 
REMARK  3 active torsions:
REMARK  status: ('A' for Active; 'I' for Inactive)
REMARK    1  A    between atoms: N_2  and  C_4
REMARK    2  A    between atoms: C_10  and  N_11
REMARK    3  A    between atoms: N_14  and  C_15
REMARK                            x       y       z     vdW  Elec       q    Type
REMARK                         _______ _______ _______ _____ _____    ______ ____
ROOT
ATOM      1  N   UNL     1       2.430   7.427  18.427  0.00  0.00    +0.000 N 
ATOM      2  C   UNL     1       1.794   7.178  19.747  0.00  0.00    +0.000 C 
ATOM      3  C   UNL     1       1.623   8.501  20.536  0.00  0.00    +0.000 C 
ATOM      4  N   UNL     1       0.888   9.447  19.684  0.00  0.00    +0.000 N 
ATOM      5  C   UNL     1       1.639   9.784  18.468  0.00  0.00    +0.000 C 
ATOM      6  C   UNL     1       1.764   8.489  17.627  0.00  0.00    +0.000 C 
ENDROOT
BRANCH   4   7
ATOM      7  C   UNL     1       0.169  10.449  20.302  0.00  0.00    +0.000 A 
ATOM      8  N   UNL     1       0.516  10.845  21.551  0.00  0.00    +0.000 NA
ATOM      9  C   UNL     1      -0.243  11.750  22.187  0.00  0.00    +0.000 A 
ATOM     10  N   UNL     1      -1.353  12.342  21.743  0.00  0.00    +0.000 NA
ATOM     11  C   UNL     1      -1.700  11.913  20.518  0.00  0.00    +0.000 A 
ATOM     12  S   UNL     1      -3.143  12.488  19.777  0.00  0.00    +0.000 S 
ATOM     13  C   UNL     1      -2.895  11.499  18.460  0.00  0.00    +0.000 A 
ATOM     14  C   UNL     1      -1.746  10.755  18.527  0.00  0.00    +0.000 A 
ATOM     15  C   UNL     1      -1.011  10.986  19.734  0.00  0.00    +0.000 A 
ATOM     16  C   UNL     1      -1.627   9.877  17.331  0.00  0.00    +0.000 C 
ATOM     17  C   UNL     1      -2.683  10.481  16.362  0.00  0.00    +0.000 C 
ATOM     18  C   UNL     1      -3.704  11.249  17.247  0.00  0.00    +0.000 C 
ENDBRANCH   4   7
BRANCH   1  25
ATOM     19  C   UNL     1       3.366   5.195  17.809  0.00  0.00    +0.000 A 
ATOM     20  C   UNL     1       4.448   4.425  17.341  0.00  0.00    +0.000 A 
ATOM     21  C   UNL     1       5.586   5.068  16.884  0.00  0.00    +0.000 A 
ATOM     22 CL   UNL     1       6.924   4.150  16.322  0.00  0.00    +0.000 Cl
ATOM     23  C   UNL     1       5.646   6.453  16.882  0.00  0.00    +0.000 A 
ATOM     24  C   UNL     1       4.566   7.200  17.370  0.00  0.00    +0.000 A 
ATOM     25  C   UNL     1       3.388   6.605  17.868  0.00  0.00    +0.000 A 
BRANCH  19  27
ATOM     26  O   UNL     1       2.224   3.799  19.223  0.00  0.00    +0.000 OA
ATOM     27  N   UNL     1       2.184   4.434  18.160  0.00  0.00    +0.000 N 
ATOM     28  O   UNL     1       1.240   4.433  17.358  0.00  0.00    +0.000 OA
ENDBRANCH  19  27
ENDBRANCH   1  25
TORSDOF 3
ENDMDL
MODEL 2
REMARK VINA RESULT:      -7.8      4.703      8.323
REMARK  Name = 
REMARK  3 active torsions:
REMARK  status: ('A' for Active; 'I' for Inactive)
REMARK    1  A    between atoms: N_2  and  C_4
REMARK    2  A    between atoms: C_10  and  N_11
REMARK    3  A    between atoms: N_14  and  C_15
REMARK                            x       y       z     vdW  Elec       q    Type
REMARK                         _______ _______ _______ _____ _____    ______ ____
ROOT
ATOM      1  N   UNL     1       0.771   9.459  20.091  0.00  0.00    +0.000 N 
ATOM      2  C   UNL     1       0.789   9.404  18.606  0.00  0.00    +0.000 C 
ATOM      3  C   UNL     1       2.147   8.865  18.089  0.00  0.00    +0.000 C 
ATOM      4  N   UNL     1       2.400   7.572  18.740  0.00  0.00    +0.000 N 
ATOM      5  C   UNL     1       2.538   7.711  20.196  0.00  0.00    +0.000 C 
ATOM      6  C   UNL     1       1.169   8.184  20.746  0.00  0.00    +0.000 C 
ENDROOT
BRANCH   4   7
ATOM      7  C   UNL     1       3.223   6.674  18.093  0.00  0.00    +0.000 A 
ATOM      8  N   UNL     1       4.093   7.122  17.155  0.00  0.00    +0.000 NA
ATOM      9  C   UNL     1       4.822   6.236  16.459  0.00  0.00    +0.000 A 
ATOM     10  N   UNL     1       4.806   4.906  16.562  0.00  0.00    +0.000 NA
ATOM     11  C   UNL     1       3.916   4.479  17.472  0.00  0.00    +0.000 A 
ATOM     12  S   UNL     1       3.674   2.792  17.719  0.00  0.00    +0.000 S 
ATOM     13  C   UNL     1       2.472   3.099  18.832  0.00  0.00    +0.000 A 
ATOM     14  C   UNL     1       2.247   4.432  19.060  0.00  0.00    +0.000 A 
ATOM     15  C   UNL     1       3.095   5.275  18.273  0.00  0.00    +0.000 A 
ATOM     16  C   UNL     1       1.137   4.610  20.034  0.00  0.00    +0.000 C 
ATOM     17  C   UNL     1       0.984   3.185  20.638  0.00  0.00    +0.000 C 
ATOM     18  C   UNL     1       1.579   2.199  19.593  0.00  0.00    +0.000 C 
ENDBRANCH   4   7
BRANCH   1  25
ATOM     19  C   UNL     1       0.336  11.873  20.558  0.00  0.00    +0.000 A 
ATOM     20  C   UNL     1      -0.156  12.868  21.425  0.00  0.00    +0.000 A 
ATOM     21  C   UNL     1      -0.824  12.489  22.576  0.00  0.00    +0.000 A 
ATOM     22 CL   UNL     1      -1.420  13.684  23.657  0.00  0.00    +0.000 Cl
ATOM     23  C   UNL     1      -1.010  11.144  22.859  0.00  0.00    +0.000 A 
ATOM     24  C   UNL     1      -0.495  10.171  21.994  0.00  0.00    +0.000 A 
ATOM     25  C   UNL     1       0.212  10.492  20.816  0.00  0.00    +0.000 A 
BRANCH  19  27
ATOM     26  O   UNL     1       2.155  12.458  19.292  0.00  0.00    +0.000 OA
ATOM     27  N   UNL     1       0.919  12.372  19.328  0.00  0.00    +0.000 N 
ATOM     28  O   UNL     1       0.149  12.717  18.424  0.00  0.00    +0.000 OA
ENDBRANCH  19  27
ENDBRANCH   1  25
TORSDOF 3
ENDMDL
MODEL 3
REMARK VINA RESULT:      -7.3      4.430      8.173
REMARK  Name = 
REMARK  3 active torsions:
REMARK  status: ('A' for Active; 'I' for Inactive)
REMARK    1  A    between atoms: N_2  and  C_4
REMARK    2  A    between atoms: C_10  and  N_11
REMARK    3  A    between atoms: N_14  and  C_15
REMARK                            x       y       z     vdW  Elec       q    Type
REMARK                         _______ _______ _______ _____ _____    ______ ____
ROOT
ATOM      1  N   UNL     1       0.805   9.502  19.782  0.00  0.00    +0.000 N 
ATOM      2  C   UNL     1       0.850   9.367  18.302  0.00  0.00    +0.000 C 
ATOM      3  C   UNL     1       2.215   8.798  17.841  0.00  0.00    +0.000 C 
ATOM      4  N   UNL     1       2.452   7.541  18.566  0.00  0.00    +0.000 N 
ATOM      5  C   UNL     1       2.563   7.758  20.014  0.00  0.00    +0.000 C 
ATOM      6  C   UNL     1       1.186   8.263  20.512  0.00  0.00    +0.000 C 
ENDROOT
BRANCH   4   7
ATOM      7  C   UNL     1       3.285   6.607  17.983  0.00  0.00    +0.000 A 
ATOM      8  N   UNL     1       4.181   7.004  17.048  0.00  0.00    +0.000 NA
ATOM      9  C   UNL     1       4.920   6.081  16.414  0.00  0.00    +0.000 A 
ATOM     10  N   UNL     1       4.892   4.758  16.580  0.00  0.00    +0.000 NA
ATOM     11  C   UNL     1       3.976   4.381  17.486  0.00  0.00    +0.000 A 
ATOM     12  S   UNL     1       3.713   2.709  17.807  0.00  0.00    +0.000 S 
ATOM     13  C   UNL     1       2.486   3.077  18.872  0.00  0.00    +0.000 A 
ATOM     14  C   UNL     1       2.266   4.421  19.031  0.00  0.00    +0.000 A 
ATOM     15  C   UNL     1       3.141   5.220  18.226  0.00  0.00    +0.000 A 
ATOM     16  C   UNL     1       1.133   4.653  19.966  0.00  0.00    +0.000 C 
ATOM     17  C   UNL     1       0.953   3.259  20.633  0.00  0.00    +0.000 C 
ATOM     18  C   UNL     1       1.567   2.221  19.652  0.00  0.00    +0.000 C 
ENDBRANCH   4   7
BRANCH   1  25
ATOM     19  C   UNL     1      -0.291  10.583  21.748  0.00  0.00    +0.000 A 
ATOM     20  C   UNL     1      -0.978  11.683  22.297  0.00  0.00    +0.000 A 
ATOM     21  C   UNL     1      -1.126  12.832  21.539  0.00  0.00    +0.000 A 
ATOM     22 CL   UNL     1      -1.972  14.182  22.180  0.00  0.00    +0.000 Cl
ATOM     23  C   UNL     1      -0.593  12.892  20.260  0.00  0.00    +0.000 A 
ATOM     24  C   UNL     1       0.068  11.779  19.725  0.00  0.00    +0.000 A 
ATOM     25  C   UNL     1       0.235  10.573  20.439  0.00  0.00    +0.000 A 
BRANCH  19  27
ATOM     26  O   UNL     1      -0.866   8.511  22.544  0.00  0.00    +0.000 OA
ATOM     27  N   UNL     1      -0.093   9.473  22.660  0.00  0.00    +0.000 N 
ATOM     28  O   UNL     1       0.797   9.581  23.514  0.00  0.00    +0.000 OA
ENDBRANCH  19  27
ENDBRANCH   1  25
TORSDOF 3
ENDMDL
MODEL 4
REMARK VINA RESULT:      -7.3      1.154      1.346
REMARK  Name = 
REMARK  3 active torsions:
REMARK  status: ('A' for Active; 'I' for Inactive)
REMARK    1  A    between atoms: N_2  and  C_4
REMARK    2  A    between atoms: C_10  and  N_11
REMARK    3  A    between atoms: N_14  and  C_15
REMARK                            x       y       z     vdW  Elec       q    Type
REMARK                         _______ _______ _______ _____ _____    ______ ____
ROOT
ATOM      1  N   UNL     1       2.554   6.767  18.473  0.00  0.00    +0.000 N 
ATOM      2  C   UNL     1       1.925   6.195  19.692  0.00  0.00    +0.000 C 
ATOM      3  C   UNL     1       1.887   7.240  20.836  0.00  0.00    +0.000 C 
ATOM      4  N   UNL     1       1.221   8.447  20.326  0.00  0.00    +0.000 N 
ATOM      5  C   UNL     1       1.975   9.065  19.228  0.00  0.00    +0.000 C 
ATOM      6  C   UNL     1       1.969   8.065  18.044  0.00  0.00    +0.000 C 
ENDROOT
BRANCH   4   7
ATOM      7  C   UNL     1       0.605   9.279  21.239  0.00  0.00    +0.000 A 
ATOM      8  N   UNL     1       0.827   9.095  22.564  0.00  0.00    +0.000 NA
ATOM      9  C   UNL     1       0.152   9.841  23.451  0.00  0.00    +0.000 A 
ATOM     10  N   UNL     1      -0.758  10.784  23.201  0.00  0.00    +0.000 NA
ATOM     11  C   UNL     1      -0.988  10.929  21.886  0.00  0.00    +0.000 A 
ATOM     12  S   UNL     1      -2.182  12.041  21.335  0.00  0.00    +0.000 S 
ATOM     13  C   UNL     1      -1.918  11.584  19.755  0.00  0.00    +0.000 A 
ATOM     14  C   UNL     1      -0.940  10.636  19.601  0.00  0.00    +0.000 A 
ATOM     15  C   UNL     1      -0.364  10.233  20.849  0.00  0.00    +0.000 A 
ATOM     16  C   UNL     1      -0.800  10.263  18.168  0.00  0.00    +0.000 C 
ATOM     17  C   UNL     1      -1.578  11.400  17.445  0.00  0.00    +0.000 C 
ATOM     18  C   UNL     1      -2.568  11.988  18.489  0.00  0.00    +0.000 C 
ENDBRANCH   4   7
BRANCH   1  25
ATOM     19  C   UNL     1       3.417   4.685  17.397  0.00  0.00    +0.000 A 
ATOM     20  C   UNL     1       4.424   4.032  16.661  0.00  0.00    +0.000 A 
ATOM     21  C   UNL     1       5.465   4.776  16.133  0.00  0.00    +0.000 A 
ATOM     22 CL   UNL     1       6.713   4.001  15.243  0.00  0.00    +0.000 Cl
ATOM     23  C   UNL     1       5.502   6.149  16.326  0.00  0.00    +0.000 A 
ATOM     24  C   UNL     1       4.501   6.776  17.079  0.00  0.00    +0.000 A 
ATOM     25  C   UNL     1       3.426   6.071  17.659  0.00  0.00    +0.000 A 
BRANCH  19  27
ATOM     26  O   UNL     1       2.559   2.996  18.688  0.00  0.00    +0.000 OA
ATOM     27  N   UNL     1       2.317   3.836  17.809  0.00  0.00    +0.000 N 
ATOM     28  O   UNL     1       1.233   3.975  17.228  0.00  0.00    +0.000 OA
ENDBRANCH  19  27
ENDBRANCH   1  25
TORSDOF 3
ENDMDL
MODEL 5
REMARK VINA RESULT:      -7.3      4.438      8.237
REMARK  Name = 
REMARK  3 active torsions:
REMARK  status: ('A' for Active; 'I' for Inactive)
REMARK    1  A    between atoms: N_2  and  C_4
REMARK    2  A    between atoms: C_10  and  N_11
REMARK    3  A    between atoms: N_14  and  C_15
REMARK                            x       y       z     vdW  Elec       q    Type
REMARK                         _______ _______ _______ _____ _____    ______ ____
ROOT
ATOM      1  N   UNL     1       0.453   9.542  19.532  0.00  0.00    +0.000 N 
ATOM      2  C   UNL     1       0.747   9.476  18.077  0.00  0.00    +0.000 C 
ATOM      3  C   UNL     1       2.185   8.955  17.826  0.00  0.00    +0.000 C 
ATOM      4  N   UNL     1       2.332   7.672  18.527  0.00  0.00    +0.000 N 
ATOM      5  C   UNL     1       2.195   7.825  19.981  0.00  0.00    +0.000 C 
ATOM      6  C   UNL     1       0.741   8.279  20.263  0.00  0.00    +0.000 C 
ENDROOT
BRANCH   4   7
ATOM      7  C   UNL     1       3.274   6.782  18.054  0.00  0.00    +0.000 A 
ATOM      8  N   UNL     1       4.228   7.216  17.194  0.00  0.00    +0.000 NA
ATOM      9  C   UNL     1       5.082   6.329  16.660  0.00  0.00    +0.000 A 
ATOM     10  N   UNL     1       5.123   5.011  16.863  0.00  0.00    +0.000 NA
ATOM     11  C   UNL     1       4.151   4.595  17.691  0.00  0.00    +0.000 A 
ATOM     12  S   UNL     1       3.968   2.919  18.037  0.00  0.00    +0.000 S 
ATOM     13  C   UNL     1       2.625   3.229  18.972  0.00  0.00    +0.000 A 
ATOM     14  C   UNL     1       2.305   4.558  19.068  0.00  0.00    +0.000 A 
ATOM     15  C   UNL     1       3.198   5.394  18.325  0.00  0.00    +0.000 A 
ATOM     16  C   UNL     1       1.075   4.737  19.887  0.00  0.00    +0.000 C 
ATOM     17  C   UNL     1       0.924   3.351  20.576  0.00  0.00    +0.000 C 
ATOM     18  C   UNL     1       1.693   2.332  19.689  0.00  0.00    +0.000 C 
ENDBRANCH   4   7
BRANCH   1  25
ATOM     19  C   UNL     1      -1.302  11.318  19.565  0.00  0.00    +0.000 A 
ATOM     20  C   UNL     1      -1.874  12.442  20.191  0.00  0.00    +0.000 A 
ATOM     21  C   UNL     1      -1.410  12.829  21.437  0.00  0.00    +0.000 A 
ATOM     22 CL   UNL     1      -2.081  14.206  22.215  0.00  0.00    +0.000 Cl
ATOM     23  C   UNL     1      -0.401  12.107  22.056  0.00  0.00    +0.000 A 
ATOM     24  C   UNL     1       0.168  11.004  21.407  0.00  0.00    +0.000 A 
ATOM     25  C   UNL     1      -0.247  10.571  20.129  0.00  0.00    +0.000 A 
BRANCH  19  27
ATOM     26  O   UNL     1      -1.813  11.713  17.365  0.00  0.00    +0.000 OA
ATOM     27  N   UNL     1      -1.932  10.930  18.319  0.00  0.00    +0.000 N 
ATOM     28  O   UNL     1      -2.579   9.874  18.304  0.00  0.00    +0.000 OA
ENDBRANCH  19  27
ENDBRANCH   1  25
TORSDOF 3
ENDMDL
MODEL 6
REMARK VINA RESULT:      -7.3      4.533      8.276
REMARK  Name = 
REMARK  3 active torsions:
REMARK  status: ('A' for Active; 'I' for Inactive)
REMARK    1  A    between atoms: N_2  and  C_4
REMARK    2  A    between atoms: C_10  and  N_11
REMARK    3  A    between atoms: N_14  and  C_15
REMARK                            x       y       z     vdW  Elec       q    Type
REMARK                         _______ _______ _______ _____ _____    ______ ____
ROOT
ATOM      1  N   UNL     1       0.159   9.561  19.185  0.00  0.00    +0.000 N 
ATOM      2  C   UNL     1       0.568   9.299  17.781  0.00  0.00    +0.000 C 
ATOM      3  C   UNL     1       2.070   8.924  17.704  0.00  0.00    +0.000 C 
ATOM      4  N   UNL     1       2.304   7.797  18.617  0.00  0.00    +0.000 N 
ATOM      5  C   UNL     1       2.041   8.163  20.015  0.00  0.00    +0.000 C 
ATOM      6  C   UNL     1       0.529   8.476  20.133  0.00  0.00    +0.000 C 
ENDROOT
BRANCH   4   7
ATOM      7  C   UNL     1       3.373   6.964  18.354  0.00  0.00    +0.000 A 
ATOM      8  N   UNL     1       4.389   7.409  17.576  0.00  0.00    +0.000 NA
ATOM      9  C   UNL     1       5.378   6.566  17.242  0.00  0.00    +0.000 A 
ATOM     10  N   UNL     1       5.505   5.282  17.582  0.00  0.00    +0.000 NA
ATOM     11  C   UNL     1       4.473   4.850  18.325  0.00  0.00    +0.000 A 
ATOM     12  S   UNL     1       4.391   3.202  18.816  0.00  0.00    +0.000 S 
ATOM     13  C   UNL     1       2.916   3.463  19.545  0.00  0.00    +0.000 A 
ATOM     14  C   UNL     1       2.474   4.758  19.466  0.00  0.00    +0.000 A 
ATOM     15  C   UNL     1       3.381   5.606  18.754  0.00  0.00    +0.000 A 
ATOM     16  C   UNL     1       1.138   4.889  20.108  0.00  0.00    +0.000 C 
ATOM     17  C   UNL     1       1.017   3.562  20.911  0.00  0.00    +0.000 C 
ATOM     18  C   UNL     1       1.979   2.548  20.233  0.00  0.00    +0.000 C 
ENDBRANCH   4   7
BRANCH   1  25
ATOM     19  C   UNL     1      -0.673  11.299  20.775  0.00  0.00    +0.000 A 
ATOM     20  C   UNL     1      -1.663  12.232  21.136  0.00  0.00    +0.000 A 
ATOM     21  C   UNL     1      -2.698  12.493  20.255  0.00  0.00    +0.000 A 
ATOM     22 CL   UNL     1      -3.926  13.617  20.679  0.00  0.00    +0.000 Cl
ATOM     23  C   UNL     1      -2.746  11.844  19.030  0.00  0.00    +0.000 A 
ATOM     24  C   UNL     1      -1.763  10.904  18.699  0.00  0.00    +0.000 A 
ATOM     25  C   UNL     1      -0.694  10.580  19.561  0.00  0.00    +0.000 A 
BRANCH  19  27
ATOM     26  O   UNL     1       0.186  10.594  22.779  0.00  0.00    +0.000 OA
ATOM     27  N   UNL     1       0.424  11.181  21.715  0.00  0.00    +0.000 N 
ATOM     28  O   UNL     1       1.501  11.710  21.412  0.00  0.00    +0.000 OA
ENDBRANCH  19  27
ENDBRANCH   1  25
TORSDOF 3
ENDMDL
MODEL 7
REMARK VINA RESULT:      -7.0      3.880      5.322
REMARK  Name = 
REMARK  3 active torsions:
REMARK  status: ('A' for Active; 'I' for Inactive)
REMARK    1  A    between atoms: N_2  and  C_4
REMARK    2  A    between atoms: C_10  and  N_11
REMARK    3  A    between atoms: N_14  and  C_15
REMARK                            x       y       z     vdW  Elec       q    Type
REMARK                         _______ _______ _______ _____ _____    ______ ____
ROOT
ATOM      1  N   UNL     1       0.441  10.779  19.358  0.00  0.00    +0.000 N 
ATOM      2  C   UNL     1      -0.828  11.123  18.665  0.00  0.00    +0.000 C 
ATOM      3  C   UNL     1      -1.727  12.006  19.566  0.00  0.00    +0.000 C 
ATOM      4  N   UNL     1      -0.940  13.173  19.990  0.00  0.00    +0.000 N 
ATOM      5  C   UNL     1       0.214  12.784  20.811  0.00  0.00    +0.000 C 
ATOM      6  C   UNL     1       1.164  11.955  19.911  0.00  0.00    +0.000 C 
ENDROOT
BRANCH   4   7
ATOM      7  C   UNL     1      -1.622  14.323  20.331  0.00  0.00    +0.000 A 
ATOM      8  N   UNL     1      -2.852  14.227  20.890  0.00  0.00    +0.000 NA
ATOM      9  C   UNL     1      -3.552  15.346  21.131  0.00  0.00    +0.000 A 
ATOM     10  N   UNL     1      -3.191  16.606  20.879  0.00  0.00    +0.000 NA
ATOM     11  C   UNL     1      -1.984  16.679  20.295  0.00  0.00    +0.000 A 
ATOM     12  S   UNL     1      -1.348  18.204  19.812  0.00  0.00    +0.000 S 
ATOM     13  C   UNL     1       0.001  17.469  19.166  0.00  0.00    +0.000 A 
ATOM     14  C   UNL     1       0.022  16.107  19.315  0.00  0.00    +0.000 A 
ATOM     15  C   UNL     1      -1.140  15.609  19.989  0.00  0.00    +0.000 A 
ATOM     16  C   UNL     1       1.238  15.534  18.677  0.00  0.00    +0.000 C 
ATOM     17  C   UNL     1       2.126  16.792  18.455  0.00  0.00    +0.000 C 
ATOM     18  C   UNL     1       1.163  18.012  18.430  0.00  0.00    +0.000 C 
ENDBRANCH   4   7
BRANCH   1  25
ATOM     19  C   UNL     1       1.256   8.645  20.368  0.00  0.00    +0.000 A 
ATOM     20  C   UNL     1       1.995   7.453  20.244  0.00  0.00    +0.000 A 
ATOM     21  C   UNL     1       2.514   7.106  19.008  0.00  0.00    +0.000 A 
ATOM     22 CL   UNL     1       3.430   5.664  18.834  0.00  0.00    +0.000 Cl
ATOM     23  C   UNL     1       2.296   7.925  17.910  0.00  0.00    +0.000 A 
ATOM     24  C   UNL     1       1.576   9.118  18.060  0.00  0.00    +0.000 A 
ATOM     25  C   UNL     1       1.039   9.536  19.295  0.00  0.00    +0.000 A 
BRANCH  19  27
ATOM     26  O   UNL     1      -0.508   8.484  21.822  0.00  0.00    +0.000 OA
ATOM     27  N   UNL     1       0.663   8.861  21.673  0.00  0.00    +0.000 N 
ATOM     28  O   UNL     1       1.345   9.442  22.527  0.00  0.00    +0.000 OA
ENDBRANCH  19  27
ENDBRANCH   1  25
TORSDOF 3
ENDMDL
MODEL 8
REMARK VINA RESULT:      -6.9      3.844      5.426
REMARK  Name = 
REMARK  3 active torsions:
REMARK  status: ('A' for Active; 'I' for Inactive)
REMARK    1  A    between atoms: N_2  and  C_4
REMARK    2  A    between atoms: C_10  and  N_11
REMARK    3  A    between atoms: N_14  and  C_15
REMARK                            x       y       z     vdW  Elec       q    Type
REMARK                         _______ _______ _______ _____ _____    ______ ____
ROOT
ATOM      1  N   UNL     1       0.199  11.190  19.791  0.00  0.00    +0.000 N 
ATOM      2  C   UNL     1      -1.016  11.675  19.085  0.00  0.00    +0.000 C 
ATOM      3  C   UNL     1      -1.998  12.350  20.075  0.00  0.00    +0.000 C 
ATOM      4  N   UNL     1      -1.266  13.399  20.798  0.00  0.00    +0.000 N 
ATOM      5  C   UNL     1      -0.176  12.843  21.611  0.00  0.00    +0.000 C 
ATOM      6  C   UNL     1       0.856  12.222  20.637  0.00  0.00    +0.000 C 
ENDROOT
BRANCH   4   7
ATOM      7  C   UNL     1      -1.990  14.453  21.317  0.00  0.00    +0.000 A 
ATOM      8  N   UNL     1      -2.879  14.223  22.314  0.00  0.00    +0.000 NA
ATOM      9  C   UNL     1      -3.651  15.231  22.748  0.00  0.00    +0.000 A 
ATOM     10  N   UNL     1      -3.672  16.491  22.311  0.00  0.00    +0.000 NA
ATOM     11  C   UNL     1      -2.809  16.691  21.302  0.00  0.00    +0.000 A 
ATOM     12  S   UNL     1      -2.721  18.228  20.531  0.00  0.00    +0.000 S 
ATOM     13  C   UNL     1      -1.589  17.654  19.452  0.00  0.00    +0.000 A 
ATOM     14  C   UNL     1      -1.239  16.344  19.652  0.00  0.00    +0.000 A 
ATOM     15  C   UNL     1      -1.941  15.748  20.748  0.00  0.00    +0.000 A 
ATOM     16  C   UNL     1      -0.257  15.908  18.623  0.00  0.00    +0.000 C 
ATOM     17  C   UNL     1       0.211  17.258  18.008  0.00  0.00    +0.000 C 
ATOM     18  C   UNL     1      -0.918  18.287  18.296  0.00  0.00    +0.000 C 
ENDBRANCH   4   7
BRANCH   1  25
ATOM     19  C   UNL     1       1.143   8.972  20.442  0.00  0.00    +0.000 A 
ATOM     20  C   UNL     1       1.897   7.832  20.103  0.00  0.00    +0.000 A 
ATOM     21  C   UNL     1       2.322   7.668  18.796  0.00  0.00    +0.000 A 
ATOM     22 CL   UNL     1       3.255   6.293  18.361  0.00  0.00    +0.000 Cl
ATOM     23  C   UNL     1       1.997   8.616  17.837  0.00  0.00    +0.000 A 
ATOM     24  C   UNL     1       1.264   9.753  18.200  0.00  0.00    +0.000 A 
ATOM     25  C   UNL     1       0.818   9.987  19.518  0.00  0.00    +0.000 A 
BRANCH  19  27
ATOM     26  O   UNL     1       1.446   9.374  22.678  0.00  0.00    +0.000 OA
ATOM     27  N   UNL     1       0.652   8.993  21.806  0.00  0.00    +0.000 N 
ATOM     28  O   UNL     1      -0.500   8.590  22.009  0.00  0.00    +0.000 OA
ENDBRANCH  19  27
ENDBRANCH   1  25
TORSDOF 3
ENDMDL
MODEL 9
REMARK VINA RESULT:      -6.9      3.391      5.211
REMARK  Name = 
REMARK  3 active torsions:
REMARK  status: ('A' for Active; 'I' for Inactive)
REMARK    1  A    between atoms: N_2  and  C_4
REMARK    2  A    between atoms: C_10  and  N_11
REMARK    3  A    between atoms: N_14  and  C_15
REMARK                            x       y       z     vdW  Elec       q    Type
REMARK                         _______ _______ _______ _____ _____    ______ ____
ROOT
ATOM      1  N   UNL     1       0.597  10.927  19.344  0.00  0.00    +0.000 N 
ATOM      2  C   UNL     1      -0.636  11.346  18.627  0.00  0.00    +0.000 C 
ATOM      3  C   UNL     1      -1.491  12.294  19.505  0.00  0.00    +0.000 C 
ATOM      4  N   UNL     1      -0.637  13.411  19.933  0.00  0.00    +0.000 N 
ATOM      5  C   UNL     1       0.475  12.956  20.778  0.00  0.00    +0.000 C 
ATOM      6  C   UNL     1       1.384  12.059  19.900  0.00  0.00    +0.000 C 
ENDROOT
BRANCH   4   7
ATOM      7  C   UNL     1      -1.249  14.605  20.253  0.00  0.00    +0.000 A 
ATOM      8  N   UNL     1      -0.941  15.722  19.549  0.00  0.00    +0.000 NA
ATOM      9  C   UNL     1      -1.463  16.899  19.925  0.00  0.00    +0.000 A 
ATOM     10  N   UNL     1      -2.282  17.139  20.950  0.00  0.00    +0.000 NA
ATOM     11  C   UNL     1      -2.550  16.028  21.655  0.00  0.00    +0.000 A 
ATOM     12  S   UNL     1      -3.529  16.116  23.069  0.00  0.00    +0.000 S 
ATOM     13  C   UNL     1      -3.314  14.488  23.353  0.00  0.00    +0.000 A 
ATOM     14  C   UNL     1      -2.549  13.851  22.411  0.00  0.00    +0.000 A 
ATOM     15  C   UNL     1      -2.088  14.738  21.386  0.00  0.00    +0.000 A 
ATOM     16  C   UNL     1      -2.379  12.416  22.765  0.00  0.00    +0.000 C 
ATOM     17  C   UNL     1      -3.466  12.207  23.858  0.00  0.00    +0.000 C 
ATOM     18  C   UNL     1      -3.767  13.610  24.454  0.00  0.00    +0.000 C 
ENDBRANCH   4   7
BRANCH   1  25
ATOM     19  C   UNL     1       1.256   8.755  20.386  0.00  0.00    +0.000 A 
ATOM     20  C   UNL     1       1.918   7.517  20.283  0.00  0.00    +0.000 A 
ATOM     21  C   UNL     1       2.433   7.126  19.059  0.00  0.00    +0.000 A 
ATOM     22 CL   UNL     1       3.257   5.626  18.913  0.00  0.00    +0.000 Cl
ATOM     23  C   UNL     1       2.285   7.946  17.951  0.00  0.00    +0.000 A 
ATOM     24  C   UNL     1       1.642   9.184  18.079  0.00  0.00    +0.000 A 
ATOM     25  C   UNL     1       1.114   9.648  19.302  0.00  0.00    +0.000 A 
BRANCH  19  27
ATOM     26  O   UNL     1      -0.517   8.658  21.835  0.00  0.00    +0.000 OA
ATOM     27  N   UNL     1       0.658   9.021  21.679  0.00  0.00    +0.000 N 
ATOM     28  O   UNL     1       1.340   9.627  22.516  0.00  0.00    +0.000 OA
ENDBRANCH  19  27
ENDBRANCH   1  25
TORSDOF 3
ENDMDL
