MODEL 1
REMARK VINA RESULT:      -7.8      0.000      0.000
REMARK  Name = 
REMARK  8 active torsions:
REMARK  status: ('A' for Active; 'I' for Inactive)
REMARK    1  A    between atoms: C_1  and  C_2
REMARK    2  A    between atoms: C_2  and  C_3
REMARK    3  A    between atoms: C_3  and  C_4
REMARK    4  A    between atoms: C_6  and  C_7
REMARK    5  A    between atoms: N_9  and  C_10
REMARK    6  A    between atoms: C_13  and  C_14
REMARK    7  A    between atoms: C_14  and  C_16
REMARK    8  A    between atoms: N_25  and  C_26
REMARK                            x       y       z     vdW  Elec       q    Type
REMARK                         _______ _______ _______ _____ _____    ______ ____
ROOT
ATOM      1  C   UNL     1       0.709   9.152  19.839  0.00  0.00    +0.000 A 
ATOM      2  C   UNL     1       1.136   9.365  18.531  0.00  0.00    +0.000 A 
ATOM      3  C   UNL     1       2.063   8.510  17.928  0.00  0.00    +0.000 A 
ATOM      4  C   UNL     1       2.584   7.426  18.635  0.00  0.00    +0.000 A 
ATOM      5  C   UNL     1       2.190   7.224  19.964  0.00  0.00    +0.000 A 
ATOM      6  C   UNL     1       1.256   8.084  20.562  0.00  0.00    +0.000 A 
ENDROOT
BRANCH   1   9
ATOM      7  C   UNL     1       0.036  11.012  21.378  0.00  0.00    +0.000 C 
ATOM      8  O   UNL     1       1.169  11.375  21.670  0.00  0.00    +0.000 OA
ATOM      9  N   UNL     1      -0.238   9.986  20.475  0.00  0.00    +0.000 N 
ATOM     10  H   UNL     1      -1.196   9.868  20.180  0.00  0.00    +0.000 HD
BRANCH   7  13
ATOM     11  C   UNL     1      -2.871  12.342  23.168  0.00  0.00    +0.000 A 
ATOM     12  C   UNL     1      -1.763  11.477  23.149  0.00  0.00    +0.000 A 
ATOM     13  C   UNL     1      -1.139  11.667  21.926  0.00  0.00    +0.000 A 
ATOM     14  N   UNL     1      -1.884  12.658  21.314  0.00  0.00    +0.000 N 
ATOM     15  C   UNL     1      -1.697  13.334  20.050  0.00  0.00    +0.000 C 
ATOM     16  N   UNL     1      -2.949  13.057  22.046  0.00  0.00    +0.000 NA
BRANCH  11  17
ATOM     17  C   UNL     1      -3.884  12.496  24.249  0.00  0.00    +0.000 C 
BRANCH  17  19
ATOM     18  C   UNL     1      -6.353  12.831  23.916  0.00  0.00    +0.000 C 
ATOM     19  C   UNL     1      -4.984  13.488  23.873  0.00  0.00    +0.000 C 
ENDBRANCH  17  19
ENDBRANCH  11  17
ENDBRANCH   7  13
ENDBRANCH   1   9
BRANCH   4  20
ATOM     20  C   UNL     1       3.583   6.565  17.949  0.00  0.00    +0.000 C 
ATOM     21  O   UNL     1       4.459   7.083  17.265  0.00  0.00    +0.000 OA
BRANCH  20  22
ATOM     22  C   UNL     1       3.560   5.086  18.078  0.00  0.00    +0.000 A 
ATOM     23  C   UNL     1       4.542   4.470  18.867  0.00  0.00    +0.000 A 
ATOM     24  C   UNL     1       4.534   3.085  19.030  0.00  0.00    +0.000 A 
ATOM     25  C   UNL     1       3.554   2.329  18.397  0.00  0.00    +0.000 A 
ATOM     26  F   UNL     1       3.535   1.000  18.564  0.00  0.00    +0.000 F 
ATOM     27  C   UNL     1       2.595   2.925  17.587  0.00  0.00    +0.000 A 
ATOM     28  C   UNL     1       2.606   4.308  17.409  0.00  0.00    +0.000 A 
ENDBRANCH  20  22
ENDBRANCH   4  20
TORSDOF 6
ENDMDL
MODEL 2
REMARK VINA RESULT:      -7.7      2.320      2.995
REMARK  Name = 
REMARK  8 active torsions:
REMARK  status: ('A' for Active; 'I' for Inactive)
REMARK    1  A    between atoms: C_1  and  C_2
REMARK    2  A    between atoms: C_2  and  C_3
REMARK    3  A    between atoms: C_3  and  C_4
REMARK    4  A    between atoms: C_6  and  C_7
REMARK    5  A    between atoms: N_9  and  C_10
REMARK    6  A    between atoms: C_13  and  C_14
REMARK    7  A    between atoms: C_14  and  C_16
REMARK    8  A    between atoms: N_25  and  C_26
REMARK                            x       y       z     vdW  Elec       q    Type
REMARK                         _______ _______ _______ _____ _____    ______ ____
ROOT
ATOM      1  C   UNL     1       1.542   7.604  20.323  0.00  0.00    +0.000 A 
ATOM      2  C   UNL     1       1.519   6.375  20.976  0.00  0.00    +0.000 A 
ATOM      3  C   UNL     1       2.294   5.303  20.523  0.00  0.00    +0.000 A 
ATOM      4  C   UNL     1       3.103   5.448  19.395  0.00  0.00    +0.000 A 
ATOM      5  C   UNL     1       3.105   6.668  18.707  0.00  0.00    +0.000 A 
ATOM      6  C   UNL     1       2.328   7.740  19.171  0.00  0.00    +0.000 A 
ENDROOT
BRANCH   1   9
ATOM      7  C   UNL     1       1.017   9.471  21.909  0.00  0.00    +0.000 C 
ATOM      8  O   UNL     1       1.981   9.309  22.647  0.00  0.00    +0.000 OA
ATOM      9  N   UNL     1       0.786   8.713  20.762  0.00  0.00    +0.000 N 
ATOM     10  H   UNL     1       0.058   9.025  20.136  0.00  0.00    +0.000 HD
BRANCH   7  13
ATOM     11  C   UNL     1      -1.675  11.775  22.842  0.00  0.00    +0.000 A 
ATOM     12  C   UNL     1      -1.041  10.533  23.017  0.00  0.00    +0.000 A 
ATOM     13  C   UNL     1       0.040  10.519  22.150  0.00  0.00    +0.000 A 
ATOM     14  N   UNL     1       0.009  11.763  21.548  0.00  0.00    +0.000 N 
ATOM     15  C   UNL     1       0.912  12.374  20.599  0.00  0.00    +0.000 C 
ATOM     16  N   UNL     1      -1.039  12.523  21.940  0.00  0.00    +0.000 NA
BRANCH  11  17
ATOM     17  C   UNL     1      -2.906  12.269  23.519  0.00  0.00    +0.000 C 
BRANCH  17  19
ATOM     18  C   UNL     1      -5.166  13.332  23.228  0.00  0.00    +0.000 C 
ATOM     19  C   UNL     1      -3.984  12.691  22.521  0.00  0.00    +0.000 C 
ENDBRANCH  17  19
ENDBRANCH  11  17
ENDBRANCH   7  13
ENDBRANCH   1   9
BRANCH   4  20
ATOM     20  C   UNL     1       3.887   4.266  18.947  0.00  0.00    +0.000 C 
ATOM     21  O   UNL     1       3.689   3.176  19.473  0.00  0.00    +0.000 OA
BRANCH  20  22
ATOM     22  C   UNL     1       4.899   4.364  17.866  0.00  0.00    +0.000 A 
ATOM     23  C   UNL     1       4.496   4.099  16.549  0.00  0.00    +0.000 A 
ATOM     24  C   UNL     1       5.416   4.206  15.506  0.00  0.00    +0.000 A 
ATOM     25  C   UNL     1       6.729   4.568  15.789  0.00  0.00    +0.000 A 
ATOM     26  F   UNL     1       7.610   4.687  14.788  0.00  0.00    +0.000 F 
ATOM     27  C   UNL     1       7.146   4.802  17.093  0.00  0.00    +0.000 A 
ATOM     28  C   UNL     1       6.235   4.683  18.142  0.00  0.00    +0.000 A 
ENDBRANCH  20  22
ENDBRANCH   4  20
TORSDOF 6
ENDMDL
MODEL 3
REMARK VINA RESULT:      -7.6      1.075      1.286
REMARK  Name = 
REMARK  8 active torsions:
REMARK  status: ('A' for Active; 'I' for Inactive)
REMARK    1  A    between atoms: C_1  and  C_2
REMARK    2  A    between atoms: C_2  and  C_3
REMARK    3  A    between atoms: C_3  and  C_4
REMARK    4  A    between atoms: C_6  and  C_7
REMARK    5  A    between atoms: N_9  and  C_10
REMARK    6  A    between atoms: C_13  and  C_14
REMARK    7  A    between atoms: C_14  and  C_16
REMARK    8  A    between atoms: N_25  and  C_26
REMARK                            x       y       z     vdW  Elec       q    Type
REMARK                         _______ _______ _______ _____ _____    ______ ____
ROOT
ATOM      1  C   UNL     1       0.716   9.661  19.825  0.00  0.00    +0.000 A 
ATOM      2  C   UNL     1       1.087   9.778  18.488  0.00  0.00    +0.000 A 
ATOM      3  C   UNL     1       1.906   8.822  17.881  0.00  0.00    +0.000 A 
ATOM      4  C   UNL     1       2.375   7.731  18.613  0.00  0.00    +0.000 A 
ATOM      5  C   UNL     1       2.040   7.623  19.969  0.00  0.00    +0.000 A 
ATOM      6  C   UNL     1       1.214   8.584  20.570  0.00  0.00    +0.000 A 
ENDROOT
BRANCH   1   9
ATOM      7  C   UNL     1       0.286  11.723  21.182  0.00  0.00    +0.000 C 
ATOM      8  O   UNL     1       1.453  12.084  21.270  0.00  0.00    +0.000 OA
ATOM      9  N   UNL     1      -0.124  10.599  20.466  0.00  0.00    +0.000 N 
ATOM     10  H   UNL     1      -1.114  10.475  20.320  0.00  0.00    +0.000 HD
BRANCH   7  13
ATOM     11  C   UNL     1      -2.429  13.270  23.096  0.00  0.00    +0.000 A 
ATOM     12  C   UNL     1      -1.449  12.267  22.994  0.00  0.00    +0.000 A 
ATOM     13  C   UNL     1      -0.794  12.480  21.792  0.00  0.00    +0.000 A 
ATOM     14  N   UNL     1      -1.391  13.616  21.275  0.00  0.00    +0.000 N 
ATOM     15  C   UNL     1      -1.101  14.372  20.078  0.00  0.00    +0.000 C 
ATOM     16  N   UNL     1      -2.398  14.088  22.044  0.00  0.00    +0.000 NA
BRANCH  11  17
ATOM     17  C   UNL     1      -3.422  13.461  24.189  0.00  0.00    +0.000 C 
BRANCH  17  19
ATOM     18  C   UNL     1      -2.235  15.218  25.542  0.00  0.00    +0.000 C 
ATOM     19  C   UNL     1      -3.455  14.904  24.693  0.00  0.00    +0.000 C 
ENDBRANCH  17  19
ENDBRANCH  11  17
ENDBRANCH   7  13
ENDBRANCH   1   9
BRANCH   4  20
ATOM     20  C   UNL     1       3.261   6.759  17.920  0.00  0.00    +0.000 C 
ATOM     21  O   UNL     1       4.147   7.171  17.179  0.00  0.00    +0.000 OA
BRANCH  20  22
ATOM     22  C   UNL     1       3.115   5.294  18.110  0.00  0.00    +0.000 A 
ATOM     23  C   UNL     1       4.220   4.567  18.575  0.00  0.00    +0.000 A 
ATOM     24  C   UNL     1       4.108   3.194  18.788  0.00  0.00    +0.000 A 
ATOM     25  C   UNL     1       2.899   2.559  18.527  0.00  0.00    +0.000 A 
ATOM     26  F   UNL     1       2.785   1.242  18.746  0.00  0.00    +0.000 F 
ATOM     27  C   UNL     1       1.807   3.263  18.036  0.00  0.00    +0.000 A 
ATOM     28  C   UNL     1       1.916   4.634  17.808  0.00  0.00    +0.000 A 
ENDBRANCH  20  22
ENDBRANCH   4  20
TORSDOF 6
ENDMDL
MODEL 4
REMARK VINA RESULT:      -7.6      0.899      1.300
REMARK  Name = 
REMARK  8 active torsions:
REMARK  status: ('A' for Active; 'I' for Inactive)
REMARK    1  A    between atoms: C_1  and  C_2
REMARK    2  A    between atoms: C_2  and  C_3
REMARK    3  A    between atoms: C_3  and  C_4
REMARK    4  A    between atoms: C_6  and  C_7
REMARK    5  A    between atoms: N_9  and  C_10
REMARK    6  A    between atoms: C_13  and  C_14
REMARK    7  A    between atoms: C_14  and  C_16
REMARK    8  A    between atoms: N_25  and  C_26
REMARK                            x       y       z     vdW  Elec       q    Type
REMARK                         _______ _______ _______ _____ _____    ______ ____
ROOT
ATOM      1  C   UNL     1       0.781   9.319  20.145  0.00  0.00    +0.000 A 
ATOM      2  C   UNL     1       1.349   8.182  20.714  0.00  0.00    +0.000 A 
ATOM      3  C   UNL     1       2.183   7.344  19.969  0.00  0.00    +0.000 A 
ATOM      4  C   UNL     1       2.456   7.631  18.631  0.00  0.00    +0.000 A 
ATOM      5  C   UNL     1       1.860   8.751  18.038  0.00  0.00    +0.000 A 
ATOM      6  C   UNL     1       1.027   9.591  18.793  0.00  0.00    +0.000 A 
ENDROOT
BRANCH   1   9
ATOM      7  C   UNL     1       0.340  11.376  21.508  0.00  0.00    +0.000 C 
ATOM      8  O   UNL     1       1.470  11.841  21.437  0.00  0.00    +0.000 OA
ATOM      9  N   UNL     1      -0.052  10.198  20.872  0.00  0.00    +0.000 N 
ATOM     10  H   UNL     1      -1.038   9.983  20.857  0.00  0.00    +0.000 HD
BRANCH   7  13
ATOM     11  C   UNL     1      -2.542  12.607  23.405  0.00  0.00    +0.000 A 
ATOM     12  C   UNL     1      -1.822  11.519  22.884  0.00  0.00    +0.000 A 
ATOM     13  C   UNL     1      -0.719  12.052  22.237  0.00  0.00    +0.000 A 
ATOM     14  N   UNL     1      -0.826  13.414  22.450  0.00  0.00    +0.000 N 
ATOM     15  C   UNL     1       0.056  14.498  22.079  0.00  0.00    +0.000 C 
ATOM     16  N   UNL     1      -1.938  13.764  23.134  0.00  0.00    +0.000 NA
BRANCH  11  17
ATOM     17  C   UNL     1      -3.825  12.569  24.161  0.00  0.00    +0.000 C 
BRANCH  17  19
ATOM     18  C   UNL     1      -5.292  12.849  22.138  0.00  0.00    +0.000 C 
ATOM     19  C   UNL     1      -4.912  13.414  23.496  0.00  0.00    +0.000 C 
ENDBRANCH  17  19
ENDBRANCH  11  17
ENDBRANCH   7  13
ENDBRANCH   1   9
BRANCH   4  20
ATOM     20  C   UNL     1       3.331   6.690  17.884  0.00  0.00    +0.000 C 
ATOM     21  O   UNL     1       4.160   7.133  17.097  0.00  0.00    +0.000 OA
BRANCH  20  22
ATOM     22  C   UNL     1       3.242   5.221  18.074  0.00  0.00    +0.000 A 
ATOM     23  C   UNL     1       4.346   4.549  18.617  0.00  0.00    +0.000 A 
ATOM     24  C   UNL     1       4.285   3.173  18.832  0.00  0.00    +0.000 A 
ATOM     25  C   UNL     1       3.128   2.480  18.494  0.00  0.00    +0.000 A 
ATOM     26  F   UNL     1       3.061   1.160  18.714  0.00  0.00    +0.000 F 
ATOM     27  C   UNL     1       2.040   3.130  17.926  0.00  0.00    +0.000 A 
ATOM     28  C   UNL     1       2.099   4.503  17.696  0.00  0.00    +0.000 A 
ENDBRANCH  20  22
ENDBRANCH   4  20
TORSDOF 6
ENDMDL
MODEL 5
REMARK VINA RESULT:      -7.6      0.927      1.308
REMARK  Name = 
REMARK  8 active torsions:
REMARK  status: ('A' for Active; 'I' for Inactive)
REMARK    1  A    between atoms: C_1  and  C_2
REMARK    2  A    between atoms: C_2  and  C_3
REMARK    3  A    between atoms: C_3  and  C_4
REMARK    4  A    between atoms: C_6  and  C_7
REMARK    5  A    between atoms: N_9  and  C_10
REMARK    6  A    between atoms: C_13  and  C_14
REMARK    7  A    between atoms: C_14  and  C_16
REMARK    8  A    between atoms: N_25  and  C_26
REMARK                            x       y       z     vdW  Elec       q    Type
REMARK                         _______ _______ _______ _____ _____    ______ ____
ROOT
ATOM      1  C   UNL     1       0.605   9.511  20.215  0.00  0.00    +0.000 A 
ATOM      2  C   UNL     1       0.900   9.733  18.872  0.00  0.00    +0.000 A 
ATOM      3  C   UNL     1       1.724   8.856  18.161  0.00  0.00    +0.000 A 
ATOM      4  C   UNL     1       2.276   7.741  18.793  0.00  0.00    +0.000 A 
ATOM      5  C   UNL     1       2.018   7.529  20.153  0.00  0.00    +0.000 A 
ATOM      6  C   UNL     1       1.186   8.411  20.859  0.00  0.00    +0.000 A 
ENDROOT
BRANCH   1   9
ATOM      7  C   UNL     1       0.128  11.570  21.561  0.00  0.00    +0.000 C 
ATOM      8  O   UNL     1       1.234  12.082  21.439  0.00  0.00    +0.000 OA
ATOM      9  N   UNL     1      -0.237  10.366  20.960  0.00  0.00    +0.000 N 
ATOM     10  H   UNL     1      -1.212  10.109  20.988  0.00  0.00    +0.000 HD
BRANCH   7  13
ATOM     11  C   UNL     1      -2.763  12.720  23.496  0.00  0.00    +0.000 A 
ATOM     12  C   UNL     1      -2.057  11.657  22.906  0.00  0.00    +0.000 A 
ATOM     13  C   UNL     1      -0.930  12.213  22.321  0.00  0.00    +0.000 A 
ATOM     14  N   UNL     1      -1.011  13.557  22.636  0.00  0.00    +0.000 N 
ATOM     15  C   UNL     1      -0.100  14.646  22.365  0.00  0.00    +0.000 C 
ATOM     16  N   UNL     1      -2.129  13.880  23.325  0.00  0.00    +0.000 NA
BRANCH  11  17
ATOM     17  C   UNL     1      -4.061  12.653  24.223  0.00  0.00    +0.000 C 
BRANCH  17  19
ATOM     18  C   UNL     1      -6.565  12.778  24.029  0.00  0.00    +0.000 C 
ATOM     19  C   UNL     1      -5.241  13.050  23.336  0.00  0.00    +0.000 C 
ENDBRANCH  17  19
ENDBRANCH  11  17
ENDBRANCH   7  13
ENDBRANCH   1   9
BRANCH   4  20
ATOM     20  C   UNL     1       3.163   6.858  17.991  0.00  0.00    +0.000 C 
ATOM     21  O   UNL     1       3.929   7.354  17.172  0.00  0.00    +0.000 OA
BRANCH  20  22
ATOM     22  C   UNL     1       3.160   5.384  18.162  0.00  0.00    +0.000 A 
ATOM     23  C   UNL     1       2.036   4.664  17.731  0.00  0.00    +0.000 A 
ATOM     24  C   UNL     1       2.011   3.275  17.854  0.00  0.00    +0.000 A 
ATOM     25  C   UNL     1       3.103   2.620  18.413  0.00  0.00    +0.000 A 
ATOM     26  F   UNL     1       3.088   1.285  18.517  0.00  0.00    +0.000 F 
ATOM     27  C   UNL     1       4.208   3.325  18.872  0.00  0.00    +0.000 A 
ATOM     28  C   UNL     1       4.233   4.715  18.765  0.00  0.00    +0.000 A 
ENDBRANCH  20  22
ENDBRANCH   4  20
TORSDOF 6
ENDMDL
MODEL 6
REMARK VINA RESULT:      -7.6      2.374      2.874
REMARK  Name = 
REMARK  8 active torsions:
REMARK  status: ('A' for Active; 'I' for Inactive)
REMARK    1  A    between atoms: C_1  and  C_2
REMARK    2  A    between atoms: C_2  and  C_3
REMARK    3  A    between atoms: C_3  and  C_4
REMARK    4  A    between atoms: C_6  and  C_7
REMARK    5  A    between atoms: N_9  and  C_10
REMARK    6  A    between atoms: C_13  and  C_14
REMARK    7  A    between atoms: C_14  and  C_16
REMARK    8  A    between atoms: N_25  and  C_26
REMARK                            x       y       z     vdW  Elec       q    Type
REMARK                         _______ _______ _______ _____ _____    ______ ____
ROOT
ATOM      1  C   UNL     1       1.533   7.787  20.206  0.00  0.00    +0.000 A 
ATOM      2  C   UNL     1       1.574   6.566  20.874  0.00  0.00    +0.000 A 
ATOM      3  C   UNL     1       2.340   5.504  20.387  0.00  0.00    +0.000 A 
ATOM      4  C   UNL     1       3.076   5.648  19.211  0.00  0.00    +0.000 A 
ATOM      5  C   UNL     1       3.012   6.859  18.509  0.00  0.00    +0.000 A 
ATOM      6  C   UNL     1       2.244   7.923  19.007  0.00  0.00    +0.000 A 
ENDROOT
BRANCH   1   9
ATOM      7  C   UNL     1       0.990   9.580  21.871  0.00  0.00    +0.000 C 
ATOM      8  O   UNL     1       1.924   9.359  22.631  0.00  0.00    +0.000 OA
ATOM      9  N   UNL     1       0.784   8.888  20.678  0.00  0.00    +0.000 N 
ATOM     10  H   UNL     1       0.084   9.247  20.045  0.00  0.00    +0.000 HD
BRANCH   7  13
ATOM     11  C   UNL     1      -1.682  11.891  22.840  0.00  0.00    +0.000 A 
ATOM     12  C   UNL     1      -1.072  10.633  22.979  0.00  0.00    +0.000 A 
ATOM     13  C   UNL     1       0.025  10.634  22.133  0.00  0.00    +0.000 A 
ATOM     14  N   UNL     1       0.027  11.901  21.579  0.00  0.00    +0.000 N 
ATOM     15  C   UNL     1       0.958  12.532  20.672  0.00  0.00    +0.000 C 
ATOM     16  N   UNL     1      -1.016  12.662  21.981  0.00  0.00    +0.000 NA
BRANCH  11  17
ATOM     17  C   UNL     1      -2.918  12.380  23.513  0.00  0.00    +0.000 C 
BRANCH  17  19
ATOM     18  C   UNL     1      -4.646  12.748  21.724  0.00  0.00    +0.000 C 
ATOM     19  C   UNL     1      -3.663  13.415  22.670  0.00  0.00    +0.000 C 
ENDBRANCH  17  19
ENDBRANCH  11  17
ENDBRANCH   7  13
ENDBRANCH   1   9
BRANCH   4  20
ATOM     20  C   UNL     1       3.853   4.476  18.730  0.00  0.00    +0.000 C 
ATOM     21  O   UNL     1       3.664   3.376  19.237  0.00  0.00    +0.000 OA
BRANCH  20  22
ATOM     22  C   UNL     1       4.849   4.594  17.636  0.00  0.00    +0.000 A 
ATOM     23  C   UNL     1       6.130   5.074  17.947  0.00  0.00    +0.000 A 
ATOM     24  C   UNL     1       7.097   5.174  16.948  0.00  0.00    +0.000 A 
ATOM     25  C   UNL     1       6.775   4.801  15.648  0.00  0.00    +0.000 A 
ATOM     26  F   UNL     1       7.707   4.881  14.689  0.00  0.00    +0.000 F 
ATOM     27  C   UNL     1       5.501   4.354  15.321  0.00  0.00    +0.000 A 
ATOM     28  C   UNL     1       4.525   4.265  16.313  0.00  0.00    +0.000 A 
ENDBRANCH  20  22
ENDBRANCH   4  20
TORSDOF 6
ENDMDL
MODEL 7
REMARK VINA RESULT:      -7.5      2.347      2.852
REMARK  Name = 
REMARK  8 active torsions:
REMARK  status: ('A' for Active; 'I' for Inactive)
REMARK    1  A    between atoms: C_1  and  C_2
REMARK    2  A    between atoms: C_2  and  C_3
REMARK    3  A    between atoms: C_3  and  C_4
REMARK    4  A    between atoms: C_6  and  C_7
REMARK    5  A    between atoms: N_9  and  C_10
REMARK    6  A    between atoms: C_13  and  C_14
REMARK    7  A    between atoms: C_14  and  C_16
REMARK    8  A    between atoms: N_25  and  C_26
REMARK                            x       y       z     vdW  Elec       q    Type
REMARK                         _______ _______ _______ _____ _____    ______ ____
ROOT
ATOM      1  C   UNL     1       1.560   7.571  20.227  0.00  0.00    +0.000 A 
ATOM      2  C   UNL     1       2.406   7.626  19.122  0.00  0.00    +0.000 A 
ATOM      3  C   UNL     1       3.174   6.520  18.747  0.00  0.00    +0.000 A 
ATOM      4  C   UNL     1       3.110   5.337  19.483  0.00  0.00    +0.000 A 
ATOM      5  C   UNL     1       2.292   5.282  20.619  0.00  0.00    +0.000 A 
ATOM      6  C   UNL     1       1.521   6.395  20.987  0.00  0.00    +0.000 A 
ENDROOT
BRANCH   1   9
ATOM      7  C   UNL     1       0.920   9.433  21.777  0.00  0.00    +0.000 C 
ATOM      8  O   UNL     1       1.855   9.300  22.556  0.00  0.00    +0.000 OA
ATOM      9  N   UNL     1       0.758   8.663  20.626  0.00  0.00    +0.000 N 
ATOM     10  H   UNL     1       0.050   8.953  19.967  0.00  0.00    +0.000 HD
BRANCH   7  13
ATOM     11  C   UNL     1      -1.751  11.765  22.702  0.00  0.00    +0.000 A 
ATOM     12  C   UNL     1      -0.962  10.648  23.030  0.00  0.00    +0.000 A 
ATOM     13  C   UNL     1      -0.093  10.457  21.968  0.00  0.00    +0.000 A 
ATOM     14  N   UNL     1      -0.386  11.492  21.098  0.00  0.00    +0.000 N 
ATOM     15  C   UNL     1       0.225  11.870  19.844  0.00  0.00    +0.000 C 
ATOM     16  N   UNL     1      -1.404  12.275  21.520  0.00  0.00    +0.000 NA
BRANCH  11  17
ATOM     17  C   UNL     1      -2.858  12.360  23.500  0.00  0.00    +0.000 C 
BRANCH  17  19
ATOM     18  C   UNL     1      -1.628  14.443  24.187  0.00  0.00    +0.000 C 
ATOM     19  C   UNL     1      -2.842  13.888  23.461  0.00  0.00    +0.000 C 
ENDBRANCH  17  19
ENDBRANCH  11  17
ENDBRANCH   7  13
ENDBRANCH   1   9
BRANCH   4  20
ATOM     20  C   UNL     1       3.967   4.202  19.049  0.00  0.00    +0.000 C 
ATOM     21  O   UNL     1       3.891   3.129  19.637  0.00  0.00    +0.000 OA
BRANCH  20  22
ATOM     22  C   UNL     1       4.908   4.325  17.909  0.00  0.00    +0.000 A 
ATOM     23  C   UNL     1       6.246   4.648  18.178  0.00  0.00    +0.000 A 
ATOM     24  C   UNL     1       7.162   4.747  17.131  0.00  0.00    +0.000 A 
ATOM     25  C   UNL     1       6.732   4.530  15.827  0.00  0.00    +0.000 A 
ATOM     26  F   UNL     1       7.614   4.608  14.821  0.00  0.00    +0.000 F 
ATOM     27  C   UNL     1       5.403   4.241  15.544  0.00  0.00    +0.000 A 
ATOM     28  C   UNL     1       4.480   4.155  16.585  0.00  0.00    +0.000 A 
ENDBRANCH  20  22
ENDBRANCH   4  20
TORSDOF 6
ENDMDL
MODEL 8
REMARK VINA RESULT:      -7.5      5.025     10.770
REMARK  Name = 
REMARK  8 active torsions:
REMARK  status: ('A' for Active; 'I' for Inactive)
REMARK    1  A    between atoms: C_1  and  C_2
REMARK    2  A    between atoms: C_2  and  C_3
REMARK    3  A    between atoms: C_3  and  C_4
REMARK    4  A    between atoms: C_6  and  C_7
REMARK    5  A    between atoms: N_9  and  C_10
REMARK    6  A    between atoms: C_13  and  C_14
REMARK    7  A    between atoms: C_14  and  C_16
REMARK    8  A    between atoms: N_25  and  C_26
REMARK                            x       y       z     vdW  Elec       q    Type
REMARK                         _______ _______ _______ _____ _____    ______ ____
ROOT
ATOM      1  C   UNL     1       2.951   7.132  18.259  0.00  0.00    +0.000 A 
ATOM      2  C   UNL     1       2.597   6.770  19.556  0.00  0.00    +0.000 A 
ATOM      3  C   UNL     1       1.762   7.582  20.328  0.00  0.00    +0.000 A 
ATOM      4  C   UNL     1       1.272   8.781  19.810  0.00  0.00    +0.000 A 
ATOM      5  C   UNL     1       1.652   9.174  18.521  0.00  0.00    +0.000 A 
ATOM      6  C   UNL     1       2.487   8.352  17.750  0.00  0.00    +0.000 A 
ENDROOT
BRANCH   1   9
ATOM      7  C   UNL     1       5.102   6.595  17.090  0.00  0.00    +0.000 C 
ATOM      8  O   UNL     1       5.743   7.542  17.526  0.00  0.00    +0.000 OA
ATOM      9  N   UNL     1       3.779   6.329  17.444  0.00  0.00    +0.000 N 
ATOM     10  H   UNL     1       3.390   5.442  17.160  0.00  0.00    +0.000 HD
BRANCH   7  13
ATOM     11  C   UNL     1       6.235   4.304  14.465  0.00  0.00    +0.000 A 
ATOM     12  C   UNL     1       5.381   5.347  14.865  0.00  0.00    +0.000 A 
ATOM     13  C   UNL     1       5.694   5.624  16.186  0.00  0.00    +0.000 A 
ATOM     14  N   UNL     1       6.738   4.765  16.476  0.00  0.00    +0.000 N 
ATOM     15  C   UNL     1       7.537   4.623  17.672  0.00  0.00    +0.000 C 
ATOM     16  N   UNL     1       7.058   3.945  15.450  0.00  0.00    +0.000 NA
BRANCH  11  17
ATOM     17  C   UNL     1       6.276   3.621  13.142  0.00  0.00    +0.000 C 
BRANCH  17  19
ATOM     18  C   UNL     1       4.814   2.648  11.342  0.00  0.00    +0.000 C 
ATOM     19  C   UNL     1       4.950   3.740  12.390  0.00  0.00    +0.000 C 
ENDBRANCH  17  19
ENDBRANCH  11  17
ENDBRANCH   7  13
ENDBRANCH   1   9
BRANCH   4  20
ATOM     20  C   UNL     1       0.406   9.613  20.687  0.00  0.00    +0.000 C 
ATOM     21  O   UNL     1      -0.003   9.151  21.746  0.00  0.00    +0.000 OA
BRANCH  20  22
ATOM     22  C   UNL     1       0.031  11.002  20.323  0.00  0.00    +0.000 A 
ATOM     23  C   UNL     1       0.857  12.052  20.751  0.00  0.00    +0.000 A 
ATOM     24  C   UNL     1       0.547  13.366  20.405  0.00  0.00    +0.000 A 
ATOM     25  C   UNL     1      -0.588  13.621  19.644  0.00  0.00    +0.000 A 
ATOM     26  F   UNL     1      -0.880  14.882  19.296  0.00  0.00    +0.000 F 
ATOM     27  C   UNL     1      -1.431  12.594  19.240  0.00  0.00    +0.000 A 
ATOM     28  C   UNL     1      -1.134  11.278  19.595  0.00  0.00    +0.000 A 
ENDBRANCH  20  22
ENDBRANCH   4  20
TORSDOF 6
ENDMDL
MODEL 9
REMARK VINA RESULT:      -7.4      0.730      1.340
REMARK  Name = 
REMARK  8 active torsions:
REMARK  status: ('A' for Active; 'I' for Inactive)
REMARK    1  A    between atoms: C_1  and  C_2
REMARK    2  A    between atoms: C_2  and  C_3
REMARK    3  A    between atoms: C_3  and  C_4
REMARK    4  A    between atoms: C_6  and  C_7
REMARK    5  A    between atoms: N_9  and  C_10
REMARK    6  A    between atoms: C_13  and  C_14
REMARK    7  A    between atoms: C_14  and  C_16
REMARK    8  A    between atoms: N_25  and  C_26
REMARK                            x       y       z     vdW  Elec       q    Type
REMARK                         _______ _______ _______ _____ _____    ______ ____
ROOT
ATOM      1  C   UNL     1       0.799   9.402  19.541  0.00  0.00    +0.000 A 
ATOM      2  C   UNL     1       1.299   9.526  18.247  0.00  0.00    +0.000 A 
ATOM      3  C   UNL     1       2.212   8.599  17.735  0.00  0.00    +0.000 A 
ATOM      4  C   UNL     1       2.646   7.531  18.521  0.00  0.00    +0.000 A 
ATOM      5  C   UNL     1       2.179   7.417  19.837  0.00  0.00    +0.000 A 
ATOM      6  C   UNL     1       1.260   8.349  20.342  0.00  0.00    +0.000 A 
ENDROOT
BRANCH   1   9
ATOM      7  C   UNL     1       0.142  11.361  20.956  0.00  0.00    +0.000 C 
ATOM      8  O   UNL     1       1.274  11.681  21.295  0.00  0.00    +0.000 OA
ATOM      9  N   UNL     1      -0.136  10.309  20.085  0.00  0.00    +0.000 N 
ATOM     10  H   UNL     1      -1.082  10.225  19.742  0.00  0.00    +0.000 HD
BRANCH   7  13
ATOM     11  C   UNL     1      -2.882  12.819  22.425  0.00  0.00    +0.000 A 
ATOM     12  C   UNL     1      -1.925  11.790  22.418  0.00  0.00    +0.000 A 
ATOM     13  C   UNL     1      -1.026  12.098  21.409  0.00  0.00    +0.000 A 
ATOM     14  N   UNL     1      -1.476  13.306  20.909  0.00  0.00    +0.000 N 
ATOM     15  C   UNL     1      -0.924  14.169  19.890  0.00  0.00    +0.000 C 
ATOM     16  N   UNL     1      -2.612  13.740  21.500  0.00  0.00    +0.000 NA
BRANCH  11  17
ATOM     17  C   UNL     1      -4.079  12.940  23.303  0.00  0.00    +0.000 C 
BRANCH  17  19
ATOM     18  C   UNL     1      -3.087  14.629  24.880  0.00  0.00    +0.000 C 
ATOM     19  C   UNL     1      -3.702  13.246  24.753  0.00  0.00    +0.000 C 
ENDBRANCH  17  19
ENDBRANCH  11  17
ENDBRANCH   7  13
ENDBRANCH   1   9
BRANCH   4  20
ATOM     20  C   UNL     1       3.634   6.591  17.930  0.00  0.00    +0.000 C 
ATOM     21  O   UNL     1       4.546   7.030  17.237  0.00  0.00    +0.000 OA
BRANCH  20  22
ATOM     22  C   UNL     1       3.559   5.128  18.166  0.00  0.00    +0.000 A 
ATOM     23  C   UNL     1       2.550   4.398  17.521  0.00  0.00    +0.000 A 
ATOM     24  C   UNL     1       2.467   3.018  17.702  0.00  0.00    +0.000 A 
ATOM     25  C   UNL     1       3.386   2.382  18.528  0.00  0.00    +0.000 A 
ATOM     26  F   UNL     1       3.318   1.053  18.690  0.00  0.00    +0.000 F 
ATOM     27  C   UNL     1       4.371   3.098  19.196  0.00  0.00    +0.000 A 
ATOM     28  C   UNL     1       4.451   4.480  19.032  0.00  0.00    +0.000 A 
ENDBRANCH  20  22
ENDBRANCH   4  20
TORSDOF 6
ENDMDL
