MODEL 1
REMARK VINA RESULT:      -6.5      0.000      0.000
REMARK  Name = 
REMARK  6 active torsions:
REMARK  status: ('A' for Active; 'I' for Inactive)
REMARK    1  A    between atoms: C_1  and  S_2
REMARK    2  A    between atoms: S_2  and  C_5
REMARK    3  A    between atoms: C_5  and  C_6
REMARK    4  A    between atoms: C_8  and  C_9
REMARK    5  A    between atoms: C_9  and  N_10
REMARK    6  A    between atoms: C_15  and  C_16
REMARK                            x       y       z     vdW  Elec       q    Type
REMARK                         _______ _______ _______ _____ _____    ______ ____
ROOT
ATOM      1  C   UNL     1       3.248   5.016  19.069  0.00  0.00    +0.000 A 
ATOM      2  N   UNL     1       4.031   5.144  18.018  0.00  0.00    +0.000 NA
ATOM      3  C   UNL     1       3.940   6.431  17.502  0.00  0.00    +0.000 A 
ATOM      4  C   UNL     1       3.139   7.283  18.243  0.00  0.00    +0.000 A 
ATOM      5  S   UNL     1       2.451   6.458  19.570  0.00  0.00    +0.000 S 
ENDROOT
BRANCH   1   6
ATOM      6  C   UNL     1       3.079   3.765  19.848  0.00  0.00    +0.000 C 
BRANCH   6   8
ATOM      7  C   UNL     1       3.428   1.676  18.065  0.00  0.00    +0.000 C 
ATOM      8  S   UNL     1       2.146   2.633  18.831  0.00  0.00    +0.000 S 
ATOM      9  O   UNL     1       1.484   3.360  17.766  0.00  0.00    +0.000 OA
ATOM     10  O   UNL     1       1.410   1.720  19.688  0.00  0.00    +0.000 OA
ENDBRANCH   6   8
ENDBRANCH   1   6
BRANCH   3  11
ATOM     11  C   UNL     1       4.736   6.814  16.291  0.00  0.00    +0.000 C 
BRANCH  11  12
ATOM     12  N   UNL     1       6.151   6.494  16.382  0.00  0.00    +0.000 NA
ATOM     13  C   UNL     1       6.710   5.471  15.500  0.00  0.00    +0.000 C 
ATOM     14  C   UNL     1       7.215   4.199  16.203  0.00  0.00    +0.000 C 
ATOM     15  O   UNL     1       8.031   4.509  17.335  0.00  0.00    +0.000 OA
ATOM     16  C   UNL     1       7.262   5.263  18.284  0.00  0.00    +0.000 C 
ATOM     17  C   UNL     1       6.790   6.613  17.696  0.00  0.00    +0.000 C 
BRANCH  17  18
ATOM     18  C   UNL     1       7.960   7.560  17.470  0.00  0.00    +0.000 C 
ATOM     19  C   UNL     1       8.627   8.314  18.593  0.00  0.00    +0.000 C 
ATOM     20  C   UNL     1       7.757   9.050  17.617  0.00  0.00    +0.000 C 
ENDBRANCH  17  18
ENDBRANCH  11  12
ENDBRANCH   3  11
TORSDOF 5
ENDMDL
MODEL 2
REMARK VINA RESULT:      -6.4      1.298      1.425
REMARK  Name = 
REMARK  6 active torsions:
REMARK  status: ('A' for Active; 'I' for Inactive)
REMARK    1  A    between atoms: C_1  and  S_2
REMARK    2  A    between atoms: S_2  and  C_5
REMARK    3  A    between atoms: C_5  and  C_6
REMARK    4  A    between atoms: C_8  and  C_9
REMARK    5  A    between atoms: C_9  and  N_10
REMARK    6  A    between atoms: C_15  and  C_16
REMARK                            x       y       z     vdW  Elec       q    Type
REMARK                         _______ _______ _______ _____ _____    ______ ____
ROOT
ATOM      1  C   UNL     1       2.891   4.562  18.386  0.00  0.00    +0.000 A 
ATOM      2  N   UNL     1       3.687   4.945  17.409  0.00  0.00    +0.000 NA
ATOM      3  C   UNL     1       3.854   6.324  17.437  0.00  0.00    +0.000 A 
ATOM      4  C   UNL     1       3.237   6.949  18.507  0.00  0.00    +0.000 A 
ATOM      5  S   UNL     1       2.395   5.811  19.462  0.00  0.00    +0.000 S 
ENDROOT
BRANCH   1   6
ATOM      6  C   UNL     1       2.475   3.160  18.633  0.00  0.00    +0.000 C 
BRANCH   6   8
ATOM      7  C   UNL     1       3.116   2.312  21.190  0.00  0.00    +0.000 C 
ATOM      8  S   UNL     1       3.789   2.374  19.550  0.00  0.00    +0.000 S 
ATOM      9  O   UNL     1       4.940   3.253  19.611  0.00  0.00    +0.000 OA
ATOM     10  O   UNL     1       3.919   0.996  19.108  0.00  0.00    +0.000 OA
ENDBRANCH   6   8
ENDBRANCH   1   6
BRANCH   3  11
ATOM     11  C   UNL     1       4.714   6.999  16.410  0.00  0.00    +0.000 C 
BRANCH  11  12
ATOM     12  N   UNL     1       6.123   6.649  16.489  0.00  0.00    +0.000 NA
ATOM     13  C   UNL     1       6.648   5.599  15.618  0.00  0.00    +0.000 C 
ATOM     14  C   UNL     1       7.134   4.328  16.337  0.00  0.00    +0.000 C 
ATOM     15  O   UNL     1       7.971   4.639  17.453  0.00  0.00    +0.000 OA
ATOM     16  C   UNL     1       7.230   5.427  18.398  0.00  0.00    +0.000 C 
ATOM     17  C   UNL     1       6.780   6.776  17.793  0.00  0.00    +0.000 C 
BRANCH  17  18
ATOM     18  C   UNL     1       7.968   7.693  17.536  0.00  0.00    +0.000 C 
ATOM     19  C   UNL     1       8.654   8.465  18.636  0.00  0.00    +0.000 C 
ATOM     20  C   UNL     1       7.795   9.190  17.642  0.00  0.00    +0.000 C 
ENDBRANCH  17  18
ENDBRANCH  11  12
ENDBRANCH   3  11
TORSDOF 5
ENDMDL
MODEL 3
REMARK VINA RESULT:      -6.4      1.567      2.397
REMARK  Name = 
REMARK  6 active torsions:
REMARK  status: ('A' for Active; 'I' for Inactive)
REMARK    1  A    between atoms: C_1  and  S_2
REMARK    2  A    between atoms: S_2  and  C_5
REMARK    3  A    between atoms: C_5  and  C_6
REMARK    4  A    between atoms: C_8  and  C_9
REMARK    5  A    between atoms: C_9  and  N_10
REMARK    6  A    between atoms: C_15  and  C_16
REMARK                            x       y       z     vdW  Elec       q    Type
REMARK                         _______ _______ _______ _____ _____    ______ ____
ROOT
ATOM      1  C   UNL     1       3.443   3.157  19.265  0.00  0.00    +0.000 A 
ATOM      2  N   UNL     1       3.728   4.419  19.016  0.00  0.00    +0.000 NA
ATOM      3  C   UNL     1       3.916   4.612  17.653  0.00  0.00    +0.000 A 
ATOM      4  C   UNL     1       3.681   3.485  16.884  0.00  0.00    +0.000 A 
ATOM      5  S   UNL     1       3.269   2.157  17.874  0.00  0.00    +0.000 S 
ENDROOT
BRANCH   1   6
ATOM      6  C   UNL     1       3.209   2.596  20.618  0.00  0.00    +0.000 C 
BRANCH   6   8
ATOM      7  C   UNL     1       1.737   4.844  21.284  0.00  0.00    +0.000 C 
ATOM      8  S   UNL     1       1.567   3.087  21.115  0.00  0.00    +0.000 S 
ATOM      9  O   UNL     1       1.280   2.573  22.441  0.00  0.00    +0.000 OA
ATOM     10  O   UNL     1       0.650   2.867  20.011  0.00  0.00    +0.000 OA
ENDBRANCH   6   8
ENDBRANCH   1   6
BRANCH   3  11
ATOM     11  C   UNL     1       4.263   5.972  17.127  0.00  0.00    +0.000 C 
BRANCH  11  12
ATOM     12  N   UNL     1       5.578   6.057  16.514  0.00  0.00    +0.000 NA
ATOM     13  C   UNL     1       5.751   5.619  15.129  0.00  0.00    +0.000 C 
ATOM     14  C   UNL     1       6.642   4.380  14.936  0.00  0.00    +0.000 C 
ATOM     15  O   UNL     1       7.861   4.484  15.676  0.00  0.00    +0.000 OA
ATOM     16  C   UNL     1       7.559   4.599  17.076  0.00  0.00    +0.000 C 
ATOM     17  C   UNL     1       6.744   5.875  17.384  0.00  0.00    +0.000 C 
BRANCH  17  18
ATOM     18  C   UNL     1       7.578   7.131  17.174  0.00  0.00    +0.000 C 
ATOM     19  C   UNL     1       8.302   7.826  18.301  0.00  0.00    +0.000 C 
ATOM     20  C   UNL     1       7.080   8.458  17.700  0.00  0.00    +0.000 C 
ENDBRANCH  17  18
ENDBRANCH  11  12
ENDBRANCH   3  11
TORSDOF 5
ENDMDL
MODEL 4
REMARK VINA RESULT:      -6.1      4.318      6.691
REMARK  Name = 
REMARK  6 active torsions:
REMARK  status: ('A' for Active; 'I' for Inactive)
REMARK    1  A    between atoms: C_1  and  S_2
REMARK    2  A    between atoms: S_2  and  C_5
REMARK    3  A    between atoms: C_5  and  C_6
REMARK    4  A    between atoms: C_8  and  C_9
REMARK    5  A    between atoms: C_9  and  N_10
REMARK    6  A    between atoms: C_15  and  C_16
REMARK                            x       y       z     vdW  Elec       q    Type
REMARK                         _______ _______ _______ _____ _____    ______ ____
ROOT
ATOM      1  C   UNL     1       0.803   9.664  19.685  0.00  0.00    +0.000 A 
ATOM      2  N   UNL     1       1.378   9.086  18.650  0.00  0.00    +0.000 NA
ATOM      3  C   UNL     1       2.052   7.940  19.051  0.00  0.00    +0.000 A 
ATOM      4  C   UNL     1       1.895   7.628  20.390  0.00  0.00    +0.000 A 
ATOM      5  S   UNL     1       0.937   8.805  21.171  0.00  0.00    +0.000 S 
ENDROOT
BRANCH   1   6
ATOM      6  C   UNL     1       0.023  10.924  19.622  0.00  0.00    +0.000 C 
BRANCH   6   8
ATOM      7  C   UNL     1       0.148  13.689  19.553  0.00  0.00    +0.000 C 
ATOM      8  S   UNL     1       1.181  12.270  19.808  0.00  0.00    +0.000 S 
ATOM      9  O   UNL     1       2.133  12.253  18.715  0.00  0.00    +0.000 OA
ATOM     10  O   UNL     1       1.625  12.327  21.190  0.00  0.00    +0.000 OA
ENDBRANCH   6   8
ENDBRANCH   1   6
BRANCH   3  11
ATOM     11  C   UNL     1       2.797   7.115  18.044  0.00  0.00    +0.000 C 
BRANCH  11  12
ATOM     12  N   UNL     1       3.286   5.846  18.558  0.00  0.00    +0.000 NA
ATOM     13  C   UNL     1       4.728   5.610  18.626  0.00  0.00    +0.000 C 
ATOM     14  C   UNL     1       5.260   4.505  17.697  0.00  0.00    +0.000 C 
ATOM     15  O   UNL     1       4.466   3.319  17.776  0.00  0.00    +0.000 OA
ATOM     16  C   UNL     1       3.119   3.621  17.380  0.00  0.00    +0.000 C 
ATOM     17  C   UNL     1       2.462   4.656  18.320  0.00  0.00    +0.000 C 
BRANCH  17  18
ATOM     18  C   UNL     1       2.221   4.074  19.706  0.00  0.00    +0.000 C 
ATOM     19  C   UNL     1       1.555   2.739  19.924  0.00  0.00    +0.000 C 
ATOM     20  C   UNL     1       0.814   4.002  20.253  0.00  0.00    +0.000 C 
ENDBRANCH  17  18
ENDBRANCH  11  12
ENDBRANCH   3  11
TORSDOF 5
ENDMDL
MODEL 5
REMARK VINA RESULT:      -6.0      3.950      6.402
REMARK  Name = 
REMARK  6 active torsions:
REMARK  status: ('A' for Active; 'I' for Inactive)
REMARK    1  A    between atoms: C_1  and  S_2
REMARK    2  A    between atoms: S_2  and  C_5
REMARK    3  A    between atoms: C_5  and  C_6
REMARK    4  A    between atoms: C_8  and  C_9
REMARK    5  A    between atoms: C_9  and  N_10
REMARK    6  A    between atoms: C_15  and  C_16
REMARK                            x       y       z     vdW  Elec       q    Type
REMARK                         _______ _______ _______ _____ _____    ______ ____
ROOT
ATOM      1  C   UNL     1       1.281   9.701  19.200  0.00  0.00    +0.000 A 
ATOM      2  N   UNL     1       1.892   8.909  18.342  0.00  0.00    +0.000 NA
ATOM      3  C   UNL     1       2.253   7.718  18.958  0.00  0.00    +0.000 A 
ATOM      4  C   UNL     1       1.823   7.604  20.268  0.00  0.00    +0.000 A 
ATOM      5  S   UNL     1       1.001   9.018  20.755  0.00  0.00    +0.000 S 
ENDROOT
BRANCH   1   6
ATOM      6  C   UNL     1       0.786  11.063  18.885  0.00  0.00    +0.000 C 
BRANCH   6   8
ATOM      7  C   UNL     1      -1.494  12.379  18.026  0.00  0.00    +0.000 C 
ATOM      8  S   UNL     1      -0.990  11.034  19.066  0.00  0.00    +0.000 S 
ATOM      9  O   UNL     1      -1.352  11.403  20.421  0.00  0.00    +0.000 OA
ATOM     10  O   UNL     1      -1.510   9.824  18.454  0.00  0.00    +0.000 OA
ENDBRANCH   6   8
ENDBRANCH   1   6
BRANCH   3  11
ATOM     11  C   UNL     1       2.975   6.658  18.181  0.00  0.00    +0.000 C 
BRANCH  11  12
ATOM     12  N   UNL     1       3.492   5.570  18.994  0.00  0.00    +0.000 NA
ATOM     13  C   UNL     1       4.906   5.567  19.367  0.00  0.00    +0.000 C 
ATOM     14  C   UNL     1       5.744   4.425  18.765  0.00  0.00    +0.000 C 
ATOM     15  O   UNL     1       5.095   3.160  18.909  0.00  0.00    +0.000 OA
ATOM     16  C   UNL     1       3.833   3.191  18.224  0.00  0.00    +0.000 C 
ATOM     17  C   UNL     1       2.880   4.248  18.827  0.00  0.00    +0.000 C 
BRANCH  17  18
ATOM     18  C   UNL     1       2.428   3.856  20.227  0.00  0.00    +0.000 C 
ATOM     19  C   UNL     1       1.750   2.542  20.525  0.00  0.00    +0.000 C 
ATOM     20  C   UNL     1       0.954   3.813  20.554  0.00  0.00    +0.000 C 
ENDBRANCH  17  18
ENDBRANCH  11  12
ENDBRANCH   3  11
TORSDOF 5
ENDMDL
MODEL 6
REMARK VINA RESULT:      -6.0      0.848      1.030
REMARK  Name = 
REMARK  6 active torsions:
REMARK  status: ('A' for Active; 'I' for Inactive)
REMARK    1  A    between atoms: C_1  and  S_2
REMARK    2  A    between atoms: S_2  and  C_5
REMARK    3  A    between atoms: C_5  and  C_6
REMARK    4  A    between atoms: C_8  and  C_9
REMARK    5  A    between atoms: C_9  and  N_10
REMARK    6  A    between atoms: C_15  and  C_16
REMARK                            x       y       z     vdW  Elec       q    Type
REMARK                         _______ _______ _______ _____ _____    ______ ____
ROOT
ATOM      1  C   UNL     1       3.287   5.010  19.247  0.00  0.00    +0.000 A 
ATOM      2  N   UNL     1       4.065   5.159  18.194  0.00  0.00    +0.000 NA
ATOM      3  C   UNL     1       3.892   6.422  17.641  0.00  0.00    +0.000 A 
ATOM      4  C   UNL     1       3.034   7.240  18.355  0.00  0.00    +0.000 A 
ATOM      5  S   UNL     1       2.396   6.411  19.704  0.00  0.00    +0.000 S 
ENDROOT
BRANCH   1   6
ATOM      6  C   UNL     1       3.198   3.774  20.061  0.00  0.00    +0.000 C 
BRANCH   6   8
ATOM      7  C   UNL     1       1.275   3.644  18.073  0.00  0.00    +0.000 C 
ATOM      8  S   UNL     1       2.244   2.592  19.123  0.00  0.00    +0.000 S 
ATOM      9  O   UNL     1       1.310   1.910  19.996  0.00  0.00    +0.000 OA
ATOM     10  O   UNL     1       3.136   1.849  18.249  0.00  0.00    +0.000 OA
ENDBRANCH   6   8
ENDBRANCH   1   6
BRANCH   3  11
ATOM     11  C   UNL     1       4.667   6.821  16.421  0.00  0.00    +0.000 C 
BRANCH  11  12
ATOM     12  N   UNL     1       6.089   6.532  16.496  0.00  0.00    +0.000 NA
ATOM     13  C   UNL     1       6.652   5.485  15.646  0.00  0.00    +0.000 C 
ATOM     14  C   UNL     1       7.195   4.252  16.389  0.00  0.00    +0.000 C 
ATOM     15  O   UNL     1       8.026   4.624  17.492  0.00  0.00    +0.000 OA
ATOM     16  C   UNL     1       7.260   5.402  18.424  0.00  0.00    +0.000 C 
ATOM     17  C   UNL     1       6.750   6.716  17.792  0.00  0.00    +0.000 C 
BRANCH  17  18
ATOM     18  C   UNL     1       7.897   7.676  17.504  0.00  0.00    +0.000 C 
ATOM     19  C   UNL     1       8.621   8.430  18.592  0.00  0.00    +0.000 C 
ATOM     20  C   UNL     1       7.689   9.163  17.672  0.00  0.00    +0.000 C 
ENDBRANCH  17  18
ENDBRANCH  11  12
ENDBRANCH   3  11
TORSDOF 5
ENDMDL
MODEL 7
REMARK VINA RESULT:      -6.0      4.076      6.484
REMARK  Name = 
REMARK  6 active torsions:
REMARK  status: ('A' for Active; 'I' for Inactive)
REMARK    1  A    between atoms: C_1  and  S_2
REMARK    2  A    between atoms: S_2  and  C_5
REMARK    3  A    between atoms: C_5  and  C_6
REMARK    4  A    between atoms: C_8  and  C_9
REMARK    5  A    between atoms: C_9  and  N_10
REMARK    6  A    between atoms: C_15  and  C_16
REMARK                            x       y       z     vdW  Elec       q    Type
REMARK                         _______ _______ _______ _____ _____    ______ ____
ROOT
ATOM      1  C   UNL     1       2.718   6.122  18.764  0.00  0.00    +0.000 A 
ATOM      2  N   UNL     1       1.985   7.216  18.786  0.00  0.00    +0.000 NA
ATOM      3  C   UNL     1       2.580   8.210  18.019  0.00  0.00    +0.000 A 
ATOM      4  C   UNL     1       3.726   7.805  17.356  0.00  0.00    +0.000 A 
ATOM      5  S   UNL     1       4.094   6.181  17.731  0.00  0.00    +0.000 S 
ENDROOT
BRANCH   1   6
ATOM      6  C   UNL     1       2.393   4.875  19.499  0.00  0.00    +0.000 C 
BRANCH   6   8
ATOM      7  C   UNL     1       0.856   2.589  19.218  0.00  0.00    +0.000 C 
ATOM      8  S   UNL     1       1.923   3.655  18.284  0.00  0.00    +0.000 S 
ATOM      9  O   UNL     1       3.077   2.858  17.914  0.00  0.00    +0.000 OA
ATOM     10  O   UNL     1       1.091   4.285  17.273  0.00  0.00    +0.000 OA
ENDBRANCH   6   8
ENDBRANCH   1   6
BRANCH   3  11
ATOM     11  C   UNL     1       1.934   9.558  17.900  0.00  0.00    +0.000 C 
BRANCH  11  12
ATOM     12  N   UNL     1       0.731   9.715  18.701  0.00  0.00    +0.000 NA
ATOM     13  C   UNL     1      -0.557   9.884  18.031  0.00  0.00    +0.000 C 
ATOM     14  C   UNL     1      -1.230  11.253  18.232  0.00  0.00    +0.000 C 
ATOM     15  O   UNL     1      -1.226  11.648  19.606  0.00  0.00    +0.000 OA
ATOM     16  C   UNL     1       0.129  11.748  20.068  0.00  0.00    +0.000 C 
ATOM     17  C   UNL     1       0.862  10.390  19.996  0.00  0.00    +0.000 C 
BRANCH  17  18
ATOM     18  C   UNL     1       0.297   9.399  21.004  0.00  0.00    +0.000 C 
ATOM     19  C   UNL     1      -0.031   9.781  22.426  0.00  0.00    +0.000 C 
ATOM     20  C   UNL     1       1.162   8.915  22.145  0.00  0.00    +0.000 C 
ENDBRANCH  17  18
ENDBRANCH  11  12
ENDBRANCH   3  11
TORSDOF 5
ENDMDL
MODEL 8
REMARK VINA RESULT:      -6.0      1.462      1.616
REMARK  Name = 
REMARK  6 active torsions:
REMARK  status: ('A' for Active; 'I' for Inactive)
REMARK    1  A    between atoms: C_1  and  S_2
REMARK    2  A    between atoms: S_2  and  C_5
REMARK    3  A    between atoms: C_5  and  C_6
REMARK    4  A    between atoms: C_8  and  C_9
REMARK    5  A    between atoms: C_9  and  N_10
REMARK    6  A    between atoms: C_15  and  C_16
REMARK                            x       y       z     vdW  Elec       q    Type
REMARK                         _______ _______ _______ _____ _____    ______ ____
ROOT
ATOM      1  C   UNL     1       1.967   5.021  18.864  0.00  0.00    +0.000 A 
ATOM      2  N   UNL     1       2.678   5.405  17.823  0.00  0.00    +0.000 NA
ATOM      3  C   UNL     1       3.161   6.693  18.020  0.00  0.00    +0.000 A 
ATOM      4  C   UNL     1       2.868   7.225  19.263  0.00  0.00    +0.000 A 
ATOM      5  S   UNL     1       1.936   6.129  20.181  0.00  0.00    +0.000 S 
ENDROOT
BRANCH   1   6
ATOM      6  C   UNL     1       1.280   3.711  18.978  0.00  0.00    +0.000 C 
BRANCH   6   8
ATOM      7  C   UNL     1       1.649   2.549  21.463  0.00  0.00    +0.000 C 
ATOM      8  S   UNL     1       2.382   2.611  19.849  0.00  0.00    +0.000 S 
ATOM      9  O   UNL     1       3.678   3.240  20.011  0.00  0.00    +0.000 OA
ATOM     10  O   UNL     1       2.260   1.276  19.291  0.00  0.00    +0.000 OA
ENDBRANCH   6   8
ENDBRANCH   1   6
BRANCH   3  11
ATOM     11  C   UNL     1       3.993   7.353  16.961  0.00  0.00    +0.000 C 
BRANCH  11  12
ATOM     12  N   UNL     1       5.235   6.660  16.660  0.00  0.00    +0.000 NA
ATOM     13  C   UNL     1       5.298   5.783  15.492  0.00  0.00    +0.000 C 
ATOM     14  C   UNL     1       5.493   4.288  15.800  0.00  0.00    +0.000 C 
ATOM     15  O   UNL     1       6.538   4.076  16.752  0.00  0.00    +0.000 OA
ATOM     16  C   UNL     1       6.206   4.742  17.980  0.00  0.00    +0.000 C 
ATOM     17  C   UNL     1       6.085   6.270  17.789  0.00  0.00    +0.000 C 
BRANCH  17  18
ATOM     18  C   UNL     1       7.437   6.902  17.487  0.00  0.00    +0.000 C 
ATOM     19  C   UNL     1       8.334   7.459  18.564  0.00  0.00    +0.000 C 
ATOM     20  C   UNL     1       7.616   8.395  17.636  0.00  0.00    +0.000 C 
ENDBRANCH  17  18
ENDBRANCH  11  12
ENDBRANCH   3  11
TORSDOF 5
ENDMDL
MODEL 9
REMARK VINA RESULT:      -6.0      3.956      6.175
REMARK  Name = 
REMARK  6 active torsions:
REMARK  status: ('A' for Active; 'I' for Inactive)
REMARK    1  A    between atoms: C_1  and  S_2
REMARK    2  A    between atoms: S_2  and  C_5
REMARK    3  A    between atoms: C_5  and  C_6
REMARK    4  A    between atoms: C_8  and  C_9
REMARK    5  A    between atoms: C_9  and  N_10
REMARK    6  A    between atoms: C_15  and  C_16
REMARK                            x       y       z     vdW  Elec       q    Type
REMARK                         _______ _______ _______ _____ _____    ______ ____
ROOT
ATOM      1  C   UNL     1       1.366   9.496  19.587  0.00  0.00    +0.000 A 
ATOM      2  N   UNL     1       1.554   8.367  20.239  0.00  0.00    +0.000 NA
ATOM      3  C   UNL     1       2.064   7.396  19.385  0.00  0.00    +0.000 A 
ATOM      4  C   UNL     1       2.331   7.852  18.106  0.00  0.00    +0.000 A 
ATOM      5  S   UNL     1       1.897   9.495  17.950  0.00  0.00    +0.000 S 
ENDROOT
BRANCH   1   6
ATOM      6  C   UNL     1       0.806  10.732  20.187  0.00  0.00    +0.000 C 
BRANCH   6   8
ATOM      7  C   UNL     1      -1.678  11.910  20.514  0.00  0.00    +0.000 C 
ATOM      8  S   UNL     1      -0.672  11.140  19.273  0.00  0.00    +0.000 S 
ATOM      9  O   UNL     1      -1.360   9.924  18.883  0.00  0.00    +0.000 OA
ATOM     10  O   UNL     1      -0.359  12.171  18.299  0.00  0.00    +0.000 OA
ENDBRANCH   6   8
ENDBRANCH   1   6
BRANCH   3  11
ATOM     11  C   UNL     1       2.351   6.018  19.899  0.00  0.00    +0.000 C 
BRANCH  11  12
ATOM     12  N   UNL     1       2.495   5.011  18.860  0.00  0.00    +0.000 NA
ATOM     13  C   UNL     1       1.427   4.033  18.660  0.00  0.00    +0.000 C 
ATOM     14  C   UNL     1       1.799   2.576  18.982  0.00  0.00    +0.000 C 
ATOM     15  O   UNL     1       3.051   2.207  18.397  0.00  0.00    +0.000 OA
ATOM     16  C   UNL     1       4.087   3.054  18.918  0.00  0.00    +0.000 C 
ATOM     17  C   UNL     1       3.849   4.538  18.558  0.00  0.00    +0.000 C 
BRANCH  17  18
ATOM     18  C   UNL     1       4.015   4.781  17.064  0.00  0.00    +0.000 C 
ATOM     19  C   UNL     1       5.158   4.203  16.267  0.00  0.00    +0.000 C 
ATOM     20  C   UNL     1       5.131   5.673  16.569  0.00  0.00    +0.000 C 
ENDBRANCH  17  18
ENDBRANCH  11  12
ENDBRANCH   3  11
TORSDOF 5
ENDMDL
