MODEL 1
REMARK VINA RESULT:      -7.9      0.000      0.000
REMARK  Name = 
REMARK  7 active torsions:
REMARK  status: ('A' for Active; 'I' for Inactive)
REMARK    1  A    between atoms: C_1  and  N_2
REMARK    2  A    between atoms: N_2  and  C_3
REMARK    3  A    between atoms: C_3  and  C_4
REMARK    4  A    between atoms: C_19  and  C_20
REMARK    5  A    between atoms: C_20  and  C_21
REMARK    6  A    between atoms: C_20  and  C_22
REMARK    7  A    between atoms: C_20  and  C_23
REMARK                            x       y       z     vdW  Elec       q    Type
REMARK                         _______ _______ _______ _____ _____    ______ ____
ROOT
ATOM      1  C   UNL     1       1.199   5.426  20.342  0.00  0.00    +0.000 C 
ATOM      2  N   UNL     1       2.312   6.067  19.668  0.00  0.00    +0.000 N 
ATOM      3  C   UNL     1       3.446   5.326  19.426  0.00  0.00    +0.000 A 
ATOM      4  N   UNL     1       3.488   4.069  19.869  0.00  0.00    +0.000 NA
ATOM      5  C   UNL     1       4.611   3.408  19.671  0.00  0.00    +0.000 A 
ATOM      6  N   UNL     1       4.689   2.120  20.166  0.00  0.00    +0.000 N 
ATOM      7  N   UNL     1       5.694   3.902  19.096  0.00  0.00    +0.000 NA
ATOM      8  C   UNL     1       5.582   5.158  18.670  0.00  0.00    +0.000 A 
ATOM      9  N   UNL     1       4.479   5.895  18.808  0.00  0.00    +0.000 NA
ATOM     10  H   UNL     1       3.995   1.997  20.891  0.00  0.00    +0.000 HD
ATOM     11  H   UNL     1       5.644   1.904  20.401  0.00  0.00    +0.000 HD
ENDROOT
BRANCH   8  12
ATOM     12  C   UNL     1       6.763   5.757  17.907  0.00  0.00    +0.000 C 
ATOM     13  C   UNL     1       7.328   4.676  16.972  0.00  0.00    +0.000 C 
ATOM     14  C   UNL     1       6.326   6.977  17.075  0.00  0.00    +0.000 C 
ATOM     15  C   UNL     1       7.871   6.216  18.877  0.00  0.00    +0.000 C 
ENDBRANCH   8  12
BRANCH   2  16
ATOM     16  C   UNL     1       2.182   7.437  19.194  0.00  0.00    +0.000 C 
BRANCH  16  17
ATOM     17  C   UNL     1       1.583   8.359  20.242  0.00  0.00    +0.000 A 
ATOM     18  C   UNL     1       1.853   8.186  21.613  0.00  0.00    +0.000 A 
ATOM     19  C   UNL     1       1.219   8.974  22.574  0.00  0.00    +0.000 A 
ATOM     20  C   UNL     1       0.340   9.972  22.179  0.00  0.00    +0.000 A 
ATOM     21  C   UNL     1       0.169  10.253  20.818  0.00  0.00    +0.000 A 
ATOM     22  C   UNL     1       0.767   9.434  19.853  0.00  0.00    +0.000 A 
ATOM     23  O   UNL     1      -0.580  11.313  20.366  0.00  0.00    +0.000 OA
ATOM     24  C   UNL     1      -0.874  12.222  21.439  0.00  0.00    +0.000 C 
ATOM     25  C   UNL     1      -1.388  11.443  22.634  0.00  0.00    +0.000 C 
ATOM     26  O   UNL     1      -0.324  10.645  23.174  0.00  0.00    +0.000 OA
ENDBRANCH  16  17
ENDBRANCH   2  16
TORSDOF 3
ENDMDL
MODEL 2
REMARK VINA RESULT:      -7.8      0.538      1.116
REMARK  Name = 
REMARK  7 active torsions:
REMARK  status: ('A' for Active; 'I' for Inactive)
REMARK    1  A    between atoms: C_1  and  N_2
REMARK    2  A    between atoms: N_2  and  C_3
REMARK    3  A    between atoms: C_3  and  C_4
REMARK    4  A    between atoms: C_19  and  C_20
REMARK    5  A    between atoms: C_20  and  C_21
REMARK    6  A    between atoms: C_20  and  C_22
REMARK    7  A    between atoms: C_20  and  C_23
REMARK                            x       y       z     vdW  Elec       q    Type
REMARK                         _______ _______ _______ _____ _____    ______ ____
ROOT
ATOM      1  C   UNL     1       1.511   5.629  20.756  0.00  0.00    +0.000 C 
ATOM      2  N   UNL     1       2.406   6.214  19.775  0.00  0.00    +0.000 N 
ATOM      3  C   UNL     1       3.460   5.457  19.317  0.00  0.00    +0.000 A 
ATOM      4  N   UNL     1       3.639   4.241  19.835  0.00  0.00    +0.000 NA
ATOM      5  C   UNL     1       4.692   3.568  19.416  0.00  0.00    +0.000 A 
ATOM      6  N   UNL     1       4.919   2.326  19.976  0.00  0.00    +0.000 N 
ATOM      7  N   UNL     1       5.586   4.015  18.550  0.00  0.00    +0.000 NA
ATOM      8  C   UNL     1       5.344   5.231  18.067  0.00  0.00    +0.000 A 
ATOM      9  N   UNL     1       4.294   5.975  18.417  0.00  0.00    +0.000 NA
ATOM     10  H   UNL     1       4.431   2.262  20.860  0.00  0.00    +0.000 HD
ATOM     11  H   UNL     1       5.907   2.131  19.982  0.00  0.00    +0.000 HD
ENDROOT
BRANCH   8  12
ATOM     12  C   UNL     1       6.283   5.765  16.987  0.00  0.00    +0.000 C 
ATOM     13  C   UNL     1       7.156   6.865  17.611  0.00  0.00    +0.000 C 
ATOM     14  C   UNL     1       7.186   4.648  16.432  0.00  0.00    +0.000 C 
ATOM     15  C   UNL     1       5.486   6.361  15.808  0.00  0.00    +0.000 C 
ENDBRANCH   8  12
BRANCH   2  16
ATOM     16  C   UNL     1       2.131   7.540  19.241  0.00  0.00    +0.000 C 
BRANCH  16  17
ATOM     17  C   UNL     1       1.520   8.468  20.277  0.00  0.00    +0.000 A 
ATOM     18  C   UNL     1       1.833   8.350  21.644  0.00  0.00    +0.000 A 
ATOM     19  C   UNL     1       1.188   9.139  22.598  0.00  0.00    +0.000 A 
ATOM     20  C   UNL     1       0.256  10.085  22.197  0.00  0.00    +0.000 A 
ATOM     21  C   UNL     1       0.038  10.315  20.834  0.00  0.00    +0.000 A 
ATOM     22  C   UNL     1       0.647   9.494  19.878  0.00  0.00    +0.000 A 
ATOM     23  O   UNL     1      -0.768  11.327  20.370  0.00  0.00    +0.000 OA
ATOM     24  C   UNL     1      -1.074  12.256  21.422  0.00  0.00    +0.000 C 
ATOM     25  C   UNL     1      -1.522  11.493  22.654  0.00  0.00    +0.000 C 
ATOM     26  O   UNL     1      -0.411  10.759  23.189  0.00  0.00    +0.000 OA
ENDBRANCH  16  17
ENDBRANCH   2  16
TORSDOF 3
ENDMDL
MODEL 3
REMARK VINA RESULT:      -7.6      3.083      4.878
REMARK  Name = 
REMARK  7 active torsions:
REMARK  status: ('A' for Active; 'I' for Inactive)
REMARK    1  A    between atoms: C_1  and  N_2
REMARK    2  A    between atoms: N_2  and  C_3
REMARK    3  A    between atoms: C_3  and  C_4
REMARK    4  A    between atoms: C_19  and  C_20
REMARK    5  A    between atoms: C_20  and  C_21
REMARK    6  A    between atoms: C_20  and  C_22
REMARK    7  A    between atoms: C_20  and  C_23
REMARK                            x       y       z     vdW  Elec       q    Type
REMARK                         _______ _______ _______ _____ _____    ______ ____
ROOT
ATOM      1  C   UNL     1       2.399  10.407  17.913  0.00  0.00    +0.000 C 
ATOM      2  N   UNL     1       1.897   9.221  18.581  0.00  0.00    +0.000 N 
ATOM      3  C   UNL     1       2.522   8.020  18.337  0.00  0.00    +0.000 A 
ATOM      4  N   UNL     1       3.526   7.994  17.461  0.00  0.00    +0.000 NA
ATOM      5  C   UNL     1       4.063   6.816  17.209  0.00  0.00    +0.000 A 
ATOM      6  N   UNL     1       5.073   6.764  16.268  0.00  0.00    +0.000 N 
ATOM      7  N   UNL     1       3.666   5.670  17.736  0.00  0.00    +0.000 NA
ATOM      8  C   UNL     1       2.666   5.768  18.608  0.00  0.00    +0.000 A 
ATOM      9  N   UNL     1       2.078   6.918  18.940  0.00  0.00    +0.000 NA
ATOM     10  H   UNL     1       5.023   7.582  15.675  0.00  0.00    +0.000 HD
ATOM     11  H   UNL     1       5.067   5.866  15.813  0.00  0.00    +0.000 HD
ENDROOT
BRANCH   8  12
ATOM     12  C   UNL     1       2.226   4.495  19.329  0.00  0.00    +0.000 C 
ATOM     13  C   UNL     1       3.485   3.703  19.716  0.00  0.00    +0.000 C 
ATOM     14  C   UNL     1       1.418   4.825  20.598  0.00  0.00    +0.000 C 
ATOM     15  C   UNL     1       1.340   3.622  18.416  0.00  0.00    +0.000 C 
ENDBRANCH   8  12
BRANCH   2  16
ATOM     16  C   UNL     1       0.810   9.334  19.541  0.00  0.00    +0.000 C 
BRANCH  16  17
ATOM     17  C   UNL     1      -0.389  10.077  18.978  0.00  0.00    +0.000 A 
ATOM     18  C   UNL     1      -0.970  11.160  19.663  0.00  0.00    +0.000 A 
ATOM     19  C   UNL     1      -2.132  11.770  19.188  0.00  0.00    +0.000 A 
ATOM     20  C   UNL     1      -2.704  11.336  18.000  0.00  0.00    +0.000 A 
ATOM     21  C   UNL     1      -2.061  10.358  17.233  0.00  0.00    +0.000 A 
ATOM     22  C   UNL     1      -0.922   9.713  17.730  0.00  0.00    +0.000 A 
ATOM     23  O   UNL     1      -2.501   9.983  15.986  0.00  0.00    +0.000 OA
ATOM     24  C   UNL     1      -3.470  10.919  15.487  0.00  0.00    +0.000 C 
ATOM     25  C   UNL     1      -4.508  11.191  16.559  0.00  0.00    +0.000 C 
ATOM     26  O   UNL     1      -3.897  11.911  17.639  0.00  0.00    +0.000 OA
ENDBRANCH  16  17
ENDBRANCH   2  16
TORSDOF 3
ENDMDL
MODEL 4
REMARK VINA RESULT:      -7.5      1.638      3.392
REMARK  Name = 
REMARK  7 active torsions:
REMARK  status: ('A' for Active; 'I' for Inactive)
REMARK    1  A    between atoms: C_1  and  N_2
REMARK    2  A    between atoms: N_2  and  C_3
REMARK    3  A    between atoms: C_3  and  C_4
REMARK    4  A    between atoms: C_19  and  C_20
REMARK    5  A    between atoms: C_20  and  C_21
REMARK    6  A    between atoms: C_20  and  C_22
REMARK    7  A    between atoms: C_20  and  C_23
REMARK                            x       y       z     vdW  Elec       q    Type
REMARK                         _______ _______ _______ _____ _____    ______ ____
ROOT
ATOM      1  C   UNL     1       4.122   8.119  17.290  0.00  0.00    +0.000 C 
ATOM      2  N   UNL     1       3.123   7.242  17.871  0.00  0.00    +0.000 N 
ATOM      3  C   UNL     1       3.537   6.053  18.424  0.00  0.00    +0.000 A 
ATOM      4  N   UNL     1       4.831   5.738  18.354  0.00  0.00    +0.000 NA
ATOM      5  C   UNL     1       5.183   4.565  18.842  0.00  0.00    +0.000 A 
ATOM      6  N   UNL     1       6.512   4.202  18.735  0.00  0.00    +0.000 N 
ATOM      7  N   UNL     1       4.353   3.678  19.365  0.00  0.00    +0.000 NA
ATOM      8  C   UNL     1       3.079   4.058  19.411  0.00  0.00    +0.000 A 
ATOM      9  N   UNL     1       2.636   5.233  18.962  0.00  0.00    +0.000 NA
ATOM     10  H   UNL     1       6.951   4.747  18.005  0.00  0.00    +0.000 HD
ATOM     11  H   UNL     1       6.586   3.200  18.668  0.00  0.00    +0.000 HD
ENDROOT
BRANCH   8  12
ATOM     12  C   UNL     1       2.083   3.122  20.095  0.00  0.00    +0.000 C 
ATOM     13  C   UNL     1       1.878   1.896  19.192  0.00  0.00    +0.000 C 
ATOM     14  C   UNL     1       2.605   2.664  21.470  0.00  0.00    +0.000 C 
ATOM     15  C   UNL     1       0.727   3.823  20.312  0.00  0.00    +0.000 C 
ENDBRANCH   8  12
BRANCH   2  16
ATOM     16  C   UNL     1       1.732   7.666  17.929  0.00  0.00    +0.000 C 
BRANCH  16  17
ATOM     17  C   UNL     1       1.472   8.650  19.057  0.00  0.00    +0.000 A 
ATOM     18  C   UNL     1       1.484   8.244  20.404  0.00  0.00    +0.000 A 
ATOM     19  C   UNL     1       1.143   9.133  21.425  0.00  0.00    +0.000 A 
ATOM     20  C   UNL     1       0.828  10.449  21.119  0.00  0.00    +0.000 A 
ATOM     21  C   UNL     1       0.950  10.907  19.802  0.00  0.00    +0.000 A 
ATOM     22  C   UNL     1       1.245  10.007  18.771  0.00  0.00    +0.000 A 
ATOM     23  O   UNL     1       0.785  12.227  19.455  0.00  0.00    +0.000 OA
ATOM     24  C   UNL     1       0.789  13.063  20.624  0.00  0.00    +0.000 C 
ATOM     25  C   UNL     1      -0.141  12.477  21.667  0.00  0.00    +0.000 C 
ATOM     26  O   UNL     1       0.408  11.244  22.155  0.00  0.00    +0.000 OA
ENDBRANCH  16  17
ENDBRANCH   2  16
TORSDOF 3
ENDMDL
MODEL 5
REMARK VINA RESULT:      -7.5      2.593      3.617
REMARK  Name = 
REMARK  7 active torsions:
REMARK  status: ('A' for Active; 'I' for Inactive)
REMARK    1  A    between atoms: C_1  and  N_2
REMARK    2  A    between atoms: N_2  and  C_3
REMARK    3  A    between atoms: C_3  and  C_4
REMARK    4  A    between atoms: C_19  and  C_20
REMARK    5  A    between atoms: C_20  and  C_21
REMARK    6  A    between atoms: C_20  and  C_22
REMARK    7  A    between atoms: C_20  and  C_23
REMARK                            x       y       z     vdW  Elec       q    Type
REMARK                         _______ _______ _______ _____ _____    ______ ____
ROOT
ATOM      1  C   UNL     1       0.481   8.262  21.241  0.00  0.00    +0.000 C 
ATOM      2  N   UNL     1       1.453   8.133  20.172  0.00  0.00    +0.000 N 
ATOM      3  C   UNL     1       2.060   6.912  19.984  0.00  0.00    +0.000 A 
ATOM      4  N   UNL     1       1.764   5.921  20.824  0.00  0.00    +0.000 NA
ATOM      5  C   UNL     1       2.408   4.784  20.650  0.00  0.00    +0.000 A 
ATOM      6  N   UNL     1       2.149   3.760  21.541  0.00  0.00    +0.000 N 
ATOM      7  N   UNL     1       3.332   4.566  19.729  0.00  0.00    +0.000 NA
ATOM      8  C   UNL     1       3.573   5.593  18.919  0.00  0.00    +0.000 A 
ATOM      9  N   UNL     1       2.956   6.772  19.008  0.00  0.00    +0.000 NA
ATOM     10  H   UNL     1       1.752   4.145  22.388  0.00  0.00    +0.000 HD
ATOM     11  H   UNL     1       2.965   3.180  21.639  0.00  0.00    +0.000 HD
ENDROOT
BRANCH   8  12
ATOM     12  C   UNL     1       4.557   5.376  17.771  0.00  0.00    +0.000 C 
ATOM     13  C   UNL     1       5.943   5.093  18.372  0.00  0.00    +0.000 C 
ATOM     14  C   UNL     1       4.130   4.187  16.889  0.00  0.00    +0.000 C 
ATOM     15  C   UNL     1       4.642   6.627  16.872  0.00  0.00    +0.000 C 
ENDBRANCH   8  12
BRANCH   2  16
ATOM     16  C   UNL     1       1.706   9.255  19.282  0.00  0.00    +0.000 C 
BRANCH  16  17
ATOM     17  C   UNL     1       0.436  10.007  18.919  0.00  0.00    +0.000 A 
ATOM     18  C   UNL     1       0.025  11.144  19.639  0.00  0.00    +0.000 A 
ATOM     19  C   UNL     1      -1.194  11.765  19.363  0.00  0.00    +0.000 A 
ATOM     20  C   UNL     1      -1.998  11.287  18.339  0.00  0.00    +0.000 A 
ATOM     21  C   UNL     1      -1.540  10.248  17.520  0.00  0.00    +0.000 A 
ATOM     22  C   UNL     1      -0.340   9.593  17.823  0.00  0.00    +0.000 A 
ATOM     23  O   UNL     1      -2.225   9.820  16.408  0.00  0.00    +0.000 OA
ATOM     24  C   UNL     1      -3.252  10.759  16.052  0.00  0.00    +0.000 C 
ATOM     25  C   UNL     1      -4.053  11.124  17.287  0.00  0.00    +0.000 C 
ATOM     26  O   UNL     1      -3.225  11.881  18.183  0.00  0.00    +0.000 OA
ENDBRANCH  16  17
ENDBRANCH   2  16
TORSDOF 3
ENDMDL
MODEL 6
REMARK VINA RESULT:      -7.5      0.777      1.579
REMARK  Name = 
REMARK  7 active torsions:
REMARK  status: ('A' for Active; 'I' for Inactive)
REMARK    1  A    between atoms: C_1  and  N_2
REMARK    2  A    between atoms: N_2  and  C_3
REMARK    3  A    between atoms: C_3  and  C_4
REMARK    4  A    between atoms: C_19  and  C_20
REMARK    5  A    between atoms: C_20  and  C_21
REMARK    6  A    between atoms: C_20  and  C_22
REMARK    7  A    between atoms: C_20  and  C_23
REMARK                            x       y       z     vdW  Elec       q    Type
REMARK                         _______ _______ _______ _____ _____    ______ ____
ROOT
ATOM      1  C   UNL     1       1.267   5.730  19.757  0.00  0.00    +0.000 C 
ATOM      2  N   UNL     1       2.505   6.272  19.231  0.00  0.00    +0.000 N 
ATOM      3  C   UNL     1       3.610   5.453  19.181  0.00  0.00    +0.000 A 
ATOM      4  N   UNL     1       3.505   4.217  19.667  0.00  0.00    +0.000 NA
ATOM      5  C   UNL     1       4.598   3.480  19.657  0.00  0.00    +0.000 A 
ATOM      6  N   UNL     1       4.519   2.213  20.201  0.00  0.00    +0.000 N 
ATOM      7  N   UNL     1       5.783   3.883  19.229  0.00  0.00    +0.000 NA
ATOM      8  C   UNL     1       5.817   5.124  18.750  0.00  0.00    +0.000 A 
ATOM      9  N   UNL     1       4.757   5.932  18.701  0.00  0.00    +0.000 NA
ATOM     10  H   UNL     1       3.722   2.162  20.821  0.00  0.00    +0.000 HD
ATOM     11  H   UNL     1       5.413   1.949  20.580  0.00  0.00    +0.000 HD
ENDROOT
BRANCH   8  12
ATOM     12  C   UNL     1       7.132   5.616  18.147  0.00  0.00    +0.000 C 
ATOM     13  C   UNL     1       7.643   4.544  17.172  0.00  0.00    +0.000 C 
ATOM     14  C   UNL     1       6.935   6.944  17.392  0.00  0.00    +0.000 C 
ATOM     15  C   UNL     1       8.190   5.847  19.245  0.00  0.00    +0.000 C 
ENDBRANCH   8  12
BRANCH   2  16
ATOM     16  C   UNL     1       2.536   7.626  18.698  0.00  0.00    +0.000 C 
BRANCH  16  17
ATOM     17  C   UNL     1       1.520   8.536  19.367  0.00  0.00    +0.000 A 
ATOM     18  C   UNL     1       0.665   9.362  18.614  0.00  0.00    +0.000 A 
ATOM     19  C   UNL     1      -0.192  10.269  19.239  0.00  0.00    +0.000 A 
ATOM     20  C   UNL     1      -0.238  10.333  20.624  0.00  0.00    +0.000 A 
ATOM     21  C   UNL     1       0.498   9.422  21.390  0.00  0.00    +0.000 A 
ATOM     22  C   UNL     1       1.393   8.544  20.767  0.00  0.00    +0.000 A 
ATOM     23  O   UNL     1       0.392   9.343  22.758  0.00  0.00    +0.000 OA
ATOM     24  C   UNL     1      -0.756  10.071  23.221  0.00  0.00    +0.000 C 
ATOM     25  C   UNL     1      -0.775  11.446  22.581  0.00  0.00    +0.000 C 
ATOM     26  O   UNL     1      -1.028  11.311  21.175  0.00  0.00    +0.000 OA
ENDBRANCH  16  17
ENDBRANCH   2  16
TORSDOF 3
ENDMDL
MODEL 7
REMARK VINA RESULT:      -7.4      1.675      2.591
REMARK  Name = 
REMARK  7 active torsions:
REMARK  status: ('A' for Active; 'I' for Inactive)
REMARK    1  A    between atoms: C_1  and  N_2
REMARK    2  A    between atoms: N_2  and  C_3
REMARK    3  A    between atoms: C_3  and  C_4
REMARK    4  A    between atoms: C_19  and  C_20
REMARK    5  A    between atoms: C_20  and  C_21
REMARK    6  A    between atoms: C_20  and  C_22
REMARK    7  A    between atoms: C_20  and  C_23
REMARK                            x       y       z     vdW  Elec       q    Type
REMARK                         _______ _______ _______ _____ _____    ______ ____
ROOT
ATOM      1  C   UNL     1       1.193   5.186  20.575  0.00  0.00    +0.000 C 
ATOM      2  N   UNL     1       2.372   5.640  19.863  0.00  0.00    +0.000 N 
ATOM      3  C   UNL     1       2.917   4.814  18.907  0.00  0.00    +0.000 A 
ATOM      4  N   UNL     1       2.368   3.614  18.717  0.00  0.00    +0.000 NA
ATOM      5  C   UNL     1       2.952   2.828  17.835  0.00  0.00    +0.000 A 
ATOM      6  N   UNL     1       2.424   1.563  17.660  0.00  0.00    +0.000 N 
ATOM      7  N   UNL     1       4.044   3.128  17.153  0.00  0.00    +0.000 NA
ATOM      8  C   UNL     1       4.537   4.342  17.384  0.00  0.00    +0.000 A 
ATOM      9  N   UNL     1       4.001   5.212  18.241  0.00  0.00    +0.000 NA
ATOM     10  H   UNL     1       1.873   1.314  18.471  0.00  0.00    +0.000 HD
ATOM     11  H   UNL     1       3.153   0.925  17.387  0.00  0.00    +0.000 HD
ENDROOT
BRANCH   8  12
ATOM     12  C   UNL     1       5.739   4.790  16.554  0.00  0.00    +0.000 C 
ATOM     13  C   UNL     1       5.499   6.239  16.104  0.00  0.00    +0.000 C 
ATOM     14  C   UNL     1       7.040   4.718  17.376  0.00  0.00    +0.000 C 
ATOM     15  C   UNL     1       5.914   3.896  15.309  0.00  0.00    +0.000 C 
ENDBRANCH   8  12
BRANCH   2  16
ATOM     16  C   UNL     1       2.901   6.973  20.110  0.00  0.00    +0.000 C 
BRANCH  16  17
ATOM     17  C   UNL     1       1.967   8.068  19.623  0.00  0.00    +0.000 A 
ATOM     18  C   UNL     1       1.816   8.347  18.252  0.00  0.00    +0.000 A 
ATOM     19  C   UNL     1       1.035   9.421  17.820  0.00  0.00    +0.000 A 
ATOM     20  C   UNL     1       0.362  10.203  18.747  0.00  0.00    +0.000 A 
ATOM     21  C   UNL     1       0.386   9.853  20.103  0.00  0.00    +0.000 A 
ATOM     22  C   UNL     1       1.205   8.807  20.543  0.00  0.00    +0.000 A 
ATOM     23  O   UNL     1      -0.367  10.503  21.052  0.00  0.00    +0.000 OA
ATOM     24  C   UNL     1      -1.363  11.331  20.430  0.00  0.00    +0.000 C 
ATOM     25  C   UNL     1      -0.720  12.161  19.337  0.00  0.00    +0.000 C 
ATOM     26  O   UNL     1      -0.307  11.300  18.266  0.00  0.00    +0.000 OA
ENDBRANCH  16  17
ENDBRANCH   2  16
TORSDOF 3
ENDMDL
MODEL 8
REMARK VINA RESULT:      -7.4      1.566      2.269
REMARK  Name = 
REMARK  7 active torsions:
REMARK  status: ('A' for Active; 'I' for Inactive)
REMARK    1  A    between atoms: C_1  and  N_2
REMARK    2  A    between atoms: N_2  and  C_3
REMARK    3  A    between atoms: C_3  and  C_4
REMARK    4  A    between atoms: C_19  and  C_20
REMARK    5  A    between atoms: C_20  and  C_21
REMARK    6  A    between atoms: C_20  and  C_22
REMARK    7  A    between atoms: C_20  and  C_23
REMARK                            x       y       z     vdW  Elec       q    Type
REMARK                         _______ _______ _______ _____ _____    ______ ____
ROOT
ATOM      1  C   UNL     1       1.271   5.554  20.483  0.00  0.00    +0.000 C 
ATOM      2  N   UNL     1       2.354   5.990  19.622  0.00  0.00    +0.000 N 
ATOM      3  C   UNL     1       2.850   5.102  18.695  0.00  0.00    +0.000 A 
ATOM      4  N   UNL     1       2.349   3.868  18.667  0.00  0.00    +0.000 NA
ATOM      5  C   UNL     1       2.889   3.027  17.807  0.00  0.00    +0.000 A 
ATOM      6  N   UNL     1       2.413   1.730  17.797  0.00  0.00    +0.000 N 
ATOM      7  N   UNL     1       3.896   3.309  16.998  0.00  0.00    +0.000 NA
ATOM      8  C   UNL     1       4.344   4.560  17.070  0.00  0.00    +0.000 A 
ATOM      9  N   UNL     1       3.845   5.482  17.894  0.00  0.00    +0.000 NA
ATOM     10  H   UNL     1       1.952   1.535  18.676  0.00  0.00    +0.000 HD
ATOM     11  H   UNL     1       3.146   1.102  17.513  0.00  0.00    +0.000 HD
ENDROOT
BRANCH   8  12
ATOM     12  C   UNL     1       5.440   4.979  16.092  0.00  0.00    +0.000 C 
ATOM     13  C   UNL     1       6.799   4.783  16.780  0.00  0.00    +0.000 C 
ATOM     14  C   UNL     1       5.390   4.133  14.805  0.00  0.00    +0.000 C 
ATOM     15  C   UNL     1       5.284   6.461  15.692  0.00  0.00    +0.000 C 
ENDBRANCH   8  12
BRANCH   2  16
ATOM     16  C   UNL     1       2.834   7.361  19.697  0.00  0.00    +0.000 C 
BRANCH  16  17
ATOM     17  C   UNL     1       1.728   8.346  20.038  0.00  0.00    +0.000 A 
ATOM     18  C   UNL     1       0.961   8.966  19.035  0.00  0.00    +0.000 A 
ATOM     19  C   UNL     1       0.018   9.944  19.353  0.00  0.00    +0.000 A 
ATOM     20  C   UNL     1      -0.203  10.286  20.680  0.00  0.00    +0.000 A 
ATOM     21  C   UNL     1       0.447   9.579  21.699  0.00  0.00    +0.000 A 
ATOM     22  C   UNL     1       1.427   8.631  21.381  0.00  0.00    +0.000 A 
ATOM     23  O   UNL     1       0.172   9.775  23.032  0.00  0.00    +0.000 OA
ATOM     24  C   UNL     1      -1.037  10.533  23.194  0.00  0.00    +0.000 C 
ATOM     25  C   UNL     1      -0.998  11.748  22.287  0.00  0.00    +0.000 C 
ATOM     26  O   UNL     1      -1.071  11.321  20.919  0.00  0.00    +0.000 OA
ENDBRANCH  16  17
ENDBRANCH   2  16
TORSDOF 3
ENDMDL
MODEL 9
REMARK VINA RESULT:      -7.4      0.927      1.915
REMARK  Name = 
REMARK  7 active torsions:
REMARK  status: ('A' for Active; 'I' for Inactive)
REMARK    1  A    between atoms: C_1  and  N_2
REMARK    2  A    between atoms: N_2  and  C_3
REMARK    3  A    between atoms: C_3  and  C_4
REMARK    4  A    between atoms: C_19  and  C_20
REMARK    5  A    between atoms: C_20  and  C_21
REMARK    6  A    between atoms: C_20  and  C_22
REMARK    7  A    between atoms: C_20  and  C_23
REMARK                            x       y       z     vdW  Elec       q    Type
REMARK                         _______ _______ _______ _____ _____    ______ ____
ROOT
ATOM      1  C   UNL     1       1.577   6.068  20.357  0.00  0.00    +0.000 C 
ATOM      2  N   UNL     1       2.591   6.501  19.414  0.00  0.00    +0.000 N 
ATOM      3  C   UNL     1       3.602   5.625  19.092  0.00  0.00    +0.000 A 
ATOM      4  N   UNL     1       3.631   4.439  19.701  0.00  0.00    +0.000 NA
ATOM      5  C   UNL     1       4.646   3.649  19.413  0.00  0.00    +0.000 A 
ATOM      6  N   UNL     1       4.717   2.436  20.071  0.00  0.00    +0.000 N 
ATOM      7  N   UNL     1       5.638   3.953  18.593  0.00  0.00    +0.000 NA
ATOM      8  C   UNL     1       5.544   5.147  18.013  0.00  0.00    +0.000 A 
ATOM      9  N   UNL     1       4.544   6.001  18.228  0.00  0.00    +0.000 NA
ATOM     10  H   UNL     1       4.162   2.479  20.915  0.00  0.00    +0.000 HD
ATOM     11  H   UNL     1       5.680   2.158  20.168  0.00  0.00    +0.000 HD
ENDROOT
BRANCH   8  12
ATOM     12  C   UNL     1       6.605   5.518  16.978  0.00  0.00    +0.000 C 
ATOM     13  C   UNL     1       7.187   6.889  17.358  0.00  0.00    +0.000 C 
ATOM     14  C   UNL     1       7.736   4.474  16.941  0.00  0.00    +0.000 C 
ATOM     15  C   UNL     1       5.991   5.604  15.566  0.00  0.00    +0.000 C 
ENDBRANCH   8  12
BRANCH   2  16
ATOM     16  C   UNL     1       2.479   7.803  18.773  0.00  0.00    +0.000 C 
BRANCH  16  17
ATOM     17  C   UNL     1       1.436   8.687  19.435  0.00  0.00    +0.000 A 
ATOM     18  C   UNL     1       0.485   9.395  18.677  0.00  0.00    +0.000 A 
ATOM     19  C   UNL     1      -0.402  10.283  19.286  0.00  0.00    +0.000 A 
ATOM     20  C   UNL     1      -0.381  10.446  20.664  0.00  0.00    +0.000 A 
ATOM     21  C   UNL     1       0.460   9.646  21.447  0.00  0.00    +0.000 A 
ATOM     22  C   UNL     1       1.383   8.789  20.835  0.00  0.00    +0.000 A 
ATOM     23  O   UNL     1       0.432   9.661  22.821  0.00  0.00    +0.000 OA
ATOM     24  C   UNL     1      -0.741  10.339  23.298  0.00  0.00    +0.000 C 
ATOM     25  C   UNL     1      -0.894  11.659  22.566  0.00  0.00    +0.000 C 
ATOM     26  O   UNL     1      -1.210  11.405  21.190  0.00  0.00    +0.000 OA
ENDBRANCH  16  17
ENDBRANCH   2  16
TORSDOF 3
ENDMDL
