MODEL 1
REMARK VINA RESULT:      -6.7      0.000      0.000
REMARK  Name = 
REMARK  8 active torsions:
REMARK  status: ('A' for Active; 'I' for Inactive)
REMARK    1  A    between atoms: C_1  and  C_2
REMARK    2  A    between atoms: C_2  and  C_16
REMARK    3  A    between atoms: N_3  and  N_4
REMARK    4  A    between atoms: N_4  and  C_5
REMARK    5  A    between atoms: C_5  and  N_7
REMARK    6  A    between atoms: N_7  and  N_8
REMARK    7  A    between atoms: N_8  and  C_9
REMARK    8  A    between atoms: C_12  and  C_13
REMARK                            x       y       z     vdW  Elec       q    Type
REMARK                         _______ _______ _______ _____ _____    ______ ____
ROOT
ATOM      1  C   UNL     1       5.963   4.189  16.204  0.00  0.00    +0.000 C 
ATOM      2  S   UNL     1       6.504   4.147  14.626  0.00  0.00    +0.000 S 
ENDROOT
BRANCH   1   3
ATOM      3  N   UNL     1       6.179   5.185  17.154  0.00  0.00    +0.000 N 
ATOM      4  H   UNL     1       6.889   5.843  16.836  0.00  0.00    +0.000 HD
BRANCH   3   7
ATOM      5  C   UNL     1       4.452   7.172  16.027  0.00  0.00    +0.000 C 
ATOM      6  C   UNL     1       4.425   6.658  17.455  0.00  0.00    +0.000 C 
ATOM      7  N   UNL     1       5.240   5.768  17.956  0.00  0.00    +0.000 NA
BRANCH   6   8
ATOM      8  C   UNL     1       3.315   7.187  18.330  0.00  0.00    +0.000 A 
ATOM      9  C   UNL     1       2.946   6.519  19.511  0.00  0.00    +0.000 A 
ATOM     10  C   UNL     1       1.966   7.045  20.353  0.00  0.00    +0.000 A 
ATOM     11  C   UNL     1       1.340   8.241  20.019  0.00  0.00    +0.000 A 
ATOM     12 BR   UNL     1       0.013   8.951  21.164  0.00  0.00    +0.000 Br
ATOM     13  C   UNL     1       1.683   8.915  18.848  0.00  0.00    +0.000 A 
ATOM     14  C   UNL     1       2.672   8.387  18.006  0.00  0.00    +0.000 A 
ENDBRANCH   6   8
ENDBRANCH   3   7
ENDBRANCH   1   3
BRANCH   1  15
ATOM     15  N   UNL     1       5.170   3.156  16.688  0.00  0.00    +0.000 N 
ATOM     16  H   UNL     1       5.466   2.222  16.406  0.00  0.00    +0.000 HD
BRANCH  15  17
ATOM     17  N   UNL     1       3.772   3.330  16.694  0.00  0.00    +0.000 N 
ATOM     18  H   UNL     1       3.449   4.183  16.228  0.00  0.00    +0.000 HD
BRANCH  17  19
ATOM     19  C   UNL     1       3.106   3.060  17.907  0.00  0.00    +0.000 A 
ATOM     20  C   UNL     1       1.744   3.306  18.106  0.00  0.00    +0.000 A 
ATOM     21  C   UNL     1       1.162   3.174  19.373  0.00  0.00    +0.000 A 
ATOM     22  C   UNL     1       1.937   2.812  20.478  0.00  0.00    +0.000 A 
ATOM     23  C   UNL     1       1.339   2.740  21.851  0.00  0.00    +0.000 C 
ATOM     24  C   UNL     1       3.298   2.562  20.292  0.00  0.00    +0.000 A 
ATOM     25  C   UNL     1       3.875   2.691  19.022  0.00  0.00    +0.000 A 
ENDBRANCH  17  19
ENDBRANCH  15  17
ENDBRANCH   1  15
TORSDOF 6
ENDMDL
MODEL 2
REMARK VINA RESULT:      -6.6      2.500      4.933
REMARK  Name = 
REMARK  8 active torsions:
REMARK  status: ('A' for Active; 'I' for Inactive)
REMARK    1  A    between atoms: C_1  and  C_2
REMARK    2  A    between atoms: C_2  and  C_16
REMARK    3  A    between atoms: N_3  and  N_4
REMARK    4  A    between atoms: N_4  and  C_5
REMARK    5  A    between atoms: C_5  and  N_7
REMARK    6  A    between atoms: N_7  and  N_8
REMARK    7  A    between atoms: N_8  and  C_9
REMARK    8  A    between atoms: C_12  and  C_13
REMARK                            x       y       z     vdW  Elec       q    Type
REMARK                         _______ _______ _______ _____ _____    ______ ____
ROOT
ATOM      1  C   UNL     1       6.985   5.383  17.975  0.00  0.00    +0.000 C 
ATOM      2  S   UNL     1       7.896   5.771  19.318  0.00  0.00    +0.000 S 
ENDROOT
BRANCH   1   3
ATOM      3  N   UNL     1       5.597   5.398  17.852  0.00  0.00    +0.000 N 
ATOM      4  H   UNL     1       5.198   4.498  18.121  0.00  0.00    +0.000 HD
BRANCH   3   7
ATOM      5  C   UNL     1       2.769   4.945  17.827  0.00  0.00    +0.000 C 
ATOM      6  C   UNL     1       3.471   6.255  18.138  0.00  0.00    +0.000 C 
ATOM      7  N   UNL     1       4.764   6.446  18.118  0.00  0.00    +0.000 NA
BRANCH   6   8
ATOM      8  C   UNL     1       2.584   7.399  18.563  0.00  0.00    +0.000 A 
ATOM      9  C   UNL     1       2.069   7.466  19.870  0.00  0.00    +0.000 A 
ATOM     10  C   UNL     1       1.304   8.557  20.282  0.00  0.00    +0.000 A 
ATOM     11  C   UNL     1       1.040   9.590  19.389  0.00  0.00    +0.000 A 
ATOM     12 BR   UNL     1       0.004  11.068  19.952  0.00  0.00    +0.000 Br
ATOM     13  C   UNL     1       1.532   9.540  18.085  0.00  0.00    +0.000 A 
ATOM     14  C   UNL     1       2.305   8.444  17.676  0.00  0.00    +0.000 A 
ENDBRANCH   6   8
ENDBRANCH   3   7
ENDBRANCH   1   3
BRANCH   1  15
ATOM     15  N   UNL     1       7.619   5.025  16.792  0.00  0.00    +0.000 N 
ATOM     16  H   UNL     1       8.603   4.779  16.893  0.00  0.00    +0.000 HD
BRANCH  15  17
ATOM     17  N   UNL     1       7.335   5.766  15.628  0.00  0.00    +0.000 N 
ATOM     18  H   UNL     1       6.891   6.672  15.800  0.00  0.00    +0.000 HD
BRANCH  17  19
ATOM     19  C   UNL     1       6.773   5.054  14.548  0.00  0.00    +0.000 A 
ATOM     20  C   UNL     1       5.581   4.329  14.645  0.00  0.00    +0.000 A 
ATOM     21  C   UNL     1       5.146   3.508  13.597  0.00  0.00    +0.000 A 
ATOM     22  C   UNL     1       5.907   3.378  12.432  0.00  0.00    +0.000 A 
ATOM     23  C   UNL     1       5.487   2.446  11.335  0.00  0.00    +0.000 C 
ATOM     24  C   UNL     1       7.098   4.099  12.322  0.00  0.00    +0.000 A 
ATOM     25  C   UNL     1       7.526   4.922  13.372  0.00  0.00    +0.000 A 
ENDBRANCH  17  19
ENDBRANCH  15  17
ENDBRANCH   1  15
TORSDOF 6
ENDMDL
MODEL 3
REMARK VINA RESULT:      -6.5      3.690      6.424
REMARK  Name = 
REMARK  8 active torsions:
REMARK  status: ('A' for Active; 'I' for Inactive)
REMARK    1  A    between atoms: C_1  and  C_2
REMARK    2  A    between atoms: C_2  and  C_16
REMARK    3  A    between atoms: N_3  and  N_4
REMARK    4  A    between atoms: N_4  and  C_5
REMARK    5  A    between atoms: C_5  and  N_7
REMARK    6  A    between atoms: N_7  and  N_8
REMARK    7  A    between atoms: N_8  and  C_9
REMARK    8  A    between atoms: C_12  and  C_13
REMARK                            x       y       z     vdW  Elec       q    Type
REMARK                         _______ _______ _______ _____ _____    ______ ____
ROOT
ATOM      1  C   UNL     1       2.488   3.814  20.292  0.00  0.00    +0.000 C 
ATOM      2  S   UNL     1       1.525   2.818  21.222  0.00  0.00    +0.000 S 
ENDROOT
BRANCH   1   3
ATOM      3  N   UNL     1       3.768   3.554  19.807  0.00  0.00    +0.000 N 
ATOM      4  H   UNL     1       4.175   2.743  20.272  0.00  0.00    +0.000 HD
BRANCH   3   7
ATOM      5  C   UNL     1       6.032   5.229  19.291  0.00  0.00    +0.000 C 
ATOM      6  C   UNL     1       5.246   4.434  18.264  0.00  0.00    +0.000 C 
ATOM      7  N   UNL     1       4.198   3.695  18.519  0.00  0.00    +0.000 NA
BRANCH   6   8
ATOM      8  C   UNL     1       5.775   4.465  16.853  0.00  0.00    +0.000 A 
ATOM      9  C   UNL     1       4.942   4.162  15.762  0.00  0.00    +0.000 A 
ATOM     10  C   UNL     1       5.415   4.256  14.452  0.00  0.00    +0.000 A 
ATOM     11  C   UNL     1       6.729   4.647  14.221  0.00  0.00    +0.000 A 
ATOM     12 BR   UNL     1       7.365   4.776  12.445  0.00  0.00    +0.000 Br
ATOM     13  C   UNL     1       7.576   4.944  15.288  0.00  0.00    +0.000 A 
ATOM     14  C   UNL     1       7.096   4.853  16.602  0.00  0.00    +0.000 A 
ENDBRANCH   6   8
ENDBRANCH   3   7
ENDBRANCH   1   3
BRANCH   1  15
ATOM     15  N   UNL     1       2.009   5.054  19.889  0.00  0.00    +0.000 N 
ATOM     16  H   UNL     1       1.603   5.071  18.954  0.00  0.00    +0.000 HD
BRANCH  15  17
ATOM     17  N   UNL     1       2.769   6.200  20.199  0.00  0.00    +0.000 N 
ATOM     18  H   UNL     1       3.221   6.173  21.117  0.00  0.00    +0.000 HD
BRANCH  17  19
ATOM     19  C   UNL     1       2.186   7.446  19.889  0.00  0.00    +0.000 A 
ATOM     20  C   UNL     1       1.388   8.164  20.787  0.00  0.00    +0.000 A 
ATOM     21  C   UNL     1       0.700   9.315  20.383  0.00  0.00    +0.000 A 
ATOM     22  C   UNL     1       0.779   9.764  19.062  0.00  0.00    +0.000 A 
ATOM     23  C   UNL     1      -0.012  10.952  18.602  0.00  0.00    +0.000 C 
ATOM     24  C   UNL     1       1.574   9.057  18.157  0.00  0.00    +0.000 A 
ATOM     25  C   UNL     1       2.263   7.909  18.567  0.00  0.00    +0.000 A 
ENDBRANCH  17  19
ENDBRANCH  15  17
ENDBRANCH   1  15
TORSDOF 6
ENDMDL
MODEL 4
REMARK VINA RESULT:      -6.5      2.523      4.986
REMARK  Name = 
REMARK  8 active torsions:
REMARK  status: ('A' for Active; 'I' for Inactive)
REMARK    1  A    between atoms: C_1  and  C_2
REMARK    2  A    between atoms: C_2  and  C_16
REMARK    3  A    between atoms: N_3  and  N_4
REMARK    4  A    between atoms: N_4  and  C_5
REMARK    5  A    between atoms: C_5  and  N_7
REMARK    6  A    between atoms: N_7  and  N_8
REMARK    7  A    between atoms: N_8  and  C_9
REMARK    8  A    between atoms: C_12  and  C_13
REMARK                            x       y       z     vdW  Elec       q    Type
REMARK                         _______ _______ _______ _____ _____    ______ ____
ROOT
ATOM      1  C   UNL     1       6.967   5.462  17.888  0.00  0.00    +0.000 C 
ATOM      2  S   UNL     1       7.796   5.724  19.312  0.00  0.00    +0.000 S 
ENDROOT
BRANCH   1   3
ATOM      3  N   UNL     1       5.588   5.476  17.688  0.00  0.00    +0.000 N 
ATOM      4  H   UNL     1       5.181   4.566  17.900  0.00  0.00    +0.000 HD
BRANCH   3   7
ATOM      5  C   UNL     1       2.815   4.897  18.106  0.00  0.00    +0.000 C 
ATOM      6  C   UNL     1       3.470   6.265  18.167  0.00  0.00    +0.000 C 
ATOM      7  N   UNL     1       4.735   6.510  17.948  0.00  0.00    +0.000 NA
BRANCH   6   8
ATOM      8  C   UNL     1       2.579   7.410  18.580  0.00  0.00    +0.000 A 
ATOM      9  C   UNL     1       2.082   7.502  19.892  0.00  0.00    +0.000 A 
ATOM     10  C   UNL     1       1.314   8.596  20.290  0.00  0.00    +0.000 A 
ATOM     11  C   UNL     1       1.027   9.605  19.378  0.00  0.00    +0.000 A 
ATOM     12 BR   UNL     1      -0.014  11.087  19.923  0.00  0.00    +0.000 Br
ATOM     13  C   UNL     1       1.501   9.531  18.069  0.00  0.00    +0.000 A 
ATOM     14  C   UNL     1       2.277   8.432  17.673  0.00  0.00    +0.000 A 
ENDBRANCH   6   8
ENDBRANCH   3   7
ENDBRANCH   1   3
BRANCH   1  15
ATOM     15  N   UNL     1       7.671   5.228  16.714  0.00  0.00    +0.000 N 
ATOM     16  H   UNL     1       8.685   5.251  16.813  0.00  0.00    +0.000 HD
BRANCH  15  17
ATOM     17  N   UNL     1       7.204   5.818  15.522  0.00  0.00    +0.000 N 
ATOM     18  H   UNL     1       6.564   6.605  15.662  0.00  0.00    +0.000 HD
BRANCH  17  19
ATOM     19  C   UNL     1       6.804   4.937  14.496  0.00  0.00    +0.000 A 
ATOM     20  C   UNL     1       7.496   4.803  13.288  0.00  0.00    +0.000 A 
ATOM     21  C   UNL     1       6.975   4.039  12.236  0.00  0.00    +0.000 A 
ATOM     22  C   UNL     1       5.735   3.407  12.362  0.00  0.00    +0.000 A 
ATOM     23  C   UNL     1       5.135   2.648  11.217  0.00  0.00    +0.000 C 
ATOM     24  C   UNL     1       5.035   3.533  13.564  0.00  0.00    +0.000 A 
ATOM     25  C   UNL     1       5.563   4.294  14.615  0.00  0.00    +0.000 A 
ENDBRANCH  17  19
ENDBRANCH  15  17
ENDBRANCH   1  15
TORSDOF 6
ENDMDL
MODEL 5
REMARK VINA RESULT:      -6.4      2.742      4.909
REMARK  Name = 
REMARK  8 active torsions:
REMARK  status: ('A' for Active; 'I' for Inactive)
REMARK    1  A    between atoms: C_1  and  C_2
REMARK    2  A    between atoms: C_2  and  C_16
REMARK    3  A    between atoms: N_3  and  N_4
REMARK    4  A    between atoms: N_4  and  C_5
REMARK    5  A    between atoms: C_5  and  N_7
REMARK    6  A    between atoms: N_7  and  N_8
REMARK    7  A    between atoms: N_8  and  C_9
REMARK    8  A    between atoms: C_12  and  C_13
REMARK                            x       y       z     vdW  Elec       q    Type
REMARK                         _______ _______ _______ _____ _____    ______ ____
ROOT
ATOM      1  C   UNL     1       4.466   3.182  18.982  0.00  0.00    +0.000 C 
ATOM      2  S   UNL     1       4.021   1.851  19.885  0.00  0.00    +0.000 S 
ENDROOT
BRANCH   1   3
ATOM      3  N   UNL     1       3.718   3.841  18.009  0.00  0.00    +0.000 N 
ATOM      4  H   UNL     1       3.004   3.226  17.620  0.00  0.00    +0.000 HD
BRANCH   3   7
ATOM      5  C   UNL     1       1.776   4.694  19.932  0.00  0.00    +0.000 C 
ATOM      6  C   UNL     1       2.472   5.568  18.904  0.00  0.00    +0.000 C 
ATOM      7  N   UNL     1       3.337   5.152  18.018  0.00  0.00    +0.000 NA
BRANCH   6   8
ATOM      8  C   UNL     1       2.171   7.044  18.975  0.00  0.00    +0.000 A 
ATOM      9  C   UNL     1       2.338   7.870  17.849  0.00  0.00    +0.000 A 
ATOM     10  C   UNL     1       1.996   9.222  17.897  0.00  0.00    +0.000 A 
ATOM     11  C   UNL     1       1.490   9.763  19.073  0.00  0.00    +0.000 A 
ATOM     12 BR   UNL     1       1.025  11.595  19.132  0.00  0.00    +0.000 Br
ATOM     13  C   UNL     1       1.324   8.966  20.205  0.00  0.00    +0.000 A 
ATOM     14  C   UNL     1       1.664   7.606  20.152  0.00  0.00    +0.000 A 
ENDBRANCH   6   8
ENDBRANCH   3   7
ENDBRANCH   1   3
BRANCH   1  15
ATOM     15  N   UNL     1       5.703   3.777  19.195  0.00  0.00    +0.000 N 
ATOM     16  H   UNL     1       5.745   4.398  20.001  0.00  0.00    +0.000 HD
BRANCH  15  17
ATOM     17  N   UNL     1       6.422   4.247  18.078  0.00  0.00    +0.000 N 
ATOM     18  H   UNL     1       7.153   3.612  17.746  0.00  0.00    +0.000 HD
BRANCH  17  19
ATOM     19  C   UNL     1       6.816   5.601  18.105  0.00  0.00    +0.000 A 
ATOM     20  C   UNL     1       6.340   6.556  17.200  0.00  0.00    +0.000 A 
ATOM     21  C   UNL     1       6.878   7.848  17.162  0.00  0.00    +0.000 A 
ATOM     22  C   UNL     1       7.923   8.209  18.016  0.00  0.00    +0.000 A 
ATOM     23  C   UNL     1       8.556   9.566  17.933  0.00  0.00    +0.000 C 
ATOM     24  C   UNL     1       8.406   7.265  18.925  0.00  0.00    +0.000 A 
ATOM     25  C   UNL     1       7.861   5.975  18.962  0.00  0.00    +0.000 A 
ENDBRANCH  17  19
ENDBRANCH  15  17
ENDBRANCH   1  15
TORSDOF 6
ENDMDL
MODEL 6
REMARK VINA RESULT:      -6.4      2.054      2.527
REMARK  Name = 
REMARK  8 active torsions:
REMARK  status: ('A' for Active; 'I' for Inactive)
REMARK    1  A    between atoms: C_1  and  C_2
REMARK    2  A    between atoms: C_2  and  C_16
REMARK    3  A    between atoms: N_3  and  N_4
REMARK    4  A    between atoms: N_4  and  C_5
REMARK    5  A    between atoms: C_5  and  N_7
REMARK    6  A    between atoms: N_7  and  N_8
REMARK    7  A    between atoms: N_8  and  C_9
REMARK    8  A    between atoms: C_12  and  C_13
REMARK                            x       y       z     vdW  Elec       q    Type
REMARK                         _______ _______ _______ _____ _____    ______ ____
ROOT
ATOM      1  C   UNL     1       6.398   5.085  18.812  0.00  0.00    +0.000 C 
ATOM      2  S   UNL     1       7.763   6.045  18.848  0.00  0.00    +0.000 S 
ENDROOT
BRANCH   1   3
ATOM      3  N   UNL     1       5.169   5.327  19.421  0.00  0.00    +0.000 N 
ATOM      4  H   UNL     1       5.207   5.107  20.416  0.00  0.00    +0.000 HD
BRANCH   3   7
ATOM      5  C   UNL     1       2.542   5.246  20.560  0.00  0.00    +0.000 C 
ATOM      6  C   UNL     1       3.106   6.337  19.667  0.00  0.00    +0.000 C 
ATOM      7  N   UNL     1       4.300   6.341  19.137  0.00  0.00    +0.000 NA
BRANCH   6   8
ATOM      8  C   UNL     1       2.217   7.535  19.441  0.00  0.00    +0.000 A 
ATOM      9  C   UNL     1       1.503   8.116  20.504  0.00  0.00    +0.000 A 
ATOM     10  C   UNL     1       0.735   9.263  20.307  0.00  0.00    +0.000 A 
ATOM     11  C   UNL     1       0.666   9.837  19.043  0.00  0.00    +0.000 A 
ATOM     12 BR   UNL     1      -0.375  11.394  18.780  0.00  0.00    +0.000 Br
ATOM     13  C   UNL     1       1.358   9.273  17.971  0.00  0.00    +0.000 A 
ATOM     14  C   UNL     1       2.133   8.123  18.174  0.00  0.00    +0.000 A 
ENDBRANCH   6   8
ENDBRANCH   3   7
ENDBRANCH   1   3
BRANCH   1  15
ATOM     15  N   UNL     1       6.405   3.906  18.078  0.00  0.00    +0.000 N 
ATOM     16  H   UNL     1       7.332   3.540  17.867  0.00  0.00    +0.000 HD
BRANCH  15  17
ATOM     17  N   UNL     1       5.486   3.770  17.018  0.00  0.00    +0.000 N 
ATOM     18  H   UNL     1       5.494   4.545  16.348  0.00  0.00    +0.000 HD
BRANCH  17  19
ATOM     19  C   UNL     1       4.192   3.326  17.357  0.00  0.00    +0.000 A 
ATOM     20  C   UNL     1       3.025   3.986  16.955  0.00  0.00    +0.000 A 
ATOM     21  C   UNL     1       1.771   3.604  17.447  0.00  0.00    +0.000 A 
ATOM     22  C   UNL     1       1.657   2.563  18.372  0.00  0.00    +0.000 A 
ATOM     23  C   UNL     1       0.328   2.194  18.961  0.00  0.00    +0.000 C 
ATOM     24  C   UNL     1       2.814   1.895  18.779  0.00  0.00    +0.000 A 
ATOM     25  C   UNL     1       4.066   2.278  18.280  0.00  0.00    +0.000 A 
ENDBRANCH  17  19
ENDBRANCH  15  17
ENDBRANCH   1  15
TORSDOF 6
ENDMDL
MODEL 7
REMARK VINA RESULT:      -6.4      3.737      6.555
REMARK  Name = 
REMARK  8 active torsions:
REMARK  status: ('A' for Active; 'I' for Inactive)
REMARK    1  A    between atoms: C_1  and  C_2
REMARK    2  A    between atoms: C_2  and  C_16
REMARK    3  A    between atoms: N_3  and  N_4
REMARK    4  A    between atoms: N_4  and  C_5
REMARK    5  A    between atoms: C_5  and  N_7
REMARK    6  A    between atoms: N_7  and  N_8
REMARK    7  A    between atoms: N_8  and  C_9
REMARK    8  A    between atoms: C_12  and  C_13
REMARK                            x       y       z     vdW  Elec       q    Type
REMARK                         _______ _______ _______ _____ _____    ______ ____
ROOT
ATOM      1  C   UNL     1       2.305   4.452  20.345  0.00  0.00    +0.000 C 
ATOM      2  S   UNL     1       1.145   3.254  20.406  0.00  0.00    +0.000 S 
ENDROOT
BRANCH   1   3
ATOM      3  N   UNL     1       3.609   4.354  19.866  0.00  0.00    +0.000 N 
ATOM      4  H   UNL     1       4.148   3.684  20.414  0.00  0.00    +0.000 HD
BRANCH   3   7
ATOM      5  C   UNL     1       6.267   5.244  19.280  0.00  0.00    +0.000 C 
ATOM      6  C   UNL     1       5.225   4.790  18.273  0.00  0.00    +0.000 C 
ATOM      7  N   UNL     1       4.008   4.412  18.561  0.00  0.00    +0.000 NA
BRANCH   6   8
ATOM      8  C   UNL     1       5.677   4.719  16.836  0.00  0.00    +0.000 A 
ATOM      9  C   UNL     1       6.980   5.095  16.469  0.00  0.00    +0.000 A 
ATOM     10  C   UNL     1       7.418   4.965  15.151  0.00  0.00    +0.000 A 
ATOM     11  C   UNL     1       6.554   4.464  14.184  0.00  0.00    +0.000 A 
ATOM     12 BR   UNL     1       7.152   4.288  12.399  0.00  0.00    +0.000 Br
ATOM     13  C   UNL     1       5.253   4.093  14.523  0.00  0.00    +0.000 A 
ATOM     14  C   UNL     1       4.818   4.221  15.850  0.00  0.00    +0.000 A 
ENDBRANCH   6   8
ENDBRANCH   3   7
ENDBRANCH   1   3
BRANCH   1  15
ATOM     15  N   UNL     1       1.993   5.735  20.777  0.00  0.00    +0.000 N 
ATOM     16  H   UNL     1       0.995   5.922  20.873  0.00  0.00    +0.000 HD
BRANCH  15  17
ATOM     17  N   UNL     1       2.725   6.817  20.249  0.00  0.00    +0.000 N 
ATOM     18  H   UNL     1       3.590   7.029  20.754  0.00  0.00    +0.000 HD
BRANCH  17  19
ATOM     19  C   UNL     1       1.987   7.961  19.883  0.00  0.00    +0.000 A 
ATOM     20  C   UNL     1       1.090   8.603  20.744  0.00  0.00    +0.000 A 
ATOM     21  C   UNL     1       0.261   9.635  20.288  0.00  0.00    +0.000 A 
ATOM     22  C   UNL     1       0.294  10.035  18.950  0.00  0.00    +0.000 A 
ATOM     23  C   UNL     1      -0.641  11.088  18.434  0.00  0.00    +0.000 C 
ATOM     24  C   UNL     1       1.186   9.404  18.081  0.00  0.00    +0.000 A 
ATOM     25  C   UNL     1       2.017   8.375  18.543  0.00  0.00    +0.000 A 
ENDBRANCH  17  19
ENDBRANCH  15  17
ENDBRANCH   1  15
TORSDOF 6
ENDMDL
MODEL 8
REMARK VINA RESULT:      -6.3      3.189      5.085
REMARK  Name = 
REMARK  8 active torsions:
REMARK  status: ('A' for Active; 'I' for Inactive)
REMARK    1  A    between atoms: C_1  and  C_2
REMARK    2  A    between atoms: C_2  and  C_16
REMARK    3  A    between atoms: N_3  and  N_4
REMARK    4  A    between atoms: N_4  and  C_5
REMARK    5  A    between atoms: C_5  and  N_7
REMARK    6  A    between atoms: N_7  and  N_8
REMARK    7  A    between atoms: N_8  and  C_9
REMARK    8  A    between atoms: C_12  and  C_13
REMARK                            x       y       z     vdW  Elec       q    Type
REMARK                         _______ _______ _______ _____ _____    ______ ____
ROOT
ATOM      1  C   UNL     1       2.127   4.695  19.882  0.00  0.00    +0.000 C 
ATOM      2  S   UNL     1       1.281   3.484  20.658  0.00  0.00    +0.000 S 
ENDROOT
BRANCH   1   3
ATOM      3  N   UNL     1       2.671   5.849  20.441  0.00  0.00    +0.000 N 
ATOM      4  H   UNL     1       3.478   6.168  19.905  0.00  0.00    +0.000 HD
BRANCH   3   7
ATOM      5  C   UNL     1       2.099   8.183  18.883  0.00  0.00    +0.000 C 
ATOM      6  C   UNL     1       1.693   7.939  20.325  0.00  0.00    +0.000 C 
ATOM      7  N   UNL     1       1.987   6.876  21.026  0.00  0.00    +0.000 NA
BRANCH   6   8
ATOM      8  C   UNL     1       0.824   8.997  20.959  0.00  0.00    +0.000 A 
ATOM      9  C   UNL     1       0.202   9.984  20.175  0.00  0.00    +0.000 A 
ATOM     10  C   UNL     1      -0.655  10.922  20.754  0.00  0.00    +0.000 A 
ATOM     11  C   UNL     1      -0.891  10.886  22.123  0.00  0.00    +0.000 A 
ATOM     12 BR   UNL     1      -2.053  12.157  22.903  0.00  0.00    +0.000 Br
ATOM     13  C   UNL     1      -0.277   9.922  22.922  0.00  0.00    +0.000 A 
ATOM     14  C   UNL     1       0.579   8.978  22.336  0.00  0.00    +0.000 A 
ENDBRANCH   6   8
ENDBRANCH   3   7
ENDBRANCH   1   3
BRANCH   1  15
ATOM     15  N   UNL     1       2.386   4.592  18.521  0.00  0.00    +0.000 N 
ATOM     16  H   UNL     1       1.576   4.354  17.949  0.00  0.00    +0.000 HD
BRANCH  15  17
ATOM     17  N   UNL     1       3.576   3.960  18.110  0.00  0.00    +0.000 N 
ATOM     18  H   UNL     1       3.789   3.092  18.611  0.00  0.00    +0.000 HD
BRANCH  17  19
ATOM     19  C   UNL     1       4.698   4.791  17.913  0.00  0.00    +0.000 A 
ATOM     20  C   UNL     1       5.776   4.849  18.803  0.00  0.00    +0.000 A 
ATOM     21  C   UNL     1       6.789   5.804  18.652  0.00  0.00    +0.000 A 
ATOM     22  C   UNL     1       6.735   6.740  17.615  0.00  0.00    +0.000 A 
ATOM     23  C   UNL     1       7.776   7.812  17.488  0.00  0.00    +0.000 C 
ATOM     24  C   UNL     1       5.665   6.691  16.719  0.00  0.00    +0.000 A 
ATOM     25  C   UNL     1       4.657   5.731  16.872  0.00  0.00    +0.000 A 
ENDBRANCH  17  19
ENDBRANCH  15  17
ENDBRANCH   1  15
TORSDOF 6
ENDMDL
MODEL 9
REMARK VINA RESULT:      -6.3      2.497      5.118
REMARK  Name = 
REMARK  8 active torsions:
REMARK  status: ('A' for Active; 'I' for Inactive)
REMARK    1  A    between atoms: C_1  and  C_2
REMARK    2  A    between atoms: C_2  and  C_16
REMARK    3  A    between atoms: N_3  and  N_4
REMARK    4  A    between atoms: N_4  and  C_5
REMARK    5  A    between atoms: C_5  and  N_7
REMARK    6  A    between atoms: N_7  and  N_8
REMARK    7  A    between atoms: N_8  and  C_9
REMARK    8  A    between atoms: C_12  and  C_13
REMARK                            x       y       z     vdW  Elec       q    Type
REMARK                         _______ _______ _______ _____ _____    ______ ____
ROOT
ATOM      1  C   UNL     1       6.387   5.522  17.557  0.00  0.00    +0.000 C 
ATOM      2  S   UNL     1       7.733   4.853  18.283  0.00  0.00    +0.000 S 
ENDROOT
BRANCH   1   3
ATOM      3  N   UNL     1       5.068   5.480  18.004  0.00  0.00    +0.000 N 
ATOM      4  H   UNL     1       4.970   4.838  18.790  0.00  0.00    +0.000 HD
BRANCH   3   7
ATOM      5  C   UNL     1       2.795   5.270  19.733  0.00  0.00    +0.000 C 
ATOM      6  C   UNL     1       3.161   6.460  18.864  0.00  0.00    +0.000 C 
ATOM      7  N   UNL     1       4.190   6.524  18.062  0.00  0.00    +0.000 NA
BRANCH   6   8
ATOM      8  C   UNL     1       2.284   7.679  19.004  0.00  0.00    +0.000 A 
ATOM      9  C   UNL     1       1.948   8.460  17.884  0.00  0.00    +0.000 A 
ATOM     10  C   UNL     1       1.083   9.548  18.004  0.00  0.00    +0.000 A 
ATOM     11  C   UNL     1       0.551   9.871  19.247  0.00  0.00    +0.000 A 
ATOM     12 BR   UNL     1      -0.622  11.346  19.405  0.00  0.00    +0.000 Br
ATOM     13  C   UNL     1       0.878   9.117  20.374  0.00  0.00    +0.000 A 
ATOM     14  C   UNL     1       1.743   8.021  20.249  0.00  0.00    +0.000 A 
ENDBRANCH   6   8
ENDBRANCH   3   7
ENDBRANCH   1   3
BRANCH   1  15
ATOM     15  N   UNL     1       6.527   6.249  16.382  0.00  0.00    +0.000 N 
ATOM     16  H   UNL     1       5.660   6.642  16.017  0.00  0.00    +0.000 HD
BRANCH  15  17
ATOM     17  N   UNL     1       7.389   5.752  15.385  0.00  0.00    +0.000 N 
ATOM     18  H   UNL     1       8.100   6.418  15.069  0.00  0.00    +0.000 HD
BRANCH  17  19
ATOM     19  C   UNL     1       6.790   5.023  14.337  0.00  0.00    +0.000 A 
ATOM     20  C   UNL     1       5.539   4.406  14.451  0.00  0.00    +0.000 A 
ATOM     21  C   UNL     1       5.056   3.559  13.445  0.00  0.00    +0.000 A 
ATOM     22  C   UNL     1       5.824   3.294  12.308  0.00  0.00    +0.000 A 
ATOM     23  C   UNL     1       5.348   2.333  11.261  0.00  0.00    +0.000 C 
ATOM     24  C   UNL     1       7.073   3.907  12.183  0.00  0.00    +0.000 A 
ATOM     25  C   UNL     1       7.550   4.756  13.189  0.00  0.00    +0.000 A 
ENDBRANCH  17  19
ENDBRANCH  15  17
ENDBRANCH   1  15
TORSDOF 6
ENDMDL
