MODEL 1
REMARK VINA RESULT:      -8.6      0.000      0.000
REMARK  Name = 
REMARK  6 active torsions:
REMARK  status: ('A' for Active; 'I' for Inactive)
REMARK    1  A    between atoms: C_1  and  N_2
REMARK    2  A    between atoms: C_4  and  C_5
REMARK    3  A    between atoms: C_9  and  O_10
REMARK    4  A    between atoms: O_10  and  C_11
REMARK    5  A    between atoms: C_19  and  S_20
REMARK    6  A    between atoms: S_20  and  N_23
REMARK                            x       y       z     vdW  Elec       q    Type
REMARK                         _______ _______ _______ _____ _____    ______ ____
ROOT
ATOM      1  C   UNL     1       2.742   3.519  20.253  0.00  0.00    +0.000 C 
ATOM      2  N   UNL     1       2.784   4.842  19.669  0.00  0.00    +0.000 N 
ATOM      3  C   UNL     1       2.004   5.891  20.073  0.00  0.00    +0.000 A 
ATOM      4  C   UNL     1       2.335   7.001  19.318  0.00  0.00    +0.000 A 
ATOM      5  C   UNL     1       3.343   6.584  18.388  0.00  0.00    +0.000 A 
ATOM      6  C   UNL     1       4.066   7.235  17.365  0.00  0.00    +0.000 A 
ATOM      7  C   UNL     1       5.022   6.534  16.630  0.00  0.00    +0.000 A 
ATOM      8  C   UNL     1       5.296   5.200  16.931  0.00  0.00    +0.000 A 
ATOM      9  C   UNL     1       4.598   4.518  17.936  0.00  0.00    +0.000 A 
ATOM     10  C   UNL     1       3.622   5.235  18.647  0.00  0.00    +0.000 A 
ENDROOT
BRANCH   4  11
ATOM     11  C   UNL     1       1.728   8.313  19.535  0.00  0.00    +0.000 A 
ATOM     12  C   UNL     1       1.446   9.163  18.459  0.00  0.00    +0.000 A 
ATOM     13  C   UNL     1       0.919  10.434  18.687  0.00  0.00    +0.000 A 
ATOM     14  C   UNL     1       0.623  10.841  19.988  0.00  0.00    +0.000 A 
ATOM     15  C   UNL     1       0.841   9.982  21.066  0.00  0.00    +0.000 A 
ATOM     16  C   UNL     1       1.438   8.742  20.838  0.00  0.00    +0.000 A 
BRANCH  15  17
ATOM     17  O   UNL     1       0.494  10.484  22.282  0.00  0.00    +0.000 OA
BRANCH  17  18
ATOM     18  C   UNL     1      -0.385   9.739  23.114  0.00  0.00    +0.000 C 
ATOM     19  F   UNL     1       0.192   9.217  24.218  0.00  0.00    +0.000 F 
ATOM     20  F   UNL     1      -1.413  10.528  23.497  0.00  0.00    +0.000 F 
ATOM     21  F   UNL     1      -0.891   8.712  22.394  0.00  0.00    +0.000 F 
ENDBRANCH  17  18
ENDBRANCH  15  17
ENDBRANCH   4  11
BRANCH   8  22
ATOM     22  S   UNL     1       6.486   4.336  15.944  0.00  0.00    +0.000 S 
ATOM     23  O   UNL     1       7.802   4.636  16.473  0.00  0.00    +0.000 OA
ATOM     24  O   UNL     1       6.040   2.970  15.803  0.00  0.00    +0.000 OA
BRANCH  22  25
ATOM     25  N   UNL     1       6.394   5.163  14.467  0.00  0.00    +0.000 N 
ATOM     26  C   UNL     1       6.328   4.273  13.373  0.00  0.00    +0.000 A 
ATOM     27  N   UNL     1       7.379   4.063  12.622  0.00  0.00    +0.000 NA
ATOM     28  C   UNL     1       7.013   3.129  11.663  0.00  0.00    +0.000 A 
ATOM     29  N   UNL     1       5.747   2.719  11.560  0.00  0.00    +0.000 NA
ATOM     30  S   UNL     1       4.921   3.477  12.804  0.00  0.00    +0.000 S 
ATOM     31  H   UNL     1       7.245   5.723  14.399  0.00  0.00    +0.000 HD
ENDBRANCH  22  25
ENDBRANCH   8  22
TORSDOF 5
ENDMDL
MODEL 2
REMARK VINA RESULT:      -8.5      6.152     10.429
REMARK  Name = 
REMARK  6 active torsions:
REMARK  status: ('A' for Active; 'I' for Inactive)
REMARK    1  A    between atoms: C_1  and  N_2
REMARK    2  A    between atoms: C_4  and  C_5
REMARK    3  A    between atoms: C_9  and  O_10
REMARK    4  A    between atoms: O_10  and  C_11
REMARK    5  A    between atoms: C_19  and  S_20
REMARK    6  A    between atoms: S_20  and  N_23
REMARK                            x       y       z     vdW  Elec       q    Type
REMARK                         _______ _______ _______ _____ _____    ______ ____
ROOT
ATOM      1  C   UNL     1       1.712  12.078  17.942  0.00  0.00    +0.000 C 
ATOM      2  N   UNL     1       1.579  10.819  18.642  0.00  0.00    +0.000 N 
ATOM      3  C   UNL     1       2.149   9.643  18.235  0.00  0.00    +0.000 A 
ATOM      4  C   UNL     1       1.839   8.662  19.157  0.00  0.00    +0.000 A 
ATOM      5  C   UNL     1       1.008   9.276  20.152  0.00  0.00    +0.000 A 
ATOM      6  C   UNL     1       0.370   8.811  21.322  0.00  0.00    +0.000 A 
ATOM      7  C   UNL     1      -0.374   9.689  22.109  0.00  0.00    +0.000 A 
ATOM      8  C   UNL     1      -0.456  11.039  21.763  0.00  0.00    +0.000 A 
ATOM      9  C   UNL     1       0.159  11.538  20.608  0.00  0.00    +0.000 A 
ATOM     10  C   UNL     1       0.882  10.631  19.817  0.00  0.00    +0.000 A 
ENDROOT
BRANCH   4  11
ATOM     11  C   UNL     1       2.344   7.294  19.055  0.00  0.00    +0.000 A 
ATOM     12  C   UNL     1       3.043   6.866  17.921  0.00  0.00    +0.000 A 
ATOM     13  C   UNL     1       3.469   5.542  17.815  0.00  0.00    +0.000 A 
ATOM     14  C   UNL     1       3.243   4.653  18.865  0.00  0.00    +0.000 A 
ATOM     15  C   UNL     1       2.602   5.080  20.029  0.00  0.00    +0.000 A 
ATOM     16  C   UNL     1       2.113   6.384  20.097  0.00  0.00    +0.000 A 
BRANCH  15  17
ATOM     17  O   UNL     1       2.458   4.127  20.990  0.00  0.00    +0.000 OA
BRANCH  17  18
ATOM     18  C   UNL     1       1.434   3.152  20.850  0.00  0.00    +0.000 C 
ATOM     19  F   UNL     1       0.970   2.651  22.015  0.00  0.00    +0.000 F 
ATOM     20  F   UNL     1       0.397   3.687  20.168  0.00  0.00    +0.000 F 
ATOM     21  F   UNL     1       1.921   2.119  20.126  0.00  0.00    +0.000 F 
ENDBRANCH  17  18
ENDBRANCH  15  17
ENDBRANCH   4  11
BRANCH   8  22
ATOM     22  S   UNL     1      -1.448  12.111  22.766  0.00  0.00    +0.000 S 
ATOM     23  O   UNL     1      -2.304  11.280  23.590  0.00  0.00    +0.000 OA
ATOM     24  O   UNL     1      -0.576  13.094  23.364  0.00  0.00    +0.000 OA
BRANCH  22  25
ATOM     25  N   UNL     1      -2.476  12.823  21.622  0.00  0.00    +0.000 N 
ATOM     26  C   UNL     1      -3.716  13.188  22.188  0.00  0.00    +0.000 A 
ATOM     27  N   UNL     1      -4.786  12.467  21.967  0.00  0.00    +0.000 NA
ATOM     28  C   UNL     1      -5.825  13.056  22.674  0.00  0.00    +0.000 A 
ATOM     29  N   UNL     1      -5.649  14.220  23.301  0.00  0.00    +0.000 NA
ATOM     30  S   UNL     1      -4.034  14.612  23.087  0.00  0.00    +0.000 S 
ATOM     31  H   UNL     1      -2.626  12.120  20.896  0.00  0.00    +0.000 HD
ENDBRANCH  22  25
ENDBRANCH   8  22
TORSDOF 5
ENDMDL
MODEL 3
REMARK VINA RESULT:      -8.4      5.825      8.847
REMARK  Name = 
REMARK  6 active torsions:
REMARK  status: ('A' for Active; 'I' for Inactive)
REMARK    1  A    between atoms: C_1  and  N_2
REMARK    2  A    between atoms: C_4  and  C_5
REMARK    3  A    between atoms: C_9  and  O_10
REMARK    4  A    between atoms: O_10  and  C_11
REMARK    5  A    between atoms: C_19  and  S_20
REMARK    6  A    between atoms: S_20  and  N_23
REMARK                            x       y       z     vdW  Elec       q    Type
REMARK                         _______ _______ _______ _____ _____    ______ ____
ROOT
ATOM      1  C   UNL     1       0.284   8.265  22.268  0.00  0.00    +0.000 C 
ATOM      2  N   UNL     1       0.976   8.152  21.002  0.00  0.00    +0.000 N 
ATOM      3  C   UNL     1       1.686   7.052  20.604  0.00  0.00    +0.000 A 
ATOM      4  C   UNL     1       2.179   7.283  19.334  0.00  0.00    +0.000 A 
ATOM      5  C   UNL     1       1.770   8.607  18.965  0.00  0.00    +0.000 A 
ATOM      6  C   UNL     1       1.963   9.413  17.822  0.00  0.00    +0.000 A 
ATOM      7  C   UNL     1       1.402  10.688  17.762  0.00  0.00    +0.000 A 
ATOM      8  C   UNL     1       0.615  11.155  18.815  0.00  0.00    +0.000 A 
ATOM      9  C   UNL     1       0.403  10.388  19.968  0.00  0.00    +0.000 A 
ATOM     10  C   UNL     1       0.998   9.118  20.018  0.00  0.00    +0.000 A 
ENDROOT
BRANCH   4  11
ATOM     11  C   UNL     1       2.938   6.282  18.587  0.00  0.00    +0.000 A 
ATOM     12  C   UNL     1       2.335   5.095  18.156  0.00  0.00    +0.000 A 
ATOM     13  C   UNL     1       3.088   4.125  17.493  0.00  0.00    +0.000 A 
ATOM     14  C   UNL     1       4.433   4.360  17.213  0.00  0.00    +0.000 A 
ATOM     15  C   UNL     1       5.034   5.565  17.581  0.00  0.00    +0.000 A 
ATOM     16  C   UNL     1       4.296   6.498  18.309  0.00  0.00    +0.000 A 
BRANCH  15  17
ATOM     17  O   UNL     1       6.344   5.685  17.236  0.00  0.00    +0.000 OA
BRANCH  17  18
ATOM     18  C   UNL     1       7.345   5.404  18.205  0.00  0.00    +0.000 C 
ATOM     19  F   UNL     1       8.135   4.349  17.909  0.00  0.00    +0.000 F 
ATOM     20  F   UNL     1       8.126   6.495  18.370  0.00  0.00    +0.000 F 
ATOM     21  F   UNL     1       6.738   5.141  19.385  0.00  0.00    +0.000 F 
ENDBRANCH  17  18
ENDBRANCH  15  17
ENDBRANCH   4  11
BRANCH   8  22
ATOM     22  S   UNL     1      -0.042  12.798  18.717  0.00  0.00    +0.000 S 
ATOM     23  O   UNL     1      -0.898  13.002  19.868  0.00  0.00    +0.000 OA
ATOM     24  O   UNL     1       1.052  13.698  18.440  0.00  0.00    +0.000 OA
BRANCH  22  25
ATOM     25  N   UNL     1      -1.090  12.686  17.389  0.00  0.00    +0.000 N 
ATOM     26  C   UNL     1      -2.054  11.672  17.569  0.00  0.00    +0.000 A 
ATOM     27  N   UNL     1      -1.940  10.527  16.943  0.00  0.00    +0.000 NA
ATOM     28  C   UNL     1      -3.010   9.738  17.343  0.00  0.00    +0.000 A 
ATOM     29  N   UNL     1      -3.976  10.240  18.115  0.00  0.00    +0.000 NA
ATOM     30  S   UNL     1      -3.507  11.809  18.468  0.00  0.00    +0.000 S 
ATOM     31  H   UNL     1      -0.505  12.462  16.582  0.00  0.00    +0.000 HD
ENDBRANCH  22  25
ENDBRANCH   8  22
TORSDOF 5
ENDMDL
MODEL 4
REMARK VINA RESULT:      -8.4      5.888      9.304
REMARK  Name = 
REMARK  6 active torsions:
REMARK  status: ('A' for Active; 'I' for Inactive)
REMARK    1  A    between atoms: C_1  and  N_2
REMARK    2  A    between atoms: C_4  and  C_5
REMARK    3  A    between atoms: C_9  and  O_10
REMARK    4  A    between atoms: O_10  and  C_11
REMARK    5  A    between atoms: C_19  and  S_20
REMARK    6  A    between atoms: S_20  and  N_23
REMARK                            x       y       z     vdW  Elec       q    Type
REMARK                         _______ _______ _______ _____ _____    ______ ____
ROOT
ATOM      1  C   UNL     1       2.192   4.709  21.190  0.00  0.00    +0.000 C 
ATOM      2  N   UNL     1       2.844   5.308  20.046  0.00  0.00    +0.000 N 
ATOM      3  C   UNL     1       3.832   4.706  19.316  0.00  0.00    +0.000 A 
ATOM      4  C   UNL     1       4.193   5.551  18.283  0.00  0.00    +0.000 A 
ATOM      5  C   UNL     1       3.402   6.739  18.425  0.00  0.00    +0.000 A 
ATOM      6  C   UNL     1       3.313   7.952  17.707  0.00  0.00    +0.000 A 
ATOM      7  C   UNL     1       2.401   8.931  18.100  0.00  0.00    +0.000 A 
ATOM      8  C   UNL     1       1.547   8.699  19.178  0.00  0.00    +0.000 A 
ATOM      9  C   UNL     1       1.608   7.511  19.918  0.00  0.00    +0.000 A 
ATOM     10  C   UNL     1       2.550   6.549  19.521  0.00  0.00    +0.000 A 
ENDROOT
BRANCH   4  11
ATOM     11  C   UNL     1       5.186   5.188  17.275  0.00  0.00    +0.000 A 
ATOM     12  C   UNL     1       6.479   4.799  17.644  0.00  0.00    +0.000 A 
ATOM     13  C   UNL     1       7.432   4.510  16.667  0.00  0.00    +0.000 A 
ATOM     14  C   UNL     1       7.081   4.557  15.318  0.00  0.00    +0.000 A 
ATOM     15  C   UNL     1       5.779   4.883  14.935  0.00  0.00    +0.000 A 
ATOM     16  C   UNL     1       4.853   5.244  15.914  0.00  0.00    +0.000 A 
BRANCH  15  17
ATOM     17  O   UNL     1       5.554   4.876  13.594  0.00  0.00    +0.000 OA
BRANCH  17  18
ATOM     18  C   UNL     1       5.889   3.718  12.841  0.00  0.00    +0.000 C 
ATOM     19  F   UNL     1       7.016   3.831  12.105  0.00  0.00    +0.000 F 
ATOM     20  F   UNL     1       6.025   2.665  13.678  0.00  0.00    +0.000 F 
ATOM     21  F   UNL     1       4.872   3.448  11.992  0.00  0.00    +0.000 F 
ENDBRANCH  17  18
ENDBRANCH  15  17
ENDBRANCH   4  11
BRANCH   8  22
ATOM     22  S   UNL     1       0.435   9.988  19.670  0.00  0.00    +0.000 S 
ATOM     23  O   UNL     1      -0.760   9.363  20.201  0.00  0.00    +0.000 OA
ATOM     24  O   UNL     1       1.181  10.942  20.455  0.00  0.00    +0.000 OA
BRANCH  22  25
ATOM     25  N   UNL     1      -0.026  10.651  18.180  0.00  0.00    +0.000 N 
ATOM     26  C   UNL     1      -1.428  10.643  18.016  0.00  0.00    +0.000 A 
ATOM     27  N   UNL     1      -2.001   9.761  17.237  0.00  0.00    +0.000 NA
ATOM     28  C   UNL     1      -3.369   9.987  17.305  0.00  0.00    +0.000 A 
ATOM     29  N   UNL     1      -3.853  11.038  17.970  0.00  0.00    +0.000 NA
ATOM     30  S   UNL     1      -2.525  11.793  18.657  0.00  0.00    +0.000 S 
ATOM     31  H   UNL     1       0.405  10.067  17.462  0.00  0.00    +0.000 HD
ENDBRANCH  22  25
ENDBRANCH   8  22
TORSDOF 5
ENDMDL
MODEL 5
REMARK VINA RESULT:      -8.4      6.033      9.208
REMARK  Name = 
REMARK  6 active torsions:
REMARK  status: ('A' for Active; 'I' for Inactive)
REMARK    1  A    between atoms: C_1  and  N_2
REMARK    2  A    between atoms: C_4  and  C_5
REMARK    3  A    between atoms: C_9  and  O_10
REMARK    4  A    between atoms: O_10  and  C_11
REMARK    5  A    between atoms: C_19  and  S_20
REMARK    6  A    between atoms: S_20  and  N_23
REMARK                            x       y       z     vdW  Elec       q    Type
REMARK                         _______ _______ _______ _____ _____    ______ ____
ROOT
ATOM      1  C   UNL     1       0.159   8.372  22.308  0.00  0.00    +0.000 C 
ATOM      2  N   UNL     1       0.945   8.135  21.116  0.00  0.00    +0.000 N 
ATOM      3  C   UNL     1       1.554   6.947  20.816  0.00  0.00    +0.000 A 
ATOM      4  C   UNL     1       2.185   7.074  19.592  0.00  0.00    +0.000 A 
ATOM      5  C   UNL     1       1.970   8.422  19.153  0.00  0.00    +0.000 A 
ATOM      6  C   UNL     1       2.360   9.159  18.013  0.00  0.00    +0.000 A 
ATOM      7  C   UNL     1       1.960  10.487  17.869  0.00  0.00    +0.000 A 
ATOM      8  C   UNL     1       1.140  11.079  18.830  0.00  0.00    +0.000 A 
ATOM      9  C   UNL     1       0.736  10.383  19.977  0.00  0.00    +0.000 A 
ATOM     10  C   UNL     1       1.170   9.055  20.115  0.00  0.00    +0.000 A 
ENDROOT
BRANCH   4  11
ATOM     11  C   UNL     1       2.885   5.967  18.946  0.00  0.00    +0.000 A 
ATOM     12  C   UNL     1       2.228   5.132  18.033  0.00  0.00    +0.000 A 
ATOM     13  C   UNL     1       2.896   4.045  17.468  0.00  0.00    +0.000 A 
ATOM     14  C   UNL     1       4.237   3.818  17.772  0.00  0.00    +0.000 A 
ATOM     15  C   UNL     1       4.924   4.676  18.633  0.00  0.00    +0.000 A 
ATOM     16  C   UNL     1       4.231   5.716  19.252  0.00  0.00    +0.000 A 
BRANCH  15  17
ATOM     17  O   UNL     1       6.232   4.363  18.836  0.00  0.00    +0.000 OA
BRANCH  17  18
ATOM     18  C   UNL     1       7.233   5.063  18.110  0.00  0.00    +0.000 C 
ATOM     19  F   UNL     1       8.005   5.879  18.860  0.00  0.00    +0.000 F 
ATOM     20  F   UNL     1       8.032   4.173  17.480  0.00  0.00    +0.000 F 
ATOM     21  F   UNL     1       6.629   5.823  17.169  0.00  0.00    +0.000 F 
ENDBRANCH  17  18
ENDBRANCH  15  17
ENDBRANCH   4  11
BRANCH   8  22
ATOM     22  S   UNL     1       0.693  12.782  18.629  0.00  0.00    +0.000 S 
ATOM     23  O   UNL     1       1.811  13.462  18.006  0.00  0.00    +0.000 OA
ATOM     24  O   UNL     1      -0.623  12.828  18.039  0.00  0.00    +0.000 OA
BRANCH  22  25
ATOM     25  N   UNL     1       0.663  13.336  20.230  0.00  0.00    +0.000 N 
ATOM     26  C   UNL     1       1.834  14.053  20.557  0.00  0.00    +0.000 A 
ATOM     27  N   UNL     1       2.769  13.502  21.289  0.00  0.00    +0.000 NA
ATOM     28  C   UNL     1       3.791  14.434  21.410  0.00  0.00    +0.000 A 
ATOM     29  N   UNL     1       3.644  15.672  20.935  0.00  0.00    +0.000 NA
ATOM     30  S   UNL     1       2.145  15.698  20.189  0.00  0.00    +0.000 S 
ATOM     31  H   UNL     1       0.597  12.504  20.819  0.00  0.00    +0.000 HD
ENDBRANCH  22  25
ENDBRANCH   8  22
TORSDOF 5
ENDMDL
MODEL 6
REMARK VINA RESULT:      -8.2      5.917      9.257
REMARK  Name = 
REMARK  6 active torsions:
REMARK  status: ('A' for Active; 'I' for Inactive)
REMARK    1  A    between atoms: C_1  and  N_2
REMARK    2  A    between atoms: C_4  and  C_5
REMARK    3  A    between atoms: C_9  and  O_10
REMARK    4  A    between atoms: O_10  and  C_11
REMARK    5  A    between atoms: C_19  and  S_20
REMARK    6  A    between atoms: S_20  and  N_23
REMARK                            x       y       z     vdW  Elec       q    Type
REMARK                         _______ _______ _______ _____ _____    ______ ____
ROOT
ATOM      1  C   UNL     1       1.082   8.855  22.640  0.00  0.00    +0.000 C 
ATOM      2  N   UNL     1       1.312   8.573  21.240  0.00  0.00    +0.000 N 
ATOM      3  C   UNL     1       2.129   7.579  20.775  0.00  0.00    +0.000 A 
ATOM      4  C   UNL     1       2.082   7.581  19.393  0.00  0.00    +0.000 A 
ATOM      5  C   UNL     1       1.216   8.658  19.010  0.00  0.00    +0.000 A 
ATOM      6  C   UNL     1       0.779   9.174  17.771  0.00  0.00    +0.000 A 
ATOM      7  C   UNL     1      -0.107  10.251  17.735  0.00  0.00    +0.000 A 
ATOM      8  C   UNL     1      -0.594  10.795  18.924  0.00  0.00    +0.000 A 
ATOM      9  C   UNL     1      -0.181  10.314  20.173  0.00  0.00    +0.000 A 
ATOM     10  C   UNL     1       0.730   9.246  20.186  0.00  0.00    +0.000 A 
ENDROOT
BRANCH   4  11
ATOM     11  C   UNL     1       2.797   6.602  18.577  0.00  0.00    +0.000 A 
ATOM     12  C   UNL     1       3.903   6.977  17.805  0.00  0.00    +0.000 A 
ATOM     13  C   UNL     1       4.539   6.042  16.988  0.00  0.00    +0.000 A 
ATOM     14  C   UNL     1       4.105   4.718  16.978  0.00  0.00    +0.000 A 
ATOM     15  C   UNL     1       3.042   4.314  17.789  0.00  0.00    +0.000 A 
ATOM     16  C   UNL     1       2.363   5.268  18.545  0.00  0.00    +0.000 A 
BRANCH  15  17
ATOM     17  O   UNL     1       2.725   2.993  17.707  0.00  0.00    +0.000 OA
BRANCH  17  18
ATOM     18  C   UNL     1       3.147   2.114  18.741  0.00  0.00    +0.000 C 
ATOM     19  F   UNL     1       4.072   2.632  19.577  0.00  0.00    +0.000 F 
ATOM     20  F   UNL     1       2.074   1.733  19.469  0.00  0.00    +0.000 F 
ATOM     21  F   UNL     1       3.681   1.009  18.173  0.00  0.00    +0.000 F 
ENDBRANCH  17  18
ENDBRANCH  15  17
ENDBRANCH   4  11
BRANCH   8  22
ATOM     22  S   UNL     1      -1.682  12.190  18.832  0.00  0.00    +0.000 S 
ATOM     23  O   UNL     1      -2.850  11.791  18.073  0.00  0.00    +0.000 OA
ATOM     24  O   UNL     1      -1.816  12.737  20.162  0.00  0.00    +0.000 OA
BRANCH  22  25
ATOM     25  N   UNL     1      -0.825  13.247  17.822  0.00  0.00    +0.000 N 
ATOM     26  C   UNL     1       0.027  14.098  18.558  0.00  0.00    +0.000 A 
ATOM     27  N   UNL     1      -0.298  15.350  18.762  0.00  0.00    +0.000 NA
ATOM     28  C   UNL     1       0.712  15.910  19.533  0.00  0.00    +0.000 A 
ATOM     29  N   UNL     1       1.817  15.218  19.816  0.00  0.00    +0.000 NA
ATOM     30  S   UNL     1       1.584  13.698  19.152  0.00  0.00    +0.000 S 
ATOM     31  H   UNL     1      -1.526  13.806  17.333  0.00  0.00    +0.000 HD
ENDBRANCH  22  25
ENDBRANCH   8  22
TORSDOF 5
ENDMDL
MODEL 7
REMARK VINA RESULT:      -8.2      1.062      1.337
REMARK  Name = 
REMARK  6 active torsions:
REMARK  status: ('A' for Active; 'I' for Inactive)
REMARK    1  A    between atoms: C_1  and  N_2
REMARK    2  A    between atoms: C_4  and  C_5
REMARK    3  A    between atoms: C_9  and  O_10
REMARK    4  A    between atoms: O_10  and  C_11
REMARK    5  A    between atoms: C_19  and  S_20
REMARK    6  A    between atoms: S_20  and  N_23
REMARK                            x       y       z     vdW  Elec       q    Type
REMARK                         _______ _______ _______ _____ _____    ______ ____
ROOT
ATOM      1  C   UNL     1       2.796   3.155  19.366  0.00  0.00    +0.000 C 
ATOM      2  N   UNL     1       2.897   4.554  19.011  0.00  0.00    +0.000 N 
ATOM      3  C   UNL     1       2.047   5.528  19.457  0.00  0.00    +0.000 A 
ATOM      4  C   UNL     1       2.464   6.743  18.945  0.00  0.00    +0.000 A 
ATOM      5  C   UNL     1       3.605   6.475  18.120  0.00  0.00    +0.000 A 
ATOM      6  C   UNL     1       4.458   7.277  17.330  0.00  0.00    +0.000 A 
ATOM      7  C   UNL     1       5.525   6.699  16.643  0.00  0.00    +0.000 A 
ATOM      8  C   UNL     1       5.776   5.332  16.766  0.00  0.00    +0.000 A 
ATOM      9  C   UNL     1       4.952   4.502  17.536  0.00  0.00    +0.000 A 
ATOM     10  C   UNL     1       3.869   5.100  18.199  0.00  0.00    +0.000 A 
ENDROOT
BRANCH   4  11
ATOM     11  C   UNL     1       1.807   8.006  19.274  0.00  0.00    +0.000 A 
ATOM     12  C   UNL     1       1.330   8.855  18.269  0.00  0.00    +0.000 A 
ATOM     13  C   UNL     1       0.756  10.083  18.599  0.00  0.00    +0.000 A 
ATOM     14  C   UNL     1       0.610  10.445  19.937  0.00  0.00    +0.000 A 
ATOM     15  C   UNL     1       1.025   9.583  20.954  0.00  0.00    +0.000 A 
ATOM     16  C   UNL     1       1.665   8.391  20.616  0.00  0.00    +0.000 A 
BRANCH  15  17
ATOM     17  O   UNL     1       0.811  10.038  22.218  0.00  0.00    +0.000 OA
BRANCH  17  18
ATOM     18  C   UNL     1      -0.322   9.573  22.940  0.00  0.00    +0.000 C 
ATOM     19  F   UNL     1      -0.907   8.472  22.421  0.00  0.00    +0.000 F 
ATOM     20  F   UNL     1       0.039   9.309  24.216  0.00  0.00    +0.000 F 
ATOM     21  F   UNL     1      -1.249  10.557  22.963  0.00  0.00    +0.000 F 
ENDBRANCH  17  18
ENDBRANCH  15  17
ENDBRANCH   4  11
BRANCH   8  22
ATOM     22  S   UNL     1       7.115   4.632  15.841  0.00  0.00    +0.000 S 
ATOM     23  O   UNL     1       7.401   5.521  14.733  0.00  0.00    +0.000 OA
ATOM     24  O   UNL     1       8.151   4.255  16.773  0.00  0.00    +0.000 OA
BRANCH  22  25
ATOM     25  N   UNL     1       6.394   3.264  15.147  0.00  0.00    +0.000 N 
ATOM     26  C   UNL     1       6.051   3.483  13.795  0.00  0.00    +0.000 A 
ATOM     27  N   UNL     1       4.807   3.701  13.451  0.00  0.00    +0.000 NA
ATOM     28  C   UNL     1       4.796   3.907  12.078  0.00  0.00    +0.000 A 
ATOM     29  N   UNL     1       5.905   3.740  11.355  0.00  0.00    +0.000 NA
ATOM     30  S   UNL     1       7.114   3.374  12.455  0.00  0.00    +0.000 S 
ATOM     31  H   UNL     1       5.547   3.082  15.688  0.00  0.00    +0.000 HD
ENDBRANCH  22  25
ENDBRANCH   8  22
TORSDOF 5
ENDMDL
MODEL 8
REMARK VINA RESULT:      -8.2      6.083      9.456
REMARK  Name = 
REMARK  6 active torsions:
REMARK  status: ('A' for Active; 'I' for Inactive)
REMARK    1  A    between atoms: C_1  and  N_2
REMARK    2  A    between atoms: C_4  and  C_5
REMARK    3  A    between atoms: C_9  and  O_10
REMARK    4  A    between atoms: O_10  and  C_11
REMARK    5  A    between atoms: C_19  and  S_20
REMARK    6  A    between atoms: S_20  and  N_23
REMARK                            x       y       z     vdW  Elec       q    Type
REMARK                         _______ _______ _______ _____ _____    ______ ____
ROOT
ATOM      1  C   UNL     1       0.074   8.423  22.266  0.00  0.00    +0.000 C 
ATOM      2  N   UNL     1       0.882   8.173  21.093  0.00  0.00    +0.000 N 
ATOM      3  C   UNL     1       1.481   6.977  20.806  0.00  0.00    +0.000 A 
ATOM      4  C   UNL     1       2.141   7.094  19.597  0.00  0.00    +0.000 A 
ATOM      5  C   UNL     1       1.955   8.445  19.153  0.00  0.00    +0.000 A 
ATOM      6  C   UNL     1       2.381   9.175  18.022  0.00  0.00    +0.000 A 
ATOM      7  C   UNL     1       2.004  10.508  17.868  0.00  0.00    +0.000 A 
ATOM      8  C   UNL     1       1.172  11.113  18.811  0.00  0.00    +0.000 A 
ATOM      9  C   UNL     1       0.732  10.424  19.948  0.00  0.00    +0.000 A 
ATOM     10  C   UNL     1       1.143   9.090  20.096  0.00  0.00    +0.000 A 
ENDROOT
BRANCH   4  11
ATOM     11  C   UNL     1       2.839   5.976  18.967  0.00  0.00    +0.000 A 
ATOM     12  C   UNL     1       2.178   5.121  18.078  0.00  0.00    +0.000 A 
ATOM     13  C   UNL     1       2.844   4.025  17.529  0.00  0.00    +0.000 A 
ATOM     14  C   UNL     1       4.188   3.809  17.826  0.00  0.00    +0.000 A 
ATOM     15  C   UNL     1       4.880   4.686  18.663  0.00  0.00    +0.000 A 
ATOM     16  C   UNL     1       4.189   5.736  19.267  0.00  0.00    +0.000 A 
BRANCH  15  17
ATOM     17  O   UNL     1       6.191   4.381  18.861  0.00  0.00    +0.000 OA
BRANCH  17  18
ATOM     18  C   UNL     1       7.185   5.096  18.140  0.00  0.00    +0.000 C 
ATOM     19  F   UNL     1       6.717   5.817  17.099  0.00  0.00    +0.000 F 
ATOM     20  F   UNL     1       7.836   5.928  18.983  0.00  0.00    +0.000 F 
ATOM     21  F   UNL     1       8.082   4.209  17.652  0.00  0.00    +0.000 F 
ENDBRANCH  17  18
ENDBRANCH  15  17
ENDBRANCH   4  11
BRANCH   8  22
ATOM     22  S   UNL     1       0.754  12.822  18.598  0.00  0.00    +0.000 S 
ATOM     23  O   UNL     1       1.861  13.468  17.922  0.00  0.00    +0.000 OA
ATOM     24  O   UNL     1      -0.583  12.888  18.058  0.00  0.00    +0.000 OA
BRANCH  22  25
ATOM     25  N   UNL     1       0.797  13.401  20.190  0.00  0.00    +0.000 N 
ATOM     26  C   UNL     1       1.223  14.746  20.246  0.00  0.00    +0.000 A 
ATOM     27  N   UNL     1       2.439  15.042  20.632  0.00  0.00    +0.000 NA
ATOM     28  C   UNL     1       2.564  16.423  20.553  0.00  0.00    +0.000 A 
ATOM     29  N   UNL     1       1.510  17.186  20.259  0.00  0.00    +0.000 NA
ATOM     30  S   UNL     1       0.247  16.126  19.966  0.00  0.00    +0.000 S 
ATOM     31  H   UNL     1       1.463  12.811  20.692  0.00  0.00    +0.000 HD
ENDBRANCH  22  25
ENDBRANCH   8  22
TORSDOF 5
ENDMDL
MODEL 9
REMARK VINA RESULT:      -8.2      6.284     10.651
REMARK  Name = 
REMARK  6 active torsions:
REMARK  status: ('A' for Active; 'I' for Inactive)
REMARK    1  A    between atoms: C_1  and  N_2
REMARK    2  A    between atoms: C_4  and  C_5
REMARK    3  A    between atoms: C_9  and  O_10
REMARK    4  A    between atoms: O_10  and  C_11
REMARK    5  A    between atoms: C_19  and  S_20
REMARK    6  A    between atoms: S_20  and  N_23
REMARK                            x       y       z     vdW  Elec       q    Type
REMARK                         _______ _______ _______ _____ _____    ______ ____
ROOT
ATOM      1  C   UNL     1       1.869  11.051  17.859  0.00  0.00    +0.000 C 
ATOM      2  N   UNL     1       1.695   9.918  18.742  0.00  0.00    +0.000 N 
ATOM      3  C   UNL     1       2.225   8.676  18.520  0.00  0.00    +0.000 A 
ATOM      4  C   UNL     1       1.885   7.858  19.581  0.00  0.00    +0.000 A 
ATOM      5  C   UNL     1       1.079   8.644  20.469  0.00  0.00    +0.000 A 
ATOM      6  C   UNL     1       0.430   8.385  21.696  0.00  0.00    +0.000 A 
ATOM      7  C   UNL     1      -0.282   9.398  22.338  0.00  0.00    +0.000 A 
ATOM      8  C   UNL     1      -0.319  10.681  21.790  0.00  0.00    +0.000 A 
ATOM      9  C   UNL     1       0.308  10.977  20.573  0.00  0.00    +0.000 A 
ATOM     10  C   UNL     1       0.997   9.936  19.931  0.00  0.00    +0.000 A 
ENDROOT
BRANCH   4  11
ATOM     11  C   UNL     1       2.343   6.475  19.690  0.00  0.00    +0.000 A 
ATOM     12  C   UNL     1       1.771   5.596  20.618  0.00  0.00    +0.000 A 
ATOM     13  C   UNL     1       2.259   4.295  20.747  0.00  0.00    +0.000 A 
ATOM     14  C   UNL     1       3.284   3.851  19.915  0.00  0.00    +0.000 A 
ATOM     15  C   UNL     1       3.824   4.695  18.942  0.00  0.00    +0.000 A 
ATOM     16  C   UNL     1       3.384   6.016  18.869  0.00  0.00    +0.000 A 
BRANCH  15  17
ATOM     17  O   UNL     1       4.804   4.141  18.178  0.00  0.00    +0.000 OA
BRANCH  17  18
ATOM     18  C   UNL     1       4.602   4.015  16.777  0.00  0.00    +0.000 C 
ATOM     19  F   UNL     1       5.463   3.178  16.157  0.00  0.00    +0.000 F 
ATOM     20  F   UNL     1       3.342   3.587  16.544  0.00  0.00    +0.000 F 
ATOM     21  F   UNL     1       4.740   5.235  16.211  0.00  0.00    +0.000 F 
ENDBRANCH  17  18
ENDBRANCH  15  17
ENDBRANCH   4  11
BRANCH   8  22
ATOM     22  S   UNL     1      -1.271  11.926  22.616  0.00  0.00    +0.000 S 
ATOM     23  O   UNL     1      -2.166  11.259  23.541  0.00  0.00    +0.000 OA
ATOM     24  O   UNL     1      -0.362  12.949  23.075  0.00  0.00    +0.000 OA
BRANCH  22  25
ATOM     25  N   UNL     1      -2.262  12.506  21.369  0.00  0.00    +0.000 N 
ATOM     26  C   UNL     1      -3.448  13.086  21.869  0.00  0.00    +0.000 A 
ATOM     27  N   UNL     1      -4.584  12.440  21.799  0.00  0.00    +0.000 NA
ATOM     28  C   UNL     1      -5.546  13.246  22.393  0.00  0.00    +0.000 A 
ATOM     29  N   UNL     1      -5.247  14.485  22.788  0.00  0.00    +0.000 NA
ATOM     30  S   UNL     1      -3.610  14.676  22.488  0.00  0.00    +0.000 S 
ATOM     31  H   UNL     1      -2.495  11.698  20.790  0.00  0.00    +0.000 HD
ENDBRANCH  22  25
ENDBRANCH   8  22
TORSDOF 5
ENDMDL
