MODEL 1
REMARK VINA RESULT:      -7.6      0.000      0.000
REMARK  Name = 
REMARK  5 active torsions:
REMARK  status: ('A' for Active; 'I' for Inactive)
REMARK    1  A    between atoms: S_2  and  C_4
REMARK    2  A    between atoms: S_2  and  N_19
REMARK    3  A    between atoms: C_7  and  O_8
REMARK    4  A    between atoms: O_8  and  C_9
REMARK    5  A    between atoms: C_15  and  O_16
REMARK                            x       y       z     vdW  Elec       q    Type
REMARK                         _______ _______ _______ _____ _____    ______ ____
ROOT
ATOM      1  C   UNL     1       2.350   6.957  19.371  0.00  0.00    +0.000 A 
ATOM      2  C   UNL     1       2.463   7.567  18.119  0.00  0.00    +0.000 A 
ATOM      3  C   UNL     1       1.882   8.824  17.916  0.00  0.00    +0.000 A 
ATOM      4  C   UNL     1       1.195   9.461  18.955  0.00  0.00    +0.000 A 
ATOM      5  C   UNL     1       1.135   8.860  20.219  0.00  0.00    +0.000 A 
ATOM      6  C   UNL     1       1.680   7.593  20.419  0.00  0.00    +0.000 A 
ENDROOT
BRANCH   1   8
ATOM      7  O   UNL     1       4.475   5.475  19.510  0.00  0.00    +0.000 OA
ATOM      8  S   UNL     1       3.042   5.350  19.679  0.00  0.00    +0.000 S 
ATOM      9  O   UNL     1       2.474   4.830  20.904  0.00  0.00    +0.000 OA
BRANCH   8  10
ATOM     10  N   UNL     1       2.426   4.436  18.374  0.00  0.00    +0.000 NA
ATOM     11  C   UNL     1       1.396   3.422  18.704  0.00  0.00    +0.000 C 
ATOM     12  C   UNL     1       2.183   2.142  18.916  0.00  0.00    +0.000 C 
ATOM     13  C   UNL     1       3.359   2.252  17.958  0.00  0.00    +0.000 C 
ATOM     14  C   UNL     1       3.447   3.722  17.564  0.00  0.00    +0.000 C 
ENDBRANCH   8  10
ENDBRANCH   1   8
BRANCH   4  15
ATOM     15  O   UNL     1       0.645  10.694  18.664  0.00  0.00    +0.000 OA
BRANCH  15  16
ATOM     16  C   UNL     1      -0.712  10.788  18.420  0.00  0.00    +0.000 A 
ATOM     17  C   UNL     1      -1.365   9.985  17.471  0.00  0.00    +0.000 A 
ATOM     18  C   UNL     1      -2.748  10.073  17.306  0.00  0.00    +0.000 A 
ATOM     19  C   UNL     1      -3.471  11.007  18.043  0.00  0.00    +0.000 A 
ATOM     20 CL   UNL     1      -5.179  11.102  17.844  0.00  0.00    +0.000 Cl
ATOM     21  C   UNL     1      -2.828  11.867  18.930  0.00  0.00    +0.000 A 
ATOM     22  C   UNL     1      -1.451  11.751  19.118  0.00  0.00    +0.000 A 
BRANCH  22  23
ATOM     23  O   UNL     1      -0.811  12.582  19.997  0.00  0.00    +0.000 OA
ATOM     24  H   UNL     1      -0.323  12.046  20.653  0.00  0.00    +0.000 HD
ENDBRANCH  22  23
ENDBRANCH  15  16
ENDBRANCH   4  15
TORSDOF 5
ENDMDL
MODEL 2
REMARK VINA RESULT:      -7.5      0.170      1.025
REMARK  Name = 
REMARK  5 active torsions:
REMARK  status: ('A' for Active; 'I' for Inactive)
REMARK    1  A    between atoms: S_2  and  C_4
REMARK    2  A    between atoms: S_2  and  N_19
REMARK    3  A    between atoms: C_7  and  O_8
REMARK    4  A    between atoms: O_8  and  C_9
REMARK    5  A    between atoms: C_15  and  O_16
REMARK                            x       y       z     vdW  Elec       q    Type
REMARK                         _______ _______ _______ _____ _____    ______ ____
ROOT
ATOM      1  C   UNL     1       2.413   6.906  19.343  0.00  0.00    +0.000 A 
ATOM      2  C   UNL     1       1.717   7.559  20.365  0.00  0.00    +0.000 A 
ATOM      3  C   UNL     1       1.167   8.822  20.118  0.00  0.00    +0.000 A 
ATOM      4  C   UNL     1       1.312   9.423  18.863  0.00  0.00    +0.000 A 
ATOM      5  C   UNL     1       1.966   8.734  17.834  0.00  0.00    +0.000 A 
ATOM      6  C   UNL     1       2.549   7.493  18.082  0.00  0.00    +0.000 A 
ENDROOT
BRANCH   1   8
ATOM      7  O   UNL     1       4.589   5.506  19.520  0.00  0.00    +0.000 OA
ATOM      8  S   UNL     1       3.157   5.315  19.606  0.00  0.00    +0.000 S 
ATOM      9  O   UNL     1       2.551   4.710  20.772  0.00  0.00    +0.000 OA
BRANCH   8  10
ATOM     10  N   UNL     1       2.648   4.445  18.228  0.00  0.00    +0.000 NA
ATOM     11  C   UNL     1       1.437   3.604  18.385  0.00  0.00    +0.000 C 
ATOM     12  C   UNL     1       1.976   2.234  18.753  0.00  0.00    +0.000 C 
ATOM     13  C   UNL     1       3.303   2.135  18.017  0.00  0.00    +0.000 C 
ATOM     14  C   UNL     1       3.676   3.560  17.622  0.00  0.00    +0.000 C 
ENDBRANCH   8  10
ENDBRANCH   1   8
BRANCH   4  15
ATOM     15  O   UNL     1       0.745  10.674  18.710  0.00  0.00    +0.000 OA
BRANCH  15  16
ATOM     16  C   UNL     1      -0.611  10.775  18.467  0.00  0.00    +0.000 A 
ATOM     17  C   UNL     1      -1.268   9.985  17.511  0.00  0.00    +0.000 A 
ATOM     18  C   UNL     1      -2.650  10.079  17.348  0.00  0.00    +0.000 A 
ATOM     19  C   UNL     1      -3.370  11.010  18.094  0.00  0.00    +0.000 A 
ATOM     20 CL   UNL     1      -5.077  11.114  17.896  0.00  0.00    +0.000 Cl
ATOM     21  C   UNL     1      -2.722  11.859  18.988  0.00  0.00    +0.000 A 
ATOM     22  C   UNL     1      -1.346  11.735  19.175  0.00  0.00    +0.000 A 
BRANCH  22  23
ATOM     23  O   UNL     1      -0.702  12.555  20.061  0.00  0.00    +0.000 OA
ATOM     24  H   UNL     1       0.264  12.431  19.975  0.00  0.00    +0.000 HD
ENDBRANCH  22  23
ENDBRANCH  15  16
ENDBRANCH   4  15
TORSDOF 5
ENDMDL
MODEL 3
REMARK VINA RESULT:      -7.3      0.854      1.038
REMARK  Name = 
REMARK  5 active torsions:
REMARK  status: ('A' for Active; 'I' for Inactive)
REMARK    1  A    between atoms: S_2  and  C_4
REMARK    2  A    between atoms: S_2  and  N_19
REMARK    3  A    between atoms: C_7  and  O_8
REMARK    4  A    between atoms: O_8  and  C_9
REMARK    5  A    between atoms: C_15  and  O_16
REMARK                            x       y       z     vdW  Elec       q    Type
REMARK                         _______ _______ _______ _____ _____    ______ ____
ROOT
ATOM      1  C   UNL     1       2.611   7.181  18.786  0.00  0.00    +0.000 A 
ATOM      2  C   UNL     1       2.591   8.096  17.729  0.00  0.00    +0.000 A 
ATOM      3  C   UNL     1       1.887   9.296  17.877  0.00  0.00    +0.000 A 
ATOM      4  C   UNL     1       1.211   9.577  19.068  0.00  0.00    +0.000 A 
ATOM      5  C   UNL     1       1.283   8.674  20.137  0.00  0.00    +0.000 A 
ATOM      6  C   UNL     1       1.951   7.461  19.985  0.00  0.00    +0.000 A 
ENDROOT
BRANCH   1   8
ATOM      7  O   UNL     1       3.782   5.455  17.245  0.00  0.00    +0.000 OA
ATOM      8  S   UNL     1       3.463   5.629  18.646  0.00  0.00    +0.000 S 
ATOM      9  O   UNL     1       4.492   5.575  19.662  0.00  0.00    +0.000 OA
BRANCH   8  10
ATOM     10  N   UNL     1       2.243   4.508  19.062  0.00  0.00    +0.000 NA
ATOM     11  C   UNL     1       2.618   3.450  20.031  0.00  0.00    +0.000 C 
ATOM     12  C   UNL     1       3.057   2.285  19.164  0.00  0.00    +0.000 C 
ATOM     13  C   UNL     1       2.191   2.387  17.918  0.00  0.00    +0.000 C 
ATOM     14  C   UNL     1       1.617   3.800  17.915  0.00  0.00    +0.000 C 
ENDBRANCH   8  10
ENDBRANCH   1   8
BRANCH   4  15
ATOM     15  O   UNL     1       0.534  10.780  19.124  0.00  0.00    +0.000 OA
BRANCH  15  16
ATOM     16  C   UNL     1      -0.782  10.834  18.709  0.00  0.00    +0.000 A 
ATOM     17  C   UNL     1      -1.294   9.992  17.708  0.00  0.00    +0.000 A 
ATOM     18  C   UNL     1      -2.646  10.042  17.370  0.00  0.00    +0.000 A 
ATOM     19  C   UNL     1      -3.476  10.977  17.983  0.00  0.00    +0.000 A 
ATOM     20 CL   UNL     1      -5.147  11.025  17.568  0.00  0.00    +0.000 Cl
ATOM     21  C   UNL     1      -2.967  11.875  18.918  0.00  0.00    +0.000 A 
ATOM     22  C   UNL     1      -1.624  11.797  19.281  0.00  0.00    +0.000 A 
BRANCH  22  23
ATOM     23  O   UNL     1      -1.117  12.665  20.210  0.00  0.00    +0.000 OA
ATOM     24  H   UNL     1      -1.181  13.579  19.868  0.00  0.00    +0.000 HD
ENDBRANCH  22  23
ENDBRANCH  15  16
ENDBRANCH   4  15
TORSDOF 5
ENDMDL
MODEL 4
REMARK VINA RESULT:      -7.2      0.855      1.436
REMARK  Name = 
REMARK  5 active torsions:
REMARK  status: ('A' for Active; 'I' for Inactive)
REMARK    1  A    between atoms: S_2  and  C_4
REMARK    2  A    between atoms: S_2  and  N_19
REMARK    3  A    between atoms: C_7  and  O_8
REMARK    4  A    between atoms: O_8  and  C_9
REMARK    5  A    between atoms: C_15  and  O_16
REMARK                            x       y       z     vdW  Elec       q    Type
REMARK                         _______ _______ _______ _____ _____    ______ ____
ROOT
ATOM      1  C   UNL     1       2.631   7.113  18.830  0.00  0.00    +0.000 A 
ATOM      2  C   UNL     1       1.954   7.405  20.018  0.00  0.00    +0.000 A 
ATOM      3  C   UNL     1       1.270   8.620  20.132  0.00  0.00    +0.000 A 
ATOM      4  C   UNL     1       1.264   9.532  19.071  0.00  0.00    +0.000 A 
ATOM      5  C   UNL     1       1.903   9.202  17.869  0.00  0.00    +0.000 A 
ATOM      6  C   UNL     1       2.617   8.010  17.760  0.00  0.00    +0.000 A 
ENDROOT
BRANCH   1   8
ATOM      7  O   UNL     1       3.871   5.488  17.232  0.00  0.00    +0.000 OA
ATOM      8  S   UNL     1       3.541   5.600  18.637  0.00  0.00    +0.000 S 
ATOM      9  O   UNL     1       4.568   5.546  19.655  0.00  0.00    +0.000 OA
BRANCH   8  10
ATOM     10  N   UNL     1       2.362   4.420  19.006  0.00  0.00    +0.000 NA
ATOM     11  C   UNL     1       2.776   3.336  19.929  0.00  0.00    +0.000 C 
ATOM     12  C   UNL     1       3.253   2.225  19.012  0.00  0.00    +0.000 C 
ATOM     13  C   UNL     1       2.381   2.349  17.773  0.00  0.00    +0.000 C 
ATOM     14  C   UNL     1       1.758   3.739  17.832  0.00  0.00    +0.000 C 
ENDBRANCH   8  10
ENDBRANCH   1   8
BRANCH   4  15
ATOM     15  O   UNL     1       0.571  10.710  19.274  0.00  0.00    +0.000 OA
BRANCH  15  16
ATOM     16  C   UNL     1      -0.728  10.816  18.818  0.00  0.00    +0.000 A 
ATOM     17  C   UNL     1      -1.222  10.039  17.757  0.00  0.00    +0.000 A 
ATOM     18  C   UNL     1      -2.560  10.138  17.376  0.00  0.00    +0.000 A 
ATOM     19  C   UNL     1      -3.391  11.059  18.009  0.00  0.00    +0.000 A 
ATOM     20 CL   UNL     1      -5.045  11.167  17.541  0.00  0.00    +0.000 Cl
ATOM     21  C   UNL     1      -2.897  11.894  19.008  0.00  0.00    +0.000 A 
ATOM     22  C   UNL     1      -1.569  11.766  19.412  0.00  0.00    +0.000 A 
BRANCH  22  23
ATOM     23  O   UNL     1      -1.077  12.573  20.402  0.00  0.00    +0.000 OA
ATOM     24  H   UNL     1      -1.321  12.202  21.273  0.00  0.00    +0.000 HD
ENDBRANCH  22  23
ENDBRANCH  15  16
ENDBRANCH   4  15
TORSDOF 5
ENDMDL
MODEL 5
REMARK VINA RESULT:      -7.2      1.040      1.602
REMARK  Name = 
REMARK  5 active torsions:
REMARK  status: ('A' for Active; 'I' for Inactive)
REMARK    1  A    between atoms: S_2  and  C_4
REMARK    2  A    between atoms: S_2  and  N_19
REMARK    3  A    between atoms: C_7  and  O_8
REMARK    4  A    between atoms: O_8  and  C_9
REMARK    5  A    between atoms: C_15  and  O_16
REMARK                            x       y       z     vdW  Elec       q    Type
REMARK                         _______ _______ _______ _____ _____    ______ ____
ROOT
ATOM      1  C   UNL     1       2.260   7.092  19.375  0.00  0.00    +0.000 A 
ATOM      2  C   UNL     1       2.424   7.643  18.100  0.00  0.00    +0.000 A 
ATOM      3  C   UNL     1       1.955   8.937  17.850  0.00  0.00    +0.000 A 
ATOM      4  C   UNL     1       1.330   9.671  18.864  0.00  0.00    +0.000 A 
ATOM      5  C   UNL     1       1.221   9.126  20.149  0.00  0.00    +0.000 A 
ATOM      6  C   UNL     1       1.651   7.824  20.397  0.00  0.00    +0.000 A 
ENDROOT
BRANCH   1   8
ATOM      7  O   UNL     1       4.253   5.454  19.650  0.00  0.00    +0.000 OA
ATOM      8  S   UNL     1       2.808   5.443  19.743  0.00  0.00    +0.000 S 
ATOM      9  O   UNL     1       2.137   4.991  20.942  0.00  0.00    +0.000 OA
BRANCH   8  10
ATOM     10  N   UNL     1       2.193   4.554  18.420  0.00  0.00    +0.000 NA
ATOM     11  C   UNL     1       1.257   3.450  18.742  0.00  0.00    +0.000 C 
ATOM     12  C   UNL     1       2.144   2.224  18.843  0.00  0.00    +0.000 C 
ATOM     13  C   UNL     1       3.258   2.472  17.838  0.00  0.00    +0.000 C 
ATOM     14  C   UNL     1       3.219   3.963  17.523  0.00  0.00    +0.000 C 
ENDBRANCH   8  10
ENDBRANCH   1   8
BRANCH   4  15
ATOM     15  O   UNL     1       0.891  10.937  18.527  0.00  0.00    +0.000 OA
BRANCH  15  16
ATOM     16  C   UNL     1      -0.364  11.347  18.934  0.00  0.00    +0.000 A 
ATOM     17  C   UNL     1      -0.578  12.047  20.133  0.00  0.00    +0.000 A 
ATOM     18  C   UNL     1      -1.855  12.494  20.469  0.00  0.00    +0.000 A 
ATOM     19  C   UNL     1      -2.933  12.187  19.642  0.00  0.00    +0.000 A 
ATOM     20 CL   UNL     1      -4.506  12.753  20.057  0.00  0.00    +0.000 Cl
ATOM     21  C   UNL     1      -2.751  11.424  18.491  0.00  0.00    +0.000 A 
ATOM     22  C   UNL     1      -1.467  11.010  18.139  0.00  0.00    +0.000 A 
BRANCH  22  23
ATOM     23  O   UNL     1      -1.276  10.271  17.004  0.00  0.00    +0.000 OA
ATOM     24  H   UNL     1      -0.336  10.319  16.740  0.00  0.00    +0.000 HD
ENDBRANCH  22  23
ENDBRANCH  15  16
ENDBRANCH   4  15
TORSDOF 5
ENDMDL
MODEL 6
REMARK VINA RESULT:      -7.1      2.974      3.640
REMARK  Name = 
REMARK  5 active torsions:
REMARK  status: ('A' for Active; 'I' for Inactive)
REMARK    1  A    between atoms: S_2  and  C_4
REMARK    2  A    between atoms: S_2  and  N_19
REMARK    3  A    between atoms: C_7  and  O_8
REMARK    4  A    between atoms: O_8  and  C_9
REMARK    5  A    between atoms: C_15  and  O_16
REMARK                            x       y       z     vdW  Elec       q    Type
REMARK                         _______ _______ _______ _____ _____    ______ ____
ROOT
ATOM      1  C   UNL     1       2.234   7.046  19.419  0.00  0.00    +0.000 A 
ATOM      2  C   UNL     1       2.383   7.653  18.168  0.00  0.00    +0.000 A 
ATOM      3  C   UNL     1       1.859   8.934  17.963  0.00  0.00    +0.000 A 
ATOM      4  C   UNL     1       1.193   9.600  18.998  0.00  0.00    +0.000 A 
ATOM      5  C   UNL     1       1.097   9.001  20.260  0.00  0.00    +0.000 A 
ATOM      6  C   UNL     1       1.584   7.710  20.462  0.00  0.00    +0.000 A 
ENDROOT
BRANCH   1   8
ATOM      7  O   UNL     1       4.288   5.469  19.556  0.00  0.00    +0.000 OA
ATOM      8  S   UNL     1       2.852   5.411  19.729  0.00  0.00    +0.000 S 
ATOM      9  O   UNL     1       2.264   4.920  20.956  0.00  0.00    +0.000 OA
BRANCH   8  10
ATOM     10  N   UNL     1       2.192   4.522  18.428  0.00  0.00    +0.000 NA
ATOM     11  C   UNL     1       1.265   3.421  18.781  0.00  0.00    +0.000 C 
ATOM     12  C   UNL     1       2.152   2.192  18.854  0.00  0.00    +0.000 C 
ATOM     13  C   UNL     1       3.232   2.437  17.812  0.00  0.00    +0.000 C 
ATOM     14  C   UNL     1       3.186   3.928  17.497  0.00  0.00    +0.000 C 
ENDBRANCH   8  10
ENDBRANCH   1   8
BRANCH   4  15
ATOM     15  O   UNL     1       0.700  10.857  18.706  0.00  0.00    +0.000 OA
BRANCH  15  16
ATOM     16  C   UNL     1       1.335  11.969  19.225  0.00  0.00    +0.000 A 
ATOM     17  C   UNL     1       1.021  12.495  20.489  0.00  0.00    +0.000 A 
ATOM     18  C   UNL     1       1.735  13.581  20.996  0.00  0.00    +0.000 A 
ATOM     19  C   UNL     1       2.718  14.184  20.216  0.00  0.00    +0.000 A 
ATOM     20 CL   UNL     1       3.603  15.517  20.853  0.00  0.00    +0.000 Cl
ATOM     21  C   UNL     1       2.985  13.726  18.929  0.00  0.00    +0.000 A 
ATOM     22  C   UNL     1       2.296  12.617  18.440  0.00  0.00    +0.000 A 
BRANCH  22  23
ATOM     23  O   UNL     1       2.561  12.150  17.181  0.00  0.00    +0.000 OA
ATOM     24  H   UNL     1       2.351  12.845  16.527  0.00  0.00    +0.000 HD
ENDBRANCH  22  23
ENDBRANCH  15  16
ENDBRANCH   4  15
TORSDOF 5
ENDMDL
MODEL 7
REMARK VINA RESULT:      -7.0      3.609      7.683
REMARK  Name = 
REMARK  5 active torsions:
REMARK  status: ('A' for Active; 'I' for Inactive)
REMARK    1  A    between atoms: S_2  and  C_4
REMARK    2  A    between atoms: S_2  and  N_19
REMARK    3  A    between atoms: C_7  and  O_8
REMARK    4  A    between atoms: O_8  and  C_9
REMARK    5  A    between atoms: C_15  and  O_16
REMARK                            x       y       z     vdW  Elec       q    Type
REMARK                         _______ _______ _______ _____ _____    ______ ____
ROOT
ATOM      1  C   UNL     1      -0.311  10.346  19.218  0.00  0.00    +0.000 A 
ATOM      2  C   UNL     1      -0.174   9.748  20.474  0.00  0.00    +0.000 A 
ATOM      3  C   UNL     1       0.814   8.774  20.662  0.00  0.00    +0.000 A 
ATOM      4  C   UNL     1       1.652   8.404  19.606  0.00  0.00    +0.000 A 
ATOM      5  C   UNL     1       1.537   9.049  18.368  0.00  0.00    +0.000 A 
ATOM      6  C   UNL     1       0.533   9.993  18.162  0.00  0.00    +0.000 A 
ENDROOT
BRANCH   1   8
ATOM      7  O   UNL     1      -1.951  12.099  20.200  0.00  0.00    +0.000 OA
ATOM      8  S   UNL     1      -1.564  11.566  18.911  0.00  0.00    +0.000 S 
ATOM      9  O   UNL     1      -1.111  12.435  17.846  0.00  0.00    +0.000 OA
BRANCH   8  10
ATOM     10  N   UNL     1      -2.854  10.618  18.314  0.00  0.00    +0.000 NA
ATOM     11  C   UNL     1      -2.600   9.871  17.059  0.00  0.00    +0.000 C 
ATOM     12  C   UNL     1      -3.093  10.798  15.964  0.00  0.00    +0.000 C 
ATOM     13  C   UNL     1      -4.261  11.544  16.590  0.00  0.00    +0.000 C 
ATOM     14  C   UNL     1      -4.129  11.349  18.096  0.00  0.00    +0.000 C 
ENDBRANCH   8  10
ENDBRANCH   1   8
BRANCH   4  15
ATOM     15  O   UNL     1       2.592   7.428  19.878  0.00  0.00    +0.000 OA
BRANCH  15  16
ATOM     16  C   UNL     1       2.272   6.102  19.659  0.00  0.00    +0.000 A 
ATOM     17  C   UNL     1       1.562   5.333  20.594  0.00  0.00    +0.000 A 
ATOM     18  C   UNL     1       1.207   4.017  20.299  0.00  0.00    +0.000 A 
ATOM     19  C   UNL     1       1.618   3.445  19.097  0.00  0.00    +0.000 A 
ATOM     20 CL   UNL     1       1.167   1.823  18.734  0.00  0.00    +0.000 Cl
ATOM     21  C   UNL     1       2.393   4.169  18.194  0.00  0.00    +0.000 A 
ATOM     22  C   UNL     1       2.713   5.496  18.476  0.00  0.00    +0.000 A 
BRANCH  22  23
ATOM     23  O   UNL     1       3.463   6.219  17.589  0.00  0.00    +0.000 OA
ATOM     24  H   UNL     1       4.381   5.884  17.592  0.00  0.00    +0.000 HD
ENDBRANCH  22  23
ENDBRANCH  15  16
ENDBRANCH   4  15
TORSDOF 5
ENDMDL
MODEL 8
REMARK VINA RESULT:      -7.0      1.086      1.928
REMARK  Name = 
REMARK  5 active torsions:
REMARK  status: ('A' for Active; 'I' for Inactive)
REMARK    1  A    between atoms: S_2  and  C_4
REMARK    2  A    between atoms: S_2  and  N_19
REMARK    3  A    between atoms: C_7  and  O_8
REMARK    4  A    between atoms: O_8  and  C_9
REMARK    5  A    between atoms: C_15  and  O_16
REMARK                            x       y       z     vdW  Elec       q    Type
REMARK                         _______ _______ _______ _____ _____    ______ ____
ROOT
ATOM      1  C   UNL     1       2.218   7.085  19.418  0.00  0.00    +0.000 A 
ATOM      2  C   UNL     1       1.614   7.876  20.399  0.00  0.00    +0.000 A 
ATOM      3  C   UNL     1       1.218   9.179  20.078  0.00  0.00    +0.000 A 
ATOM      4  C   UNL     1       1.424   9.683  18.789  0.00  0.00    +0.000 A 
ATOM      5  C   UNL     1       1.982   8.861  17.803  0.00  0.00    +0.000 A 
ATOM      6  C   UNL     1       2.413   7.575  18.125  0.00  0.00    +0.000 A 
ENDROOT
BRANCH   1   8
ATOM      7  O   UNL     1       4.207   5.433  19.623  0.00  0.00    +0.000 OA
ATOM      8  S   UNL     1       2.768   5.434  19.775  0.00  0.00    +0.000 S 
ATOM      9  O   UNL     1       2.143   4.997  21.005  0.00  0.00    +0.000 OA
BRANCH   8  10
ATOM     10  N   UNL     1       2.091   4.541  18.486  0.00  0.00    +0.000 NA
ATOM     11  C   UNL     1       1.195   3.419  18.856  0.00  0.00    +0.000 C 
ATOM     12  C   UNL     1       2.107   2.208  18.899  0.00  0.00    +0.000 C 
ATOM     13  C   UNL     1       3.155   2.479  17.831  0.00  0.00    +0.000 C 
ATOM     14  C   UNL     1       3.072   3.971  17.527  0.00  0.00    +0.000 C 
ENDBRANCH   8  10
ENDBRANCH   1   8
BRANCH   4  15
ATOM     15  O   UNL     1       1.010  10.982  18.563  0.00  0.00    +0.000 OA
BRANCH  15  16
ATOM     16  C   UNL     1      -0.238  11.379  19.002  0.00  0.00    +0.000 A 
ATOM     17  C   UNL     1      -0.430  12.059  20.215  0.00  0.00    +0.000 A 
ATOM     18  C   UNL     1      -1.703  12.496  20.584  0.00  0.00    +0.000 A 
ATOM     19  C   UNL     1      -2.796  12.197  19.773  0.00  0.00    +0.000 A 
ATOM     20 CL   UNL     1      -4.362  12.749  20.229  0.00  0.00    +0.000 Cl
ATOM     21  C   UNL     1      -2.634  11.452  18.608  0.00  0.00    +0.000 A 
ATOM     22  C   UNL     1      -1.355  11.051  18.224  0.00  0.00    +0.000 A 
BRANCH  22  23
ATOM     23  O   UNL     1      -1.184  10.330  17.073  0.00  0.00    +0.000 OA
ATOM     24  H   UNL     1      -0.464   9.682  17.201  0.00  0.00    +0.000 HD
ENDBRANCH  22  23
ENDBRANCH  15  16
ENDBRANCH   4  15
TORSDOF 5
ENDMDL
MODEL 9
REMARK VINA RESULT:      -7.0      1.933      2.263
REMARK  Name = 
REMARK  5 active torsions:
REMARK  status: ('A' for Active; 'I' for Inactive)
REMARK    1  A    between atoms: S_2  and  C_4
REMARK    2  A    between atoms: S_2  and  N_19
REMARK    3  A    between atoms: C_7  and  O_8
REMARK    4  A    between atoms: O_8  and  C_9
REMARK    5  A    between atoms: C_15  and  O_16
REMARK                            x       y       z     vdW  Elec       q    Type
REMARK                         _______ _______ _______ _____ _____    ______ ____
ROOT
ATOM      1  C   UNL     1       2.818   7.087  18.602  0.00  0.00    +0.000 A 
ATOM      2  C   UNL     1       2.778   8.107  17.646  0.00  0.00    +0.000 A 
ATOM      3  C   UNL     1       2.043   9.267  17.916  0.00  0.00    +0.000 A 
ATOM      4  C   UNL     1       1.356   9.404  19.126  0.00  0.00    +0.000 A 
ATOM      5  C   UNL     1       1.448   8.396  20.095  0.00  0.00    +0.000 A 
ATOM      6  C   UNL     1       2.147   7.222  19.820  0.00  0.00    +0.000 A 
ENDROOT
BRANCH   1   8
ATOM      7  O   UNL     1       4.229   5.144  19.583  0.00  0.00    +0.000 OA
ATOM      8  S   UNL     1       3.710   5.581  18.304  0.00  0.00    +0.000 S 
ATOM      9  O   UNL     1       2.887   4.710  17.493  0.00  0.00    +0.000 OA
BRANCH   8  10
ATOM     10  N   UNL     1       5.020   6.119  17.350  0.00  0.00    +0.000 NA
ATOM     11  C   UNL     1       5.194   5.462  16.032  0.00  0.00    +0.000 C 
ATOM     12  C   UNL     1       6.170   4.331  16.303  0.00  0.00    +0.000 C 
ATOM     13  C   UNL     1       7.076   4.862  17.402  0.00  0.00    +0.000 C 
ATOM     14  C   UNL     1       6.350   6.059  18.008  0.00  0.00    +0.000 C 
ENDBRANCH   8  10
ENDBRANCH   1   8
BRANCH   4  15
ATOM     15  O   UNL     1       0.648  10.577  19.304  0.00  0.00    +0.000 OA
BRANCH  15  16
ATOM     16  C   UNL     1      -0.619  10.689  18.767  0.00  0.00    +0.000 A 
ATOM     17  C   UNL     1      -1.047   9.918  17.674  0.00  0.00    +0.000 A 
ATOM     18  C   UNL     1      -2.358  10.022  17.208  0.00  0.00    +0.000 A 
ATOM     19  C   UNL     1      -3.225  10.944  17.791  0.00  0.00    +0.000 A 
ATOM     20 CL   UNL     1      -4.845  11.060  17.219  0.00  0.00    +0.000 Cl
ATOM     21  C   UNL     1      -2.792  11.774  18.822  0.00  0.00    +0.000 A 
ATOM     22  C   UNL     1      -1.493  11.641  19.309  0.00  0.00    +0.000 A 
BRANCH  22  23
ATOM     23  O   UNL     1      -1.062  12.443  20.331  0.00  0.00    +0.000 OA
ATOM     24  H   UNL     1      -0.691  13.268  19.961  0.00  0.00    +0.000 HD
ENDBRANCH  22  23
ENDBRANCH  15  16
ENDBRANCH   4  15
TORSDOF 5
ENDMDL
