MODEL 1
REMARK VINA RESULT:      -7.0      0.000      0.000
REMARK  Name = 
REMARK  3 active torsions:
REMARK  status: ('A' for Active; 'I' for Inactive)
REMARK    1  A    between atoms: O_1  and  C_2
REMARK    2  A    between atoms: C_7  and  N_8
REMARK    3  A    between atoms: C_9  and  C_10
REMARK                            x       y       z     vdW  Elec       q    Type
REMARK                         _______ _______ _______ _____ _____    ______ ____
ROOT
ATOM      1  N   UNL     1       4.705   4.269  18.118  0.00  0.00    +0.000 NA
ATOM      2  C   UNL     1       3.658   3.509  18.055  0.00  0.00    +0.000 C 
ENDROOT
BRANCH   2   3
ATOM      3  C   UNL     1       2.847   3.262  19.263  0.00  0.00    +0.000 A 
ATOM      4  C   UNL     1       1.512   3.681  19.324  0.00  0.00    +0.000 A 
ATOM      5  C   UNL     1       0.767   3.480  20.488  0.00  0.00    +0.000 A 
ATOM      6  C   UNL     1       1.350   2.856  21.593  0.00  0.00    +0.000 A 
ATOM      7  C   UNL     1       2.679   2.429  21.529  0.00  0.00    +0.000 A 
ATOM      8  C   UNL     1       3.421   2.636  20.367  0.00  0.00    +0.000 A 
ATOM      9  F   UNL     1       4.697   2.227  20.337  0.00  0.00    +0.000 F 
ENDBRANCH   2   3
BRANCH   1  15
ATOM     10  C   UNL     1       6.915   4.623  16.979  0.00  0.00    +0.000 A 
ATOM     11  C   UNL     1       7.616   4.754  15.774  0.00  0.00    +0.000 A 
ATOM     12  C   UNL     1       6.929   4.733  14.559  0.00  0.00    +0.000 A 
ATOM     13  C   UNL     1       5.546   4.585  14.548  0.00  0.00    +0.000 A 
ATOM     14  C   UNL     1       4.852   4.460  15.754  0.00  0.00    +0.000 A 
ATOM     15  C   UNL     1       5.516   4.480  16.988  0.00  0.00    +0.000 A 
BRANCH  10  16
ATOM     16  O   UNL     1       7.619   4.614  18.155  0.00  0.00    +0.000 OA
ATOM     17  H   UNL     1       7.735   5.529  18.455  0.00  0.00    +0.000 HD
ENDBRANCH  10  16
ENDBRANCH   1  15
TORSDOF 3
ENDMDL
MODEL 2
REMARK VINA RESULT:      -6.8      1.201      1.700
REMARK  Name = 
REMARK  3 active torsions:
REMARK  status: ('A' for Active; 'I' for Inactive)
REMARK    1  A    between atoms: O_1  and  C_2
REMARK    2  A    between atoms: C_7  and  N_8
REMARK    3  A    between atoms: C_9  and  C_10
REMARK                            x       y       z     vdW  Elec       q    Type
REMARK                         _______ _______ _______ _____ _____    ______ ____
ROOT
ATOM      1  N   UNL     1       4.466   4.497  17.783  0.00  0.00    +0.000 NA
ATOM      2  C   UNL     1       3.916   3.360  18.066  0.00  0.00    +0.000 C 
ENDROOT
BRANCH   2   3
ATOM      3  C   UNL     1       3.010   3.243  19.227  0.00  0.00    +0.000 A 
ATOM      4  C   UNL     1       3.460   2.682  20.428  0.00  0.00    +0.000 A 
ATOM      5  C   UNL     1       2.582   2.538  21.506  0.00  0.00    +0.000 A 
ATOM      6  C   UNL     1       1.256   2.956  21.388  0.00  0.00    +0.000 A 
ATOM      7  C   UNL     1       0.809   3.525  20.193  0.00  0.00    +0.000 A 
ATOM      8  C   UNL     1       1.687   3.664  19.119  0.00  0.00    +0.000 A 
ATOM      9  F   UNL     1       1.229   4.202  17.979  0.00  0.00    +0.000 F 
ENDBRANCH   2   3
BRANCH   1  15
ATOM     10  C   UNL     1       6.739   4.910  16.798  0.00  0.00    +0.000 A 
ATOM     11  C   UNL     1       7.546   4.928  15.654  0.00  0.00    +0.000 A 
ATOM     12  C   UNL     1       6.994   4.642  14.404  0.00  0.00    +0.000 A 
ATOM     13  C   UNL     1       5.641   4.343  14.297  0.00  0.00    +0.000 A 
ATOM     14  C   UNL     1       4.840   4.332  15.441  0.00  0.00    +0.000 A 
ATOM     15  C   UNL     1       5.366   4.617  16.709  0.00  0.00    +0.000 A 
BRANCH  10  16
ATOM     16  O   UNL     1       7.315   5.164  18.016  0.00  0.00    +0.000 OA
ATOM     17  H   UNL     1       6.884   5.939  18.409  0.00  0.00    +0.000 HD
ENDBRANCH  10  16
ENDBRANCH   1  15
TORSDOF 3
ENDMDL
MODEL 3
REMARK VINA RESULT:      -6.8      1.736      6.088
REMARK  Name = 
REMARK  3 active torsions:
REMARK  status: ('A' for Active; 'I' for Inactive)
REMARK    1  A    between atoms: O_1  and  C_2
REMARK    2  A    between atoms: C_7  and  N_8
REMARK    3  A    between atoms: C_9  and  C_10
REMARK                            x       y       z     vdW  Elec       q    Type
REMARK                         _______ _______ _______ _____ _____    ______ ____
ROOT
ATOM      1  N   UNL     1       4.159   3.279  18.170  0.00  0.00    +0.000 NA
ATOM      2  C   UNL     1       4.195   4.371  17.476  0.00  0.00    +0.000 C 
ENDROOT
BRANCH   2   3
ATOM      3  C   UNL     1       5.190   4.531  16.396  0.00  0.00    +0.000 A 
ATOM      4  C   UNL     1       4.900   4.111  15.092  0.00  0.00    +0.000 A 
ATOM      5  C   UNL     1       5.864   4.228  14.087  0.00  0.00    +0.000 A 
ATOM      6  C   UNL     1       7.118   4.769  14.382  0.00  0.00    +0.000 A 
ATOM      7  C   UNL     1       7.403   5.197  15.681  0.00  0.00    +0.000 A 
ATOM      8  C   UNL     1       6.440   5.074  16.680  0.00  0.00    +0.000 A 
ATOM      9  F   UNL     1       6.744   5.482  17.921  0.00  0.00    +0.000 F 
ENDBRANCH   2   3
BRANCH   1  15
ATOM     10  C   UNL     1       3.519   2.553  20.488  0.00  0.00    +0.000 A 
ATOM     11  C   UNL     1       2.543   2.527  21.490  0.00  0.00    +0.000 A 
ATOM     12  C   UNL     1       1.284   3.083  21.256  0.00  0.00    +0.000 A 
ATOM     13  C   UNL     1       1.001   3.660  20.023  0.00  0.00    +0.000 A 
ATOM     14  C   UNL     1       1.978   3.678  19.025  0.00  0.00    +0.000 A 
ATOM     15  C   UNL     1       3.249   3.125  19.231  0.00  0.00    +0.000 A 
BRANCH  10  16
ATOM     16  O   UNL     1       4.757   2.028  20.757  0.00  0.00    +0.000 OA
ATOM     17  H   UNL     1       5.368   2.293  20.052  0.00  0.00    +0.000 HD
ENDBRANCH  10  16
ENDBRANCH   1  15
TORSDOF 3
ENDMDL
MODEL 4
REMARK VINA RESULT:      -6.7      2.082      6.314
REMARK  Name = 
REMARK  3 active torsions:
REMARK  status: ('A' for Active; 'I' for Inactive)
REMARK    1  A    between atoms: O_1  and  C_2
REMARK    2  A    between atoms: C_7  and  N_8
REMARK    3  A    between atoms: C_9  and  C_10
REMARK                            x       y       z     vdW  Elec       q    Type
REMARK                         _______ _______ _______ _____ _____    ______ ____
ROOT
ATOM      1  N   UNL     1       3.790   3.310  18.016  0.00  0.00    +0.000 NA
ATOM      2  C   UNL     1       4.303   4.454  17.693  0.00  0.00    +0.000 C 
ENDROOT
BRANCH   2   3
ATOM      3  C   UNL     1       5.275   4.544  16.586  0.00  0.00    +0.000 A 
ATOM      4  C   UNL     1       4.866   4.353  15.260  0.00  0.00    +0.000 A 
ATOM      5  C   UNL     1       5.802   4.399  14.224  0.00  0.00    +0.000 A 
ATOM      6  C   UNL     1       7.148   4.638  14.508  0.00  0.00    +0.000 A 
ATOM      7  C   UNL     1       7.555   4.839  15.829  0.00  0.00    +0.000 A 
ATOM      8  C   UNL     1       6.619   4.788  16.860  0.00  0.00    +0.000 A 
ATOM      9  F   UNL     1       7.038   4.972  18.121  0.00  0.00    +0.000 F 
ENDBRANCH   2   3
BRANCH   1  15
ATOM     10  C   UNL     1       1.495   3.298  19.036  0.00  0.00    +0.000 A 
ATOM     11  C   UNL     1       0.709   3.090  20.176  0.00  0.00    +0.000 A 
ATOM     12  C   UNL     1       1.313   2.767  21.392  0.00  0.00    +0.000 A 
ATOM     13  C   UNL     1       2.697   2.656  21.471  0.00  0.00    +0.000 A 
ATOM     14  C   UNL     1       3.475   2.870  20.331  0.00  0.00    +0.000 A 
ATOM     15  C   UNL     1       2.896   3.197  19.097  0.00  0.00    +0.000 A 
BRANCH  10  16
ATOM     16  O   UNL     1       0.872   3.582  17.848  0.00  0.00    +0.000 OA
ATOM     17  H   UNL     1      -0.084   3.461  17.960  0.00  0.00    +0.000 HD
ENDBRANCH  10  16
ENDBRANCH   1  15
TORSDOF 3
ENDMDL
MODEL 5
REMARK VINA RESULT:      -6.6      2.417      3.089
REMARK  Name = 
REMARK  3 active torsions:
REMARK  status: ('A' for Active; 'I' for Inactive)
REMARK    1  A    between atoms: O_1  and  C_2
REMARK    2  A    between atoms: C_7  and  N_8
REMARK    3  A    between atoms: C_9  and  C_10
REMARK                            x       y       z     vdW  Elec       q    Type
REMARK                         _______ _______ _______ _____ _____    ______ ____
ROOT
ATOM      1  N   UNL     1       4.878   4.922  18.190  0.00  0.00    +0.000 NA
ATOM      2  C   UNL     1       4.134   4.892  19.249  0.00  0.00    +0.000 C 
ENDROOT
BRANCH   2   3
ATOM      3  C   UNL     1       2.929   4.039  19.286  0.00  0.00    +0.000 A 
ATOM      4  C   UNL     1       2.727   3.050  18.316  0.00  0.00    +0.000 A 
ATOM      5  C   UNL     1       1.563   2.276  18.335  0.00  0.00    +0.000 A 
ATOM      6  C   UNL     1       0.601   2.487  19.324  0.00  0.00    +0.000 A 
ATOM      7  C   UNL     1       0.807   3.468  20.298  0.00  0.00    +0.000 A 
ATOM      8  C   UNL     1       1.967   4.239  20.273  0.00  0.00    +0.000 A 
ATOM      9  F   UNL     1       2.135   5.182  21.212  0.00  0.00    +0.000 F 
ENDBRANCH   2   3
BRANCH   1  15
ATOM     10  C   UNL     1       6.214   6.802  17.196  0.00  0.00    +0.000 A 
ATOM     11  C   UNL     1       7.348   7.618  17.278  0.00  0.00    +0.000 A 
ATOM     12  C   UNL     1       8.284   7.416  18.294  0.00  0.00    +0.000 A 
ATOM     13  C   UNL     1       8.089   6.398  19.221  0.00  0.00    +0.000 A 
ATOM     14  C   UNL     1       6.958   5.583  19.130  0.00  0.00    +0.000 A 
ATOM     15  C   UNL     1       6.004   5.762  18.120  0.00  0.00    +0.000 A 
BRANCH  10  16
ATOM     16  O   UNL     1       5.295   7.045  16.207  0.00  0.00    +0.000 OA
ATOM     17  H   UNL     1       5.712   6.882  15.347  0.00  0.00    +0.000 HD
ENDBRANCH  10  16
ENDBRANCH   1  15
TORSDOF 3
ENDMDL
MODEL 6
REMARK VINA RESULT:      -6.6      2.962      6.204
REMARK  Name = 
REMARK  3 active torsions:
REMARK  status: ('A' for Active; 'I' for Inactive)
REMARK    1  A    between atoms: O_1  and  C_2
REMARK    2  A    between atoms: C_7  and  N_8
REMARK    3  A    between atoms: C_9  and  C_10
REMARK                            x       y       z     vdW  Elec       q    Type
REMARK                         _______ _______ _______ _____ _____    ______ ____
ROOT
ATOM      1  N   UNL     1       4.132   4.939  19.295  0.00  0.00    +0.000 NA
ATOM      2  C   UNL     1       4.931   4.891  18.278  0.00  0.00    +0.000 C 
ENDROOT
BRANCH   2   3
ATOM      3  C   UNL     1       6.072   5.824  18.186  0.00  0.00    +0.000 A 
ATOM      4  C   UNL     1       7.164   5.701  19.054  0.00  0.00    +0.000 A 
ATOM      5  C   UNL     1       8.219   6.615  18.987  0.00  0.00    +0.000 A 
ATOM      6  C   UNL     1       8.187   7.651  18.051  0.00  0.00    +0.000 A 
ATOM      7  C   UNL     1       7.102   7.768  17.179  0.00  0.00    +0.000 A 
ATOM      8  C   UNL     1       6.051   6.856  17.252  0.00  0.00    +0.000 A 
ATOM      9  F   UNL     1       5.016   6.998  16.411  0.00  0.00    +0.000 F 
ENDBRANCH   2   3
BRANCH   1  15
ATOM     10  C   UNL     1       2.063   4.059  20.413  0.00  0.00    +0.000 A 
ATOM     11  C   UNL     1       0.949   3.214  20.342  0.00  0.00    +0.000 A 
ATOM     12  C   UNL     1       0.763   2.395  19.227  0.00  0.00    +0.000 A 
ATOM     13  C   UNL     1       1.689   2.416  18.189  0.00  0.00    +0.000 A 
ATOM     14  C   UNL     1       2.801   3.257  18.270  0.00  0.00    +0.000 A 
ATOM     15  C   UNL     1       3.014   4.089  19.378  0.00  0.00    +0.000 A 
BRANCH  10  16
ATOM     16  O   UNL     1       2.203   4.876  21.506  0.00  0.00    +0.000 OA
ATOM     17  H   UNL     1       2.921   4.535  22.060  0.00  0.00    +0.000 HD
ENDBRANCH  10  16
ENDBRANCH   1  15
TORSDOF 3
ENDMDL
MODEL 7
REMARK VINA RESULT:      -6.6      2.409      2.739
REMARK  Name = 
REMARK  3 active torsions:
REMARK  status: ('A' for Active; 'I' for Inactive)
REMARK    1  A    between atoms: O_1  and  C_2
REMARK    2  A    between atoms: C_7  and  N_8
REMARK    3  A    between atoms: C_9  and  C_10
REMARK                            x       y       z     vdW  Elec       q    Type
REMARK                         _______ _______ _______ _____ _____    ______ ____
ROOT
ATOM      1  N   UNL     1       4.963   5.009  19.299  0.00  0.00    +0.000 NA
ATOM      2  C   UNL     1       3.726   5.178  18.956  0.00  0.00    +0.000 C 
ENDROOT
BRANCH   2   3
ATOM      3  C   UNL     1       2.685   4.258  19.459  0.00  0.00    +0.000 A 
ATOM      4  C   UNL     1       2.527   4.043  20.833  0.00  0.00    +0.000 A 
ATOM      5  C   UNL     1       1.568   3.139  21.296  0.00  0.00    +0.000 A 
ATOM      6  C   UNL     1       0.761   2.451  20.387  0.00  0.00    +0.000 A 
ATOM      7  C   UNL     1       0.911   2.673  19.016  0.00  0.00    +0.000 A 
ATOM      8  C   UNL     1       1.873   3.572  18.559  0.00  0.00    +0.000 A 
ATOM      9  F   UNL     1       2.004   3.758  17.237  0.00  0.00    +0.000 F 
ENDBRANCH   2   3
BRANCH   1  15
ATOM     10  C   UNL     1       7.285   5.965  19.291  0.00  0.00    +0.000 A 
ATOM     11  C   UNL     1       8.224   6.782  18.651  0.00  0.00    +0.000 A 
ATOM     12  C   UNL     1       7.870   7.485  17.498  0.00  0.00    +0.000 A 
ATOM     13  C   UNL     1       6.581   7.375  16.989  0.00  0.00    +0.000 A 
ATOM     14  C   UNL     1       5.647   6.562  17.635  0.00  0.00    +0.000 A 
ATOM     15  C   UNL     1       5.974   5.846  18.795  0.00  0.00    +0.000 A 
BRANCH  10  16
ATOM     16  O   UNL     1       7.670   5.261  20.403  0.00  0.00    +0.000 OA
ATOM     17  H   UNL     1       7.183   4.423  20.426  0.00  0.00    +0.000 HD
ENDBRANCH  10  16
ENDBRANCH   1  15
TORSDOF 3
ENDMDL
MODEL 8
REMARK VINA RESULT:      -6.6      1.788      2.552
REMARK  Name = 
REMARK  3 active torsions:
REMARK  status: ('A' for Active; 'I' for Inactive)
REMARK    1  A    between atoms: O_1  and  C_2
REMARK    2  A    between atoms: C_7  and  N_8
REMARK    3  A    between atoms: C_9  and  C_10
REMARK                            x       y       z     vdW  Elec       q    Type
REMARK                         _______ _______ _______ _____ _____    ______ ____
ROOT
ATOM      1  N   UNL     1       5.526   3.536  15.602  0.00  0.00    +0.000 NA
ATOM      2  C   UNL     1       4.637   4.258  16.205  0.00  0.00    +0.000 C 
ENDROOT
BRANCH   2   3
ATOM      3  C   UNL     1       3.924   3.725  17.384  0.00  0.00    +0.000 A 
ATOM      4  C   UNL     1       2.606   3.266  17.272  0.00  0.00    +0.000 A 
ATOM      5  C   UNL     1       1.926   2.804  18.402  0.00  0.00    +0.000 A 
ATOM      6  C   UNL     1       2.562   2.795  19.645  0.00  0.00    +0.000 A 
ATOM      7  C   UNL     1       3.881   3.244  19.755  0.00  0.00    +0.000 A 
ATOM      8  C   UNL     1       4.554   3.709  18.626  0.00  0.00    +0.000 A 
ATOM      9  F   UNL     1       5.815   4.145  18.762  0.00  0.00    +0.000 F 
ENDBRANCH   2   3
BRANCH   1  15
ATOM     10  C   UNL     1       7.197   4.983  14.409  0.00  0.00    +0.000 A 
ATOM     11  C   UNL     1       7.826   5.313  13.204  0.00  0.00    +0.000 A 
ATOM     12  C   UNL     1       7.459   4.666  12.023  0.00  0.00    +0.000 A 
ATOM     13  C   UNL     1       6.464   3.695  12.045  0.00  0.00    +0.000 A 
ATOM     14  C   UNL     1       5.837   3.374  13.251  0.00  0.00    +0.000 A 
ATOM     15  C   UNL     1       6.183   4.009  14.452  0.00  0.00    +0.000 A 
BRANCH  10  16
ATOM     16  O   UNL     1       7.600   5.612  15.559  0.00  0.00    +0.000 OA
ATOM     17  H   UNL     1       6.883   5.561  16.210  0.00  0.00    +0.000 HD
ENDBRANCH  10  16
ENDBRANCH   1  15
TORSDOF 3
ENDMDL
MODEL 9
REMARK VINA RESULT:      -6.6      2.813      6.097
REMARK  Name = 
REMARK  3 active torsions:
REMARK  status: ('A' for Active; 'I' for Inactive)
REMARK    1  A    between atoms: O_1  and  C_2
REMARK    2  A    between atoms: C_7  and  N_8
REMARK    3  A    between atoms: C_9  and  C_10
REMARK                            x       y       z     vdW  Elec       q    Type
REMARK                         _______ _______ _______ _____ _____    ______ ____
ROOT
ATOM      1  N   UNL     1       4.296   4.346  19.102  0.00  0.00    +0.000 NA
ATOM      2  C   UNL     1       4.660   5.053  18.081  0.00  0.00    +0.000 C 
ENDROOT
BRANCH   2   3
ATOM      3  C   UNL     1       5.911   5.836  18.129  0.00  0.00    +0.000 A 
ATOM      4  C   UNL     1       6.886   5.563  19.096  0.00  0.00    +0.000 A 
ATOM      5  C   UNL     1       8.047   6.338  19.160  0.00  0.00    +0.000 A 
ATOM      6  C   UNL     1       8.238   7.385  18.256  0.00  0.00    +0.000 A 
ATOM      7  C   UNL     1       7.270   7.651  17.284  0.00  0.00    +0.000 A 
ATOM      8  C   UNL     1       6.112   6.878  17.227  0.00  0.00    +0.000 A 
ATOM      9  F   UNL     1       5.193   7.163  16.293  0.00  0.00    +0.000 F 
ENDBRANCH   2   3
BRANCH   1  15
ATOM     10  C   UNL     1       2.881   2.342  18.562  0.00  0.00    +0.000 A 
ATOM     11  C   UNL     1       1.641   1.704  18.681  0.00  0.00    +0.000 A 
ATOM     12  C   UNL     1       0.589   2.339  19.343  0.00  0.00    +0.000 A 
ATOM     13  C   UNL     1       0.773   3.608  19.880  0.00  0.00    +0.000 A 
ATOM     14  C   UNL     1       2.012   4.242  19.752  0.00  0.00    +0.000 A 
ATOM     15  C   UNL     1       3.086   3.629  19.092  0.00  0.00    +0.000 A 
BRANCH  10  16
ATOM     16  O   UNL     1       3.906   1.681  17.935  0.00  0.00    +0.000 OA
ATOM     17  H   UNL     1       3.549   1.209  17.166  0.00  0.00    +0.000 HD
ENDBRANCH  10  16
ENDBRANCH   1  15
TORSDOF 3
ENDMDL
