MODEL 1
REMARK VINA RESULT:      -9.2      0.000      0.000
REMARK  Name = 
REMARK  5 active torsions:
REMARK  status: ('A' for Active; 'I' for Inactive)
REMARK    1  A    between atoms: N_1  and  C_2
REMARK    2  A    between atoms: C_3  and  C_4
REMARK    3  A    between atoms: C_7  and  N_8
REMARK    4  A    between atoms: N_11  and  C_12
REMARK    5  A    between atoms: C_16  and  C_17
REMARK                            x       y       z     vdW  Elec       q    Type
REMARK                         _______ _______ _______ _____ _____    ______ ____
ROOT
ATOM      1  C   UNL     1       9.489  12.566  18.798  0.00  0.00    +0.000 A 
ATOM      2  C   UNL     1       8.782  11.986  17.746  0.00  0.00    +0.000 A 
ATOM      3  C   UNL     1       8.517  10.613  17.754  0.00  0.00    +0.000 A 
ATOM      4  C   UNL     1       8.961   9.792  18.799  0.00  0.00    +0.000 A 
ATOM      5  C   UNL     1       9.653  10.380  19.860  0.00  0.00    +0.000 A 
ATOM      6  C   UNL     1       9.922  11.756  19.856  0.00  0.00    +0.000 A 
ENDROOT
BRANCH   1   8
ATOM      7  C   UNL     1      10.425  14.649  17.806  0.00  0.00    +0.000 A 
ATOM      8  C   UNL     1       9.772  14.005  18.799  0.00  0.00    +0.000 A 
ATOM      9  C   UNL     1       9.322  14.856  19.946  0.00  0.00    +0.000 A 
ATOM     10  N   UNL     1       9.464  16.142  20.066  0.00  0.00    +0.000 NA
ATOM     11  C   UNL     1      10.093  16.764  19.026  0.00  0.00    +0.000 A 
ATOM     12  C   UNL     1      10.394  18.086  18.803  0.00  0.00    +0.000 A 
ATOM     13  C   UNL     1      11.024  18.113  17.549  0.00  0.00    +0.000 A 
ATOM     14  N   UNL     1      11.129  16.906  16.994  0.00  0.00    +0.000 NA
ATOM     15  N   UNL     1      10.575  16.059  17.918  0.00  0.00    +0.000 N 
BRANCH   7  16
ATOM     16  N   UNL     1      10.944  14.049  16.660  0.00  0.00    +0.000 N 
ATOM     17  H   UNL     1      10.729  13.057  16.564  0.00  0.00    +0.000 HD
ATOM     18  H   UNL     1      10.744  14.602  15.821  0.00  0.00    +0.000 HD
ENDBRANCH   7  16
ENDBRANCH   1   8
BRANCH   4  19
ATOM     19  N   UNL     1       8.717   8.396  18.829  0.00  0.00    +0.000 N 
ATOM     20  C   UNL     1       7.815   7.758  18.008  0.00  0.00    +0.000 C 
ATOM     21  O   UNL     1       7.225   8.302  17.076  0.00  0.00    +0.000 OA
ATOM     22  N   UNL     1       7.610   6.423  18.350  0.00  0.00    +0.000 N 
ATOM     23  H   UNL     1       9.421   7.807  19.256  0.00  0.00    +0.000 HD
ATOM     24  H   UNL     1       7.635   6.253  19.346  0.00  0.00    +0.000 HD
BRANCH  22  25
ATOM     25  C   UNL     1       6.656   5.680  17.608  0.00  0.00    +0.000 A 
ATOM     26  C   UNL     1       7.081   4.904  16.531  0.00  0.00    +0.000 A 
ATOM     27  C   UNL     1       6.193   4.004  15.936  0.00  0.00    +0.000 A 
ATOM     28  C   UNL     1       4.869   3.923  16.372  0.00  0.00    +0.000 A 
ATOM     29  C   UNL     1       4.405   4.761  17.393  0.00  0.00    +0.000 A 
ATOM     30  C   UNL     1       5.314   5.638  18.005  0.00  0.00    +0.000 A 
BRANCH  29  31
ATOM     31  C   UNL     1       2.968   4.726  17.852  0.00  0.00    +0.000 C 
ATOM     32  F   UNL     1       2.191   3.865  17.136  0.00  0.00    +0.000 F 
ATOM     33  F   UNL     1       2.829   4.356  19.154  0.00  0.00    +0.000 F 
ATOM     34  F   UNL     1       2.363   5.943  17.743  0.00  0.00    +0.000 F 
ENDBRANCH  29  31
ENDBRANCH  22  25
ENDBRANCH   4  19
TORSDOF 5
ENDMDL
MODEL 2
REMARK VINA RESULT:      -9.0      1.025      1.540
REMARK  Name = 
REMARK  5 active torsions:
REMARK  status: ('A' for Active; 'I' for Inactive)
REMARK    1  A    between atoms: N_1  and  C_2
REMARK    2  A    between atoms: C_3  and  C_4
REMARK    3  A    between atoms: C_7  and  N_8
REMARK    4  A    between atoms: N_11  and  C_12
REMARK    5  A    between atoms: C_16  and  C_17
REMARK                            x       y       z     vdW  Elec       q    Type
REMARK                         _______ _______ _______ _____ _____    ______ ____
ROOT
ATOM      1  C   UNL     1       9.973  12.738  18.998  0.00  0.00    +0.000 A 
ATOM      2  C   UNL     1       9.639  12.116  20.199  0.00  0.00    +0.000 A 
ATOM      3  C   UNL     1       9.302  10.759  20.215  0.00  0.00    +0.000 A 
ATOM      4  C   UNL     1       9.282  10.001  19.037  0.00  0.00    +0.000 A 
ATOM      5  C   UNL     1       9.636  10.623  17.837  0.00  0.00    +0.000 A 
ATOM      6  C   UNL     1       9.972  11.984  17.817  0.00  0.00    +0.000 A 
ENDROOT
BRANCH   1   8
ATOM      7  C   UNL     1       9.568  15.118  18.392  0.00  0.00    +0.000 A 
ATOM      8  C   UNL     1      10.328  14.161  18.970  0.00  0.00    +0.000 A 
ATOM      9  C   UNL     1      11.593  14.631  19.617  0.00  0.00    +0.000 A 
ATOM     10  N   UNL     1      12.015  15.857  19.708  0.00  0.00    +0.000 NA
ATOM     11  C   UNL     1      11.204  16.801  19.147  0.00  0.00    +0.000 A 
ATOM     12  C   UNL     1      11.315  18.168  19.070  0.00  0.00    +0.000 A 
ATOM     13  C   UNL     1      10.161  18.593  18.394  0.00  0.00    +0.000 A 
ATOM     14  N   UNL     1       9.358  17.586  18.053  0.00  0.00    +0.000 NA
ATOM     15  N   UNL     1      10.012  16.467  18.495  0.00  0.00    +0.000 N 
BRANCH   7  16
ATOM     16  N   UNL     1       8.367  14.900  17.721  0.00  0.00    +0.000 N 
ATOM     17  H   UNL     1       8.424  14.233  16.952  0.00  0.00    +0.000 HD
ATOM     18  H   UNL     1       7.598  14.721  18.374  0.00  0.00    +0.000 HD
ENDBRANCH   7  16
ENDBRANCH   1   8
BRANCH   4  19
ATOM     19  N   UNL     1       8.934   8.626  19.020  0.00  0.00    +0.000 N 
ATOM     20  C   UNL     1       8.030   8.075  18.142  0.00  0.00    +0.000 C 
ATOM     21  O   UNL     1       7.529   8.681  17.196  0.00  0.00    +0.000 OA
ATOM     22  N   UNL     1       7.709   6.753  18.442  0.00  0.00    +0.000 N 
ATOM     23  H   UNL     1       9.570   7.977  19.467  0.00  0.00    +0.000 HD
ATOM     24  H   UNL     1       7.672   6.561  19.433  0.00  0.00    +0.000 HD
BRANCH  22  25
ATOM     25  C   UNL     1       6.741   6.098  17.637  0.00  0.00    +0.000 A 
ATOM     26  C   UNL     1       7.129   5.534  16.423  0.00  0.00    +0.000 A 
ATOM     27  C   UNL     1       6.242   4.704  15.733  0.00  0.00    +0.000 A 
ATOM     28  C   UNL     1       4.951   4.488  16.219  0.00  0.00    +0.000 A 
ATOM     29  C   UNL     1       4.518   5.122  17.389  0.00  0.00    +0.000 A 
ATOM     30  C   UNL     1       5.428   5.926  18.092  0.00  0.00    +0.000 A 
BRANCH  29  31
ATOM     31  C   UNL     1       3.114   4.942  17.912  0.00  0.00    +0.000 C 
ATOM     32  F   UNL     1       3.068   4.574  19.225  0.00  0.00    +0.000 F 
ATOM     33  F   UNL     1       2.356   6.068  17.816  0.00  0.00    +0.000 F 
ATOM     34  F   UNL     1       2.433   3.974  17.237  0.00  0.00    +0.000 F 
ENDBRANCH  29  31
ENDBRANCH  22  25
ENDBRANCH   4  19
TORSDOF 5
ENDMDL
MODEL 3
REMARK VINA RESULT:      -9.0      1.760      2.236
REMARK  Name = 
REMARK  5 active torsions:
REMARK  status: ('A' for Active; 'I' for Inactive)
REMARK    1  A    between atoms: N_1  and  C_2
REMARK    2  A    between atoms: C_3  and  C_4
REMARK    3  A    between atoms: C_7  and  N_8
REMARK    4  A    between atoms: N_11  and  C_12
REMARK    5  A    between atoms: C_16  and  C_17
REMARK                            x       y       z     vdW  Elec       q    Type
REMARK                         _______ _______ _______ _____ _____    ______ ____
ROOT
ATOM      1  C   UNL     1       9.359  12.590  18.762  0.00  0.00    +0.000 A 
ATOM      2  C   UNL     1       8.719  11.936  17.710  0.00  0.00    +0.000 A 
ATOM      3  C   UNL     1       8.535  10.551  17.756  0.00  0.00    +0.000 A 
ATOM      4  C   UNL     1       8.993   9.792  18.841  0.00  0.00    +0.000 A 
ATOM      5  C   UNL     1       9.617  10.452  19.901  0.00  0.00    +0.000 A 
ATOM      6  C   UNL     1       9.805  11.841  19.858  0.00  0.00    +0.000 A 
ENDROOT
BRANCH   1   8
ATOM      7  C   UNL     1      10.298  14.681  17.789  0.00  0.00    +0.000 A 
ATOM      8  C   UNL     1       9.557  14.042  18.724  0.00  0.00    +0.000 A 
ATOM      9  C   UNL     1       8.912  14.915  19.755  0.00  0.00    +0.000 A 
ATOM     10  N   UNL     1       8.963  16.211  19.824  0.00  0.00    +0.000 NA
ATOM     11  C   UNL     1       9.688  16.824  18.843  0.00  0.00    +0.000 A 
ATOM     12  C   UNL     1       9.941  18.151  18.590  0.00  0.00    +0.000 A 
ATOM     13  C   UNL     1      10.727  18.161  17.429  0.00  0.00    +0.000 A 
ATOM     14  N   UNL     1      10.973  16.939  16.957  0.00  0.00    +0.000 NA
ATOM     15  N   UNL     1      10.351  16.102  17.846  0.00  0.00    +0.000 N 
BRANCH   7  16
ATOM     16  N   UNL     1      10.996  14.064  16.754  0.00  0.00    +0.000 N 
ATOM     17  H   UNL     1      11.582  13.281  17.042  0.00  0.00    +0.000 HD
ATOM     18  H   UNL     1      10.385  13.857  15.958  0.00  0.00    +0.000 HD
ENDBRANCH   7  16
ENDBRANCH   1   8
BRANCH   4  19
ATOM     19  N   UNL     1       8.830   8.384  18.909  0.00  0.00    +0.000 N 
ATOM     20  C   UNL     1       7.921   7.680  18.155  0.00  0.00    +0.000 C 
ATOM     21  O   UNL     1       7.248   8.171  17.249  0.00  0.00    +0.000 OA
ATOM     22  N   UNL     1       7.811   6.344  18.533  0.00  0.00    +0.000 N 
ATOM     23  H   UNL     1       9.590   7.844  19.305  0.00  0.00    +0.000 HD
ATOM     24  H   UNL     1       7.903   6.197  19.528  0.00  0.00    +0.000 HD
BRANCH  22  25
ATOM     25  C   UNL     1       6.859   5.533  17.861  0.00  0.00    +0.000 A 
ATOM     26  C   UNL     1       5.731   5.090  18.549  0.00  0.00    +0.000 A 
ATOM     27  C   UNL     1       4.688   4.482  17.846  0.00  0.00    +0.000 A 
ATOM     28  C   UNL     1       4.797   4.259  16.471  0.00  0.00    +0.000 A 
ATOM     29  C   UNL     1       5.963   4.616  15.784  0.00  0.00    +0.000 A 
ATOM     30  C   UNL     1       6.990   5.257  16.495  0.00  0.00    +0.000 A 
BRANCH  29  31
ATOM     31  C   UNL     1       6.125   4.347  14.309  0.00  0.00    +0.000 C 
ATOM     32  F   UNL     1       6.565   3.086  14.034  0.00  0.00    +0.000 F 
ATOM     33  F   UNL     1       4.970   4.498  13.605  0.00  0.00    +0.000 F 
ATOM     34  F   UNL     1       7.030   5.185  13.728  0.00  0.00    +0.000 F 
ENDBRANCH  29  31
ENDBRANCH  22  25
ENDBRANCH   4  19
TORSDOF 5
ENDMDL
MODEL 4
REMARK VINA RESULT:      -8.9      0.767      1.682
REMARK  Name = 
REMARK  5 active torsions:
REMARK  status: ('A' for Active; 'I' for Inactive)
REMARK    1  A    between atoms: N_1  and  C_2
REMARK    2  A    between atoms: C_3  and  C_4
REMARK    3  A    between atoms: C_7  and  N_8
REMARK    4  A    between atoms: N_11  and  C_12
REMARK    5  A    between atoms: C_16  and  C_17
REMARK                            x       y       z     vdW  Elec       q    Type
REMARK                         _______ _______ _______ _____ _____    ______ ____
ROOT
ATOM      1  C   UNL     1       9.572  12.683  18.270  0.00  0.00    +0.000 A 
ATOM      2  C   UNL     1      10.328  11.938  19.173  0.00  0.00    +0.000 A 
ATOM      3  C   UNL     1      10.052  10.580  19.363  0.00  0.00    +0.000 A 
ATOM      4  C   UNL     1       9.016   9.944  18.667  0.00  0.00    +0.000 A 
ATOM      5  C   UNL     1       8.273  10.690  17.749  0.00  0.00    +0.000 A 
ATOM      6  C   UNL     1       8.545  12.052  17.557  0.00  0.00    +0.000 A 
ENDROOT
BRANCH   1   8
ATOM      7  C   UNL     1       9.159  15.108  18.652  0.00  0.00    +0.000 A 
ATOM      8  C   UNL     1       9.853  14.108  18.064  0.00  0.00    +0.000 A 
ATOM      9  C   UNL     1      10.972  14.530  17.163  0.00  0.00    +0.000 A 
ATOM     10  N   UNL     1      11.362  15.745  16.918  0.00  0.00    +0.000 NA
ATOM     11  C   UNL     1      10.663  16.727  17.560  0.00  0.00    +0.000 A 
ATOM     12  C   UNL     1      10.802  18.094  17.557  0.00  0.00    +0.000 A 
ATOM     13  C   UNL     1       9.808  18.566  18.427  0.00  0.00    +0.000 A 
ATOM     14  N   UNL     1       9.074  17.588  18.958  0.00  0.00    +0.000 NA
ATOM     15  N   UNL     1       9.584  16.444  18.403  0.00  0.00    +0.000 N 
BRANCH   7  16
ATOM     16  N   UNL     1       8.073  14.942  19.509  0.00  0.00    +0.000 N 
ATOM     17  H   UNL     1       8.310  14.577  20.431  0.00  0.00    +0.000 HD
ATOM     18  H   UNL     1       7.477  15.775  19.529  0.00  0.00    +0.000 HD
ENDBRANCH   7  16
ENDBRANCH   1   8
BRANCH   4  19
ATOM     19  N   UNL     1       8.707   8.572  18.846  0.00  0.00    +0.000 N 
ATOM     20  C   UNL     1       7.876   7.858  18.014  0.00  0.00    +0.000 C 
ATOM     21  O   UNL     1       7.421   8.291  16.956  0.00  0.00    +0.000 OA
ATOM     22  N   UNL     1       7.572   6.588  18.498  0.00  0.00    +0.000 N 
ATOM     23  H   UNL     1       9.330   8.024  19.426  0.00  0.00    +0.000 HD
ATOM     24  H   UNL     1       7.476   6.552  19.503  0.00  0.00    +0.000 HD
BRANCH  22  25
ATOM     25  C   UNL     1       6.676   5.781  17.750  0.00  0.00    +0.000 A 
ATOM     26  C   UNL     1       7.171   4.982  16.721  0.00  0.00    +0.000 A 
ATOM     27  C   UNL     1       6.340   4.027  16.129  0.00  0.00    +0.000 A 
ATOM     28  C   UNL     1       5.004   3.913  16.516  0.00  0.00    +0.000 A 
ATOM     29  C   UNL     1       4.469   4.772  17.485  0.00  0.00    +0.000 A 
ATOM     30  C   UNL     1       5.321   5.704  18.096  0.00  0.00    +0.000 A 
BRANCH  29  31
ATOM     31  C   UNL     1       3.018   4.700  17.890  0.00  0.00    +0.000 C 
ATOM     32  F   UNL     1       2.278   3.861  17.111  0.00  0.00    +0.000 F 
ATOM     33  F   UNL     1       2.838   4.274  19.169  0.00  0.00    +0.000 F 
ATOM     34  F   UNL     1       2.400   5.913  17.810  0.00  0.00    +0.000 F 
ENDBRANCH  29  31
ENDBRANCH  22  25
ENDBRANCH   4  19
TORSDOF 5
ENDMDL
MODEL 5
REMARK VINA RESULT:      -8.9      0.977      1.489
REMARK  Name = 
REMARK  5 active torsions:
REMARK  status: ('A' for Active; 'I' for Inactive)
REMARK    1  A    between atoms: N_1  and  C_2
REMARK    2  A    between atoms: C_3  and  C_4
REMARK    3  A    between atoms: C_7  and  N_8
REMARK    4  A    between atoms: N_11  and  C_12
REMARK    5  A    between atoms: C_16  and  C_17
REMARK                            x       y       z     vdW  Elec       q    Type
REMARK                         _______ _______ _______ _____ _____    ______ ____
ROOT
ATOM      1  C   UNL     1       9.592  12.568  19.007  0.00  0.00    +0.000 A 
ATOM      2  C   UNL     1       9.255  11.935  17.812  0.00  0.00    +0.000 A 
ATOM      3  C   UNL     1       8.978  10.564  17.801  0.00  0.00    +0.000 A 
ATOM      4  C   UNL     1       9.041   9.799  18.973  0.00  0.00    +0.000 A 
ATOM      5  C   UNL     1       9.362  10.441  20.172  0.00  0.00    +0.000 A 
ATOM      6  C   UNL     1       9.642  11.815  20.187  0.00  0.00    +0.000 A 
ENDROOT
BRANCH   1   8
ATOM      7  C   UNL     1       8.940  14.971  18.973  0.00  0.00    +0.000 A 
ATOM      8  C   UNL     1       9.885  14.005  19.030  0.00  0.00    +0.000 A 
ATOM      9  C   UNL     1      11.301  14.480  19.131  0.00  0.00    +0.000 A 
ATOM     10  N   UNL     1      11.708  15.712  19.202  0.00  0.00    +0.000 NA
ATOM     11  C   UNL     1      10.725  16.658  19.182  0.00  0.00    +0.000 A 
ATOM     12  C   UNL     1      10.777  18.029  19.257  0.00  0.00    +0.000 A 
ATOM     13  C   UNL     1       9.441  18.452  19.208  0.00  0.00    +0.000 A 
ATOM     14  N   UNL     1       8.579  17.441  19.107  0.00  0.00    +0.000 NA
ATOM     15  N   UNL     1       9.372  16.324  19.064  0.00  0.00    +0.000 N 
BRANCH   7  16
ATOM     16  N   UNL     1       7.569  14.752  18.860  0.00  0.00    +0.000 N 
ATOM     17  H   UNL     1       7.257  14.477  17.929  0.00  0.00    +0.000 HD
ATOM     18  H   UNL     1       7.219  14.151  19.612  0.00  0.00    +0.000 HD
ENDBRANCH   7  16
ENDBRANCH   1   8
BRANCH   4  19
ATOM     19  N   UNL     1       8.776   8.406  18.990  0.00  0.00    +0.000 N 
ATOM     20  C   UNL     1       7.895   7.783  18.137  0.00  0.00    +0.000 C 
ATOM     21  O   UNL     1       7.346   8.338  17.186  0.00  0.00    +0.000 OA
ATOM     22  N   UNL     1       7.658   6.451  18.468  0.00  0.00    +0.000 N 
ATOM     23  H   UNL     1       9.456   7.806  19.441  0.00  0.00    +0.000 HD
ATOM     24  H   UNL     1       7.646   6.279  19.464  0.00  0.00    +0.000 HD
BRANCH  22  25
ATOM     25  C   UNL     1       6.720   5.723  17.691  0.00  0.00    +0.000 A 
ATOM     26  C   UNL     1       7.164   4.995  16.589  0.00  0.00    +0.000 A 
ATOM     27  C   UNL     1       6.293   4.105  15.954  0.00  0.00    +0.000 A 
ATOM     28  C   UNL     1       4.967   3.990  16.376  0.00  0.00    +0.000 A 
ATOM     29  C   UNL     1       4.483   4.784  17.423  0.00  0.00    +0.000 A 
ATOM     30  C   UNL     1       5.375   5.649  18.075  0.00  0.00    +0.000 A 
BRANCH  29  31
ATOM     31  C   UNL     1       3.044   4.712  17.869  0.00  0.00    +0.000 C 
ATOM     32  F   UNL     1       2.896   4.285  19.155  0.00  0.00    +0.000 F 
ATOM     33  F   UNL     1       2.400   5.909  17.799  0.00  0.00    +0.000 F 
ATOM     34  F   UNL     1       2.312   3.849  17.110  0.00  0.00    +0.000 F 
ENDBRANCH  29  31
ENDBRANCH  22  25
ENDBRANCH   4  19
TORSDOF 5
ENDMDL
MODEL 6
REMARK VINA RESULT:      -8.8      0.659      1.593
REMARK  Name = 
REMARK  5 active torsions:
REMARK  status: ('A' for Active; 'I' for Inactive)
REMARK    1  A    between atoms: N_1  and  C_2
REMARK    2  A    between atoms: C_3  and  C_4
REMARK    3  A    between atoms: C_7  and  N_8
REMARK    4  A    between atoms: N_11  and  C_12
REMARK    5  A    between atoms: C_16  and  C_17
REMARK                            x       y       z     vdW  Elec       q    Type
REMARK                         _______ _______ _______ _____ _____    ______ ____
ROOT
ATOM      1  C   UNL     1       9.701  12.548  18.547  0.00  0.00    +0.000 A 
ATOM      2  C   UNL     1       8.764  11.994  17.676  0.00  0.00    +0.000 A 
ATOM      3  C   UNL     1       8.419  10.644  17.785  0.00  0.00    +0.000 A 
ATOM      4  C   UNL     1       9.006   9.819  18.754  0.00  0.00    +0.000 A 
ATOM      5  C   UNL     1       9.930  10.382  19.638  0.00  0.00    +0.000 A 
ATOM      6  C   UNL     1      10.280  11.735  19.530  0.00  0.00    +0.000 A 
ENDROOT
BRANCH   1   8
ATOM      7  C   UNL     1       9.504  14.950  19.172  0.00  0.00    +0.000 A 
ATOM      8  C   UNL     1      10.070  13.963  18.440  0.00  0.00    +0.000 A 
ATOM      9  C   UNL     1      11.140  14.389  17.483  0.00  0.00    +0.000 A 
ATOM     10  N   UNL     1      11.599  15.592  17.310  0.00  0.00    +0.000 NA
ATOM     11  C   UNL     1      11.032  16.556  18.094  0.00  0.00    +0.000 A 
ATOM     12  C   UNL     1      11.272  17.905  18.196  0.00  0.00    +0.000 A 
ATOM     13  C   UNL     1      10.392  18.361  19.188  0.00  0.00    +0.000 A 
ATOM     14  N   UNL     1       9.633  17.391  19.696  0.00  0.00    +0.000 NA
ATOM     15  N   UNL     1      10.007  16.270  19.002  0.00  0.00    +0.000 N 
BRANCH   7  16
ATOM     16  N   UNL     1       8.483  14.779  20.104  0.00  0.00    +0.000 N 
ATOM     17  H   UNL     1       8.708  15.100  21.045  0.00  0.00    +0.000 HD
ATOM     18  H   UNL     1       7.587  15.124  19.748  0.00  0.00    +0.000 HD
ENDBRANCH   7  16
ENDBRANCH   1   8
BRANCH   4  19
ATOM     19  N   UNL     1       8.684   8.444  18.882  0.00  0.00    +0.000 N 
ATOM     20  C   UNL     1       7.844   7.771  18.026  0.00  0.00    +0.000 C 
ATOM     21  O   UNL     1       7.389   8.249  16.987  0.00  0.00    +0.000 OA
ATOM     22  N   UNL     1       7.529   6.486  18.462  0.00  0.00    +0.000 N 
ATOM     23  H   UNL     1       9.304   7.868  19.438  0.00  0.00    +0.000 HD
ATOM     24  H   UNL     1       7.436   6.412  19.465  0.00  0.00    +0.000 HD
BRANCH  22  25
ATOM     25  C   UNL     1       6.622   5.718  17.686  0.00  0.00    +0.000 A 
ATOM     26  C   UNL     1       7.102   4.974  16.610  0.00  0.00    +0.000 A 
ATOM     27  C   UNL     1       6.264   4.050  15.981  0.00  0.00    +0.000 A 
ATOM     28  C   UNL     1       4.933   3.913  16.383  0.00  0.00    +0.000 A 
ATOM     29  C   UNL     1       4.413   4.719  17.403  0.00  0.00    +0.000 A 
ATOM     30  C   UNL     1       5.273   5.620  18.049  0.00  0.00    +0.000 A 
BRANCH  29  31
ATOM     31  C   UNL     1       2.968   4.623  17.826  0.00  0.00    +0.000 C 
ATOM     32  F   UNL     1       2.314   5.819  17.796  0.00  0.00    +0.000 F 
ATOM     33  F   UNL     1       2.235   3.781  17.049  0.00  0.00    +0.000 F 
ATOM     34  F   UNL     1       2.835   4.165  19.103  0.00  0.00    +0.000 F 
ENDBRANCH  29  31
ENDBRANCH  22  25
ENDBRANCH   4  19
TORSDOF 5
ENDMDL
MODEL 7
REMARK VINA RESULT:      -8.8      9.804     11.273
REMARK  Name = 
REMARK  5 active torsions:
REMARK  status: ('A' for Active; 'I' for Inactive)
REMARK    1  A    between atoms: N_1  and  C_2
REMARK    2  A    between atoms: C_3  and  C_4
REMARK    3  A    between atoms: C_7  and  N_8
REMARK    4  A    between atoms: N_11  and  C_12
REMARK    5  A    between atoms: C_16  and  C_17
REMARK                            x       y       z     vdW  Elec       q    Type
REMARK                         _______ _______ _______ _____ _____    ______ ____
ROOT
ATOM      1  C   UNL     1      -2.194  12.575  22.653  0.00  0.00    +0.000 A 
ATOM      2  C   UNL     1      -2.081  11.424  23.431  0.00  0.00    +0.000 A 
ATOM      3  C   UNL     1      -1.039  10.521  23.196  0.00  0.00    +0.000 A 
ATOM      4  C   UNL     1      -0.101  10.741  22.180  0.00  0.00    +0.000 A 
ATOM      5  C   UNL     1      -0.207  11.905  21.415  0.00  0.00    +0.000 A 
ATOM      6  C   UNL     1      -1.251  12.812  21.645  0.00  0.00    +0.000 A 
ENDROOT
BRANCH   1   8
ATOM      7  C   UNL     1      -4.537  13.381  22.405  0.00  0.00    +0.000 A 
ATOM      8  C   UNL     1      -3.283  13.528  22.890  0.00  0.00    +0.000 A 
ATOM      9  C   UNL     1      -3.043  14.749  23.723  0.00  0.00    +0.000 A 
ATOM     10  N   UNL     1      -3.916  15.655  24.051  0.00  0.00    +0.000 NA
ATOM     11  C   UNL     1      -5.179  15.453  23.575  0.00  0.00    +0.000 A 
ATOM     12  C   UNL     1      -6.338  16.175  23.731  0.00  0.00    +0.000 A 
ATOM     13  C   UNL     1      -7.316  15.458  23.026  0.00  0.00    +0.000 A 
ATOM     14  N   UNL     1      -6.839  14.355  22.452  0.00  0.00    +0.000 NA
ATOM     15  N   UNL     1      -5.505  14.359  22.767  0.00  0.00    +0.000 N 
BRANCH   7  16
ATOM     16  N   UNL     1      -4.971  12.333  21.596  0.00  0.00    +0.000 N 
ATOM     17  H   UNL     1      -5.628  11.694  22.044  0.00  0.00    +0.000 HD
ATOM     18  H   UNL     1      -5.273  12.666  20.676  0.00  0.00    +0.000 HD
ENDBRANCH   7  16
ENDBRANCH   1   8
BRANCH   4  19
ATOM     19  N   UNL     1       0.960   9.838  21.912  0.00  0.00    +0.000 N 
ATOM     20  C   UNL     1       0.903   8.852  20.955  0.00  0.00    +0.000 C 
ATOM     21  O   UNL     1      -0.012   8.731  20.141  0.00  0.00    +0.000 OA
ATOM     22  N   UNL     1       1.982   7.973  21.007  0.00  0.00    +0.000 N 
ATOM     23  H   UNL     1       1.887  10.099  22.225  0.00  0.00    +0.000 HD
ATOM     24  H   UNL     1       2.304   7.784  21.946  0.00  0.00    +0.000 HD
BRANCH  22  25
ATOM     25  C   UNL     1       2.001   6.879  20.103  0.00  0.00    +0.000 A 
ATOM     26  C   UNL     1       2.542   7.053  18.830  0.00  0.00    +0.000 A 
ATOM     27  C   UNL     1       2.766   5.939  18.017  0.00  0.00    +0.000 A 
ATOM     28  C   UNL     1       2.392   4.663  18.446  0.00  0.00    +0.000 A 
ATOM     29  C   UNL     1       1.764   4.486  19.685  0.00  0.00    +0.000 A 
ATOM     30  C   UNL     1       1.575   5.608  20.507  0.00  0.00    +0.000 A 
BRANCH  29  31
ATOM     31  C   UNL     1       1.310   3.126  20.153  0.00  0.00    +0.000 C 
ATOM     32  F   UNL     1       2.251   2.153  19.988  0.00  0.00    +0.000 F 
ATOM     33  F   UNL     1       0.974   3.096  21.472  0.00  0.00    +0.000 F 
ATOM     34  F   UNL     1       0.209   2.689  19.477  0.00  0.00    +0.000 F 
ENDBRANCH  29  31
ENDBRANCH  22  25
ENDBRANCH   4  19
TORSDOF 5
ENDMDL
MODEL 8
REMARK VINA RESULT:      -8.8      1.797      2.443
REMARK  Name = 
REMARK  5 active torsions:
REMARK  status: ('A' for Active; 'I' for Inactive)
REMARK    1  A    between atoms: N_1  and  C_2
REMARK    2  A    between atoms: C_3  and  C_4
REMARK    3  A    between atoms: C_7  and  N_8
REMARK    4  A    between atoms: N_11  and  C_12
REMARK    5  A    between atoms: C_16  and  C_17
REMARK                            x       y       z     vdW  Elec       q    Type
REMARK                         _______ _______ _______ _____ _____    ______ ____
ROOT
ATOM      1  C   UNL     1       9.330  12.876  18.866  0.00  0.00    +0.000 A 
ATOM      2  C   UNL     1       9.544  12.204  20.068  0.00  0.00    +0.000 A 
ATOM      3  C   UNL     1       9.431  10.811  20.120  0.00  0.00    +0.000 A 
ATOM      4  C   UNL     1       9.094  10.066  18.983  0.00  0.00    +0.000 A 
ATOM      5  C   UNL     1       8.898  10.741  17.776  0.00  0.00    +0.000 A 
ATOM      6  C   UNL     1       9.008  12.138  17.720  0.00  0.00    +0.000 A 
ENDROOT
BRANCH   1   8
ATOM      7  C   UNL     1      10.327  14.992  18.012  0.00  0.00    +0.000 A 
ATOM      8  C   UNL     1       9.445  14.337  18.801  0.00  0.00    +0.000 A 
ATOM      9  C   UNL     1       8.545  15.198  19.632  0.00  0.00    +0.000 A 
ATOM     10  N   UNL     1       8.504  16.497  19.648  0.00  0.00    +0.000 NA
ATOM     11  C   UNL     1       9.382  17.123  18.811  0.00  0.00    +0.000 A 
ATOM     12  C   UNL     1       9.603  18.455  18.554  0.00  0.00    +0.000 A 
ATOM     13  C   UNL     1      10.616  18.478  17.583  0.00  0.00    +0.000 A 
ATOM     14  N   UNL     1      11.028  17.261  17.232  0.00  0.00    +0.000 NA
ATOM     15  N   UNL     1      10.283  16.414  18.010  0.00  0.00    +0.000 N 
BRANCH   7  16
ATOM     16  N   UNL     1      11.264  14.389  17.176  0.00  0.00    +0.000 N 
ATOM     17  H   UNL     1      12.146  14.892  17.092  0.00  0.00    +0.000 HD
ATOM     18  H   UNL     1      11.370  13.392  17.385  0.00  0.00    +0.000 HD
ENDBRANCH   7  16
ENDBRANCH   1   8
BRANCH   4  19
ATOM     19  N   UNL     1       8.962   8.654  19.008  0.00  0.00    +0.000 N 
ATOM     20  C   UNL     1       8.014   7.960  18.293  0.00  0.00    +0.000 C 
ATOM     21  O   UNL     1       7.269   8.470  17.456  0.00  0.00    +0.000 OA
ATOM     22  N   UNL     1       7.954   6.608  18.625  0.00  0.00    +0.000 N 
ATOM     23  H   UNL     1       9.757   8.115  19.329  0.00  0.00    +0.000 HD
ATOM     24  H   UNL     1       8.119   6.426  19.605  0.00  0.00    +0.000 HD
BRANCH  22  25
ATOM     25  C   UNL     1       6.972   5.803  17.992  0.00  0.00    +0.000 A 
ATOM     26  C   UNL     1       5.834   5.426  18.702  0.00  0.00    +0.000 A 
ATOM     27  C   UNL     1       4.767   4.826  18.028  0.00  0.00    +0.000 A 
ATOM     28  C   UNL     1       4.861   4.545  16.663  0.00  0.00    +0.000 A 
ATOM     29  C   UNL     1       6.034   4.835  15.957  0.00  0.00    +0.000 A 
ATOM     30  C   UNL     1       7.086   5.469  16.636  0.00  0.00    +0.000 A 
BRANCH  29  31
ATOM     31  C   UNL     1       6.178   4.501  14.493  0.00  0.00    +0.000 C 
ATOM     32  F   UNL     1       5.014   4.617  13.793  0.00  0.00    +0.000 F 
ATOM     33  F   UNL     1       7.078   5.291  13.848  0.00  0.00    +0.000 F 
ATOM     34  F   UNL     1       6.598   3.219  14.296  0.00  0.00    +0.000 F 
ENDBRANCH  29  31
ENDBRANCH  22  25
ENDBRANCH   4  19
TORSDOF 5
ENDMDL
MODEL 9
REMARK VINA RESULT:      -8.7      1.913      2.798
REMARK  Name = 
REMARK  5 active torsions:
REMARK  status: ('A' for Active; 'I' for Inactive)
REMARK    1  A    between atoms: N_1  and  C_2
REMARK    2  A    between atoms: C_3  and  C_4
REMARK    3  A    between atoms: C_7  and  N_8
REMARK    4  A    between atoms: N_11  and  C_12
REMARK    5  A    between atoms: C_16  and  C_17
REMARK                            x       y       z     vdW  Elec       q    Type
REMARK                         _______ _______ _______ _____ _____    ______ ____
ROOT
ATOM      1  C   UNL     1       9.520  12.728  18.318  0.00  0.00    +0.000 A 
ATOM      2  C   UNL     1      10.279  12.064  19.280  0.00  0.00    +0.000 A 
ATOM      3  C   UNL     1      10.084  10.697  19.503  0.00  0.00    +0.000 A 
ATOM      4  C   UNL     1       9.126   9.972  18.783  0.00  0.00    +0.000 A 
ATOM      5  C   UNL     1       8.380  10.637  17.807  0.00  0.00    +0.000 A 
ATOM      6  C   UNL     1       8.572  12.008  17.582  0.00  0.00    +0.000 A 
ENDROOT
BRANCH   1   8
ATOM      7  C   UNL     1       8.910  15.129  18.568  0.00  0.00    +0.000 A 
ATOM      8  C   UNL     1       9.717  14.161  18.077  0.00  0.00    +0.000 A 
ATOM      9  C   UNL     1      10.873  14.631  17.249  0.00  0.00    +0.000 A 
ATOM     10  N   UNL     1      11.195  15.862  16.985  0.00  0.00    +0.000 NA
ATOM     11  C   UNL     1      10.381  16.812  17.530  0.00  0.00    +0.000 A 
ATOM     12  C   UNL     1      10.424  18.185  17.482  0.00  0.00    +0.000 A 
ATOM     13  C   UNL     1       9.333  18.614  18.253  0.00  0.00    +0.000 A 
ATOM     14  N   UNL     1       8.629  17.605  18.765  0.00  0.00    +0.000 NA
ATOM     15  N   UNL     1       9.260  16.482  18.298  0.00  0.00    +0.000 N 
BRANCH   7  16
ATOM     16  N   UNL     1       7.773  14.915  19.344  0.00  0.00    +0.000 N 
ATOM     17  H   UNL     1       6.899  14.890  18.821  0.00  0.00    +0.000 HD
ATOM     18  H   UNL     1       7.898  14.127  19.987  0.00  0.00    +0.000 HD
ENDBRANCH   7  16
ENDBRANCH   1   8
BRANCH   4  19
ATOM     19  N   UNL     1       8.898   8.588  18.995  0.00  0.00    +0.000 N 
ATOM     20  C   UNL     1       8.020   7.833  18.253  0.00  0.00    +0.000 C 
ATOM     21  O   UNL     1       7.440   8.239  17.247  0.00  0.00    +0.000 OA
ATOM     22  N   UNL     1       7.824   6.554  18.768  0.00  0.00    +0.000 N 
ATOM     23  H   UNL     1       9.601   8.072  19.510  0.00  0.00    +0.000 HD
ATOM     24  H   UNL     1       7.833   6.519  19.777  0.00  0.00    +0.000 HD
BRANCH  22  25
ATOM     25  C   UNL     1       6.893   5.703  18.116  0.00  0.00    +0.000 A 
ATOM     26  C   UNL     1       5.774   5.253  18.814  0.00  0.00    +0.000 A 
ATOM     27  C   UNL     1       4.747   4.602  18.125  0.00  0.00    +0.000 A 
ATOM     28  C   UNL     1       4.864   4.346  16.757  0.00  0.00    +0.000 A 
ATOM     29  C   UNL     1       6.024   4.712  16.062  0.00  0.00    +0.000 A 
ATOM     30  C   UNL     1       7.034   5.394  16.758  0.00  0.00    +0.000 A 
BRANCH  29  31
ATOM     31  C   UNL     1       6.195   4.407  14.595  0.00  0.00    +0.000 C 
ATOM     32  F   UNL     1       5.114   4.751  13.840  0.00  0.00    +0.000 F 
ATOM     33  F   UNL     1       7.258   5.046  14.034  0.00  0.00    +0.000 F 
ATOM     34  F   UNL     1       6.394   3.078  14.365  0.00  0.00    +0.000 F 
ENDBRANCH  29  31
ENDBRANCH  22  25
ENDBRANCH   4  19
TORSDOF 5
ENDMDL
