MODEL 1
REMARK VINA RESULT:      -8.7      0.000      0.000
REMARK  Name = 
REMARK  12 active torsions:
REMARK  status: ('A' for Active; 'I' for Inactive)
REMARK    1  A    between atoms: C_2  and  C_3
REMARK    2  A    between atoms: C_2  and  C_4
REMARK    3  A    between atoms: C_8  and  C_9
REMARK    4  A    between atoms: C_9  and  C_10
REMARK    5  A    between atoms: C_9  and  C_11
REMARK    6  A    between atoms: C_9  and  N_12
REMARK    7  A    between atoms: N_15  and  C_16
REMARK    8  A    between atoms: C_16  and  C_17
REMARK    9  A    between atoms: C_20  and  O_21
REMARK   10  A    between atoms: O_21  and  C_22
REMARK   11  A    between atoms: C_23  and  O_24
REMARK   12  A    between atoms: O_24  and  C_25
REMARK                            x       y       z     vdW  Elec       q    Type
REMARK                         _______ _______ _______ _____ _____    ______ ____
ROOT
ATOM      1  N   UNL     1       4.989   4.014  16.473  0.00  0.00    +0.000 N 
ATOM      2  C   UNL     1       4.123   4.052  17.521  0.00  0.00    +0.000 C 
ATOM      3  O   UNL     1       3.361   3.111  17.731  0.00  0.00    +0.000 OA
ATOM      4  N   UNL     1       4.176   5.175  18.282  0.00  0.00    +0.000 N 
ATOM      5  H   UNL     1       5.000   3.118  15.999  0.00  0.00    +0.000 HD
ATOM      6  H   UNL     1       5.028   5.711  18.256  0.00  0.00    +0.000 HD
ENDROOT
BRANCH   1   7
ATOM      7  C   UNL     1       5.912   5.067  16.005  0.00  0.00    +0.000 C 
ATOM      8  C   UNL     1       7.079   5.208  17.022  0.00  0.00    +0.000 C 
ATOM      9  C   UNL     1       5.159   6.411  15.964  0.00  0.00    +0.000 C 
BRANCH   7  14
ATOM     10  C   UNL     1       6.026   3.646  12.405  0.00  0.00    +0.000 A 
ATOM     11  C   UNL     1       7.179   4.271  11.916  0.00  0.00    +0.000 A 
ATOM     12  C   UNL     1       7.931   5.118  12.727  0.00  0.00    +0.000 A 
ATOM     13  C   UNL     1       7.545   5.348  14.044  0.00  0.00    +0.000 A 
ATOM     14  C   UNL     1       6.381   4.758  14.571  0.00  0.00    +0.000 A 
ATOM     15  C   UNL     1       5.647   3.902  13.733  0.00  0.00    +0.000 A 
BRANCH  10  17
ATOM     16  C   UNL     1       4.011   2.958  11.150  0.00  0.00    +0.000 C 
ATOM     17  C   UNL     1       5.255   2.683  11.580  0.00  0.00    +0.000 C 
ATOM     18  C   UNL     1       5.910   1.367  11.266  0.00  0.00    +0.000 C 
ENDBRANCH  10  17
ENDBRANCH   7  14
ENDBRANCH   1   7
BRANCH   4  19
ATOM     19  C   UNL     1       3.327   5.434  19.404  0.00  0.00    +0.000 C 
BRANCH  19  20
ATOM     20  C   UNL     1       2.651   6.773  19.266  0.00  0.00    +0.000 A 
ATOM     21  C   UNL     1       2.801   7.514  18.095  0.00  0.00    +0.000 A 
ATOM     22  C   UNL     1       2.151   8.738  17.952  0.00  0.00    +0.000 A 
ATOM     23  C   UNL     1       1.346   9.261  18.974  0.00  0.00    +0.000 A 
ATOM     24  C   UNL     1       1.216   8.545  20.179  0.00  0.00    +0.000 A 
ATOM     25  C   UNL     1       1.880   7.311  20.311  0.00  0.00    +0.000 A 
BRANCH  23  26
ATOM     26  O   UNL     1       0.777  10.458  18.619  0.00  0.00    +0.000 OA
ATOM     27  C   UNL     1       1.396  11.664  19.041  0.00  0.00    +0.000 C 
ENDBRANCH  23  26
BRANCH  24  28
ATOM     28  O   UNL     1       0.447   9.084  21.176  0.00  0.00    +0.000 OA
ATOM     29  C   UNL     1       1.058   9.354  22.429  0.00  0.00    +0.000 C 
ENDBRANCH  24  28
ENDBRANCH  19  20
ENDBRANCH   4  19
TORSDOF 7
ENDMDL
MODEL 2
REMARK VINA RESULT:      -8.1      0.920      1.773
REMARK  Name = 
REMARK  12 active torsions:
REMARK  status: ('A' for Active; 'I' for Inactive)
REMARK    1  A    between atoms: C_2  and  C_3
REMARK    2  A    between atoms: C_2  and  C_4
REMARK    3  A    between atoms: C_8  and  C_9
REMARK    4  A    between atoms: C_9  and  C_10
REMARK    5  A    between atoms: C_9  and  C_11
REMARK    6  A    between atoms: C_9  and  N_12
REMARK    7  A    between atoms: N_15  and  C_16
REMARK    8  A    between atoms: C_16  and  C_17
REMARK    9  A    between atoms: C_20  and  O_21
REMARK   10  A    between atoms: O_21  and  C_22
REMARK   11  A    between atoms: C_23  and  O_24
REMARK   12  A    between atoms: O_24  and  C_25
REMARK                            x       y       z     vdW  Elec       q    Type
REMARK                         _______ _______ _______ _____ _____    ______ ____
ROOT
ATOM      1  N   UNL     1       5.165   3.465  16.671  0.00  0.00    +0.000 N 
ATOM      2  C   UNL     1       4.233   3.344  17.653  0.00  0.00    +0.000 C 
ATOM      3  O   UNL     1       3.639   2.279  17.818  0.00  0.00    +0.000 OA
ATOM      4  N   UNL     1       4.025   4.456  18.402  0.00  0.00    +0.000 N 
ATOM      5  H   UNL     1       5.372   2.586  16.209  0.00  0.00    +0.000 HD
ATOM      6  H   UNL     1       4.766   5.137  18.432  0.00  0.00    +0.000 HD
ENDROOT
BRANCH   1   7
ATOM      7  C   UNL     1       5.915   4.668  16.259  0.00  0.00    +0.000 C 
ATOM      8  C   UNL     1       7.090   4.898  17.250  0.00  0.00    +0.000 C 
ATOM      9  C   UNL     1       4.982   5.892  16.343  0.00  0.00    +0.000 C 
BRANCH   7  14
ATOM     10  C   UNL     1       6.014   3.633  12.529  0.00  0.00    +0.000 A 
ATOM     11  C   UNL     1       7.124   4.362  12.087  0.00  0.00    +0.000 A 
ATOM     12  C   UNL     1       7.853   5.158  12.969  0.00  0.00    +0.000 A 
ATOM     13  C   UNL     1       7.487   5.230  14.310  0.00  0.00    +0.000 A 
ATOM     14  C   UNL     1       6.365   4.532  14.792  0.00  0.00    +0.000 A 
ATOM     15  C   UNL     1       5.654   3.732  13.883  0.00  0.00    +0.000 A 
BRANCH  10  17
ATOM     16  C   UNL     1       4.052   3.037  11.149  0.00  0.00    +0.000 C 
ATOM     17  C   UNL     1       5.271   2.724  11.622  0.00  0.00    +0.000 C 
ATOM     18  C   UNL     1       5.924   1.416  11.272  0.00  0.00    +0.000 C 
ENDBRANCH  10  17
ENDBRANCH   7  14
ENDBRANCH   1   7
BRANCH   4  19
ATOM     19  C   UNL     1       3.063   4.555  19.458  0.00  0.00    +0.000 C 
BRANCH  19  20
ATOM     20  C   UNL     1       2.505   5.951  19.543  0.00  0.00    +0.000 A 
ATOM     21  C   UNL     1       1.881   6.384  20.713  0.00  0.00    +0.000 A 
ATOM     22  C   UNL     1       1.393   7.686  20.806  0.00  0.00    +0.000 A 
ATOM     23  C   UNL     1       1.501   8.584  19.734  0.00  0.00    +0.000 A 
ATOM     24  C   UNL     1       2.091   8.150  18.532  0.00  0.00    +0.000 A 
ATOM     25  C   UNL     1       2.578   6.833  18.451  0.00  0.00    +0.000 A 
BRANCH  23  26
ATOM     26  O   UNL     1       0.985   9.818  20.043  0.00  0.00    +0.000 OA
ATOM     27  C   UNL     1      -0.303   9.894  20.636  0.00  0.00    +0.000 C 
ENDBRANCH  23  26
BRANCH  24  28
ATOM     28  O   UNL     1       2.163   9.034  17.488  0.00  0.00    +0.000 OA
ATOM     29  C   UNL     1       2.403  10.403  17.778  0.00  0.00    +0.000 C 
ENDBRANCH  24  28
ENDBRANCH  19  20
ENDBRANCH   4  19
TORSDOF 7
ENDMDL
MODEL 3
REMARK VINA RESULT:      -7.6      3.041      4.497
REMARK  Name = 
REMARK  12 active torsions:
REMARK  status: ('A' for Active; 'I' for Inactive)
REMARK    1  A    between atoms: C_2  and  C_3
REMARK    2  A    between atoms: C_2  and  C_4
REMARK    3  A    between atoms: C_8  and  C_9
REMARK    4  A    between atoms: C_9  and  C_10
REMARK    5  A    between atoms: C_9  and  C_11
REMARK    6  A    between atoms: C_9  and  N_12
REMARK    7  A    between atoms: N_15  and  C_16
REMARK    8  A    between atoms: C_16  and  C_17
REMARK    9  A    between atoms: C_20  and  O_21
REMARK   10  A    between atoms: O_21  and  C_22
REMARK   11  A    between atoms: C_23  and  O_24
REMARK   12  A    between atoms: O_24  and  C_25
REMARK                            x       y       z     vdW  Elec       q    Type
REMARK                         _______ _______ _______ _____ _____    ______ ____
ROOT
ATOM      1  N   UNL     1       2.373   2.614  19.006  0.00  0.00    +0.000 N 
ATOM      2  C   UNL     1       1.741   3.612  19.678  0.00  0.00    +0.000 C 
ATOM      3  O   UNL     1       0.514   3.686  19.669  0.00  0.00    +0.000 OA
ATOM      4  N   UNL     1       2.552   4.482  20.332  0.00  0.00    +0.000 N 
ATOM      5  H   UNL     1       1.735   1.923  18.627  0.00  0.00    +0.000 HD
ATOM      6  H   UNL     1       3.476   4.161  20.571  0.00  0.00    +0.000 HD
ENDROOT
BRANCH   1   7
ATOM      7  C   UNL     1       3.824   2.404  18.823  0.00  0.00    +0.000 C 
ATOM      8  C   UNL     1       4.051   1.060  18.076  0.00  0.00    +0.000 C 
ATOM      9  C   UNL     1       4.492   2.293  20.207  0.00  0.00    +0.000 C 
BRANCH   7  14
ATOM     10  C   UNL     1       6.180   5.359  17.980  0.00  0.00    +0.000 A 
ATOM     11  C   UNL     1       5.649   5.772  16.752  0.00  0.00    +0.000 A 
ATOM     12  C   UNL     1       4.536   5.136  16.205  0.00  0.00    +0.000 A 
ATOM     13  C   UNL     1       3.932   4.080  16.882  0.00  0.00    +0.000 A 
ATOM     14  C   UNL     1       4.446   3.618  18.108  0.00  0.00    +0.000 A 
ATOM     15  C   UNL     1       5.563   4.283  18.639  0.00  0.00    +0.000 A 
BRANCH  10  17
ATOM     16  C   UNL     1       7.811   5.696  19.806  0.00  0.00    +0.000 C 
ATOM     17  C   UNL     1       7.317   6.071  18.613  0.00  0.00    +0.000 C 
ATOM     18  C   UNL     1       7.883   7.254  17.878  0.00  0.00    +0.000 C 
ENDBRANCH  10  17
ENDBRANCH   7  14
ENDBRANCH   1   7
BRANCH   4  19
ATOM     19  C   UNL     1       2.094   5.623  21.065  0.00  0.00    +0.000 C 
BRANCH  19  20
ATOM     20  C   UNL     1       2.011   6.834  20.172  0.00  0.00    +0.000 A 
ATOM     21  C   UNL     1       2.771   6.894  19.005  0.00  0.00    +0.000 A 
ATOM     22  C   UNL     1       2.671   7.999  18.161  0.00  0.00    +0.000 A 
ATOM     23  C   UNL     1       1.825   9.075  18.464  0.00  0.00    +0.000 A 
ATOM     24  C   UNL     1       1.082   9.048  19.659  0.00  0.00    +0.000 A 
ATOM     25  C   UNL     1       1.193   7.928  20.503  0.00  0.00    +0.000 A 
BRANCH  23  26
ATOM     26  O   UNL     1       1.854  10.042  17.491  0.00  0.00    +0.000 OA
ATOM     27  C   UNL     1       2.550  11.252  17.747  0.00  0.00    +0.000 C 
ENDBRANCH  23  26
BRANCH  24  28
ATOM     28  O   UNL     1       0.281  10.120  19.951  0.00  0.00    +0.000 OA
ATOM     29  C   UNL     1       0.818  11.168  20.744  0.00  0.00    +0.000 C 
ENDBRANCH  24  28
ENDBRANCH  19  20
ENDBRANCH   4  19
TORSDOF 7
ENDMDL
MODEL 4
REMARK VINA RESULT:      -7.5      2.552      8.480
REMARK  Name = 
REMARK  12 active torsions:
REMARK  status: ('A' for Active; 'I' for Inactive)
REMARK    1  A    between atoms: C_2  and  C_3
REMARK    2  A    between atoms: C_2  and  C_4
REMARK    3  A    between atoms: C_8  and  C_9
REMARK    4  A    between atoms: C_9  and  C_10
REMARK    5  A    between atoms: C_9  and  C_11
REMARK    6  A    between atoms: C_9  and  N_12
REMARK    7  A    between atoms: N_15  and  C_16
REMARK    8  A    between atoms: C_16  and  C_17
REMARK    9  A    between atoms: C_20  and  O_21
REMARK   10  A    between atoms: O_21  and  C_22
REMARK   11  A    between atoms: C_23  and  O_24
REMARK   12  A    between atoms: O_24  and  C_25
REMARK                            x       y       z     vdW  Elec       q    Type
REMARK                         _______ _______ _______ _____ _____    ______ ____
ROOT
ATOM      1  N   UNL     1       1.677   5.111  18.764  0.00  0.00    +0.000 N 
ATOM      2  C   UNL     1       2.188   4.177  17.919  0.00  0.00    +0.000 C 
ATOM      3  O   UNL     1       1.440   3.494  17.223  0.00  0.00    +0.000 OA
ATOM      4  N   UNL     1       3.541   4.072  17.913  0.00  0.00    +0.000 N 
ATOM      5  H   UNL     1       0.677   5.238  18.658  0.00  0.00    +0.000 HD
ATOM      6  H   UNL     1       4.068   4.870  18.229  0.00  0.00    +0.000 HD
ENDROOT
BRANCH   1   7
ATOM      7  C   UNL     1       2.393   5.961  19.736  0.00  0.00    +0.000 C 
ATOM      8  C   UNL     1       3.924   5.802  19.518  0.00  0.00    +0.000 C 
ATOM      9  C   UNL     1       2.067   5.474  21.161  0.00  0.00    +0.000 C 
BRANCH   7  14
ATOM     10  C   UNL     1       0.861   9.400  20.641  0.00  0.00    +0.000 A 
ATOM     11  C   UNL     1       1.101  10.110  19.459  0.00  0.00    +0.000 A 
ATOM     12  C   UNL     1       1.721   9.498  18.372  0.00  0.00    +0.000 A 
ATOM     13  C   UNL     1       2.105   8.162  18.448  0.00  0.00    +0.000 A 
ATOM     14  C   UNL     1       1.904   7.417  19.624  0.00  0.00    +0.000 A 
ATOM     15  C   UNL     1       1.269   8.057  20.702  0.00  0.00    +0.000 A 
BRANCH  10  17
ATOM     16  C   UNL     1      -0.229   9.292  22.857  0.00  0.00    +0.000 C 
ATOM     17  C   UNL     1       0.136  10.012  21.782  0.00  0.00    +0.000 C 
ATOM     18  C   UNL     1      -0.202  11.474  21.677  0.00  0.00    +0.000 C 
ENDBRANCH  10  17
ENDBRANCH   7  14
ENDBRANCH   1   7
BRANCH   4  19
ATOM     19  C   UNL     1       4.278   3.128  17.128  0.00  0.00    +0.000 C 
BRANCH  19  20
ATOM     20  C   UNL     1       5.317   3.826  16.290  0.00  0.00    +0.000 A 
ATOM     21  C   UNL     1       5.605   3.364  15.006  0.00  0.00    +0.000 A 
ATOM     22  C   UNL     1       6.543   4.027  14.217  0.00  0.00    +0.000 A 
ATOM     23  C   UNL     1       7.226   5.157  14.690  0.00  0.00    +0.000 A 
ATOM     24  C   UNL     1       6.978   5.611  15.998  0.00  0.00    +0.000 A 
ATOM     25  C   UNL     1       6.030   4.932  16.785  0.00  0.00    +0.000 A 
BRANCH  23  26
ATOM     26  O   UNL     1       8.080   5.672  13.747  0.00  0.00    +0.000 OA
ATOM     27  C   UNL     1       7.864   5.358  12.380  0.00  0.00    +0.000 C 
ENDBRANCH  23  26
BRANCH  24  28
ATOM     28  O   UNL     1       7.675   6.700  16.451  0.00  0.00    +0.000 OA
ATOM     29  C   UNL     1       7.642   6.992  17.840  0.00  0.00    +0.000 C 
ENDBRANCH  24  28
ENDBRANCH  19  20
ENDBRANCH   4  19
TORSDOF 7
ENDMDL
MODEL 5
REMARK VINA RESULT:      -7.4      9.106     11.902
REMARK  Name = 
REMARK  12 active torsions:
REMARK  status: ('A' for Active; 'I' for Inactive)
REMARK    1  A    between atoms: C_2  and  C_3
REMARK    2  A    between atoms: C_2  and  C_4
REMARK    3  A    between atoms: C_8  and  C_9
REMARK    4  A    between atoms: C_9  and  C_10
REMARK    5  A    between atoms: C_9  and  C_11
REMARK    6  A    between atoms: C_9  and  N_12
REMARK    7  A    between atoms: N_15  and  C_16
REMARK    8  A    between atoms: C_16  and  C_17
REMARK    9  A    between atoms: C_20  and  O_21
REMARK   10  A    between atoms: O_21  and  C_22
REMARK   11  A    between atoms: C_23  and  O_24
REMARK   12  A    between atoms: O_24  and  C_25
REMARK                            x       y       z     vdW  Elec       q    Type
REMARK                         _______ _______ _______ _____ _____    ______ ____
ROOT
ATOM      1  N   UNL     1      -2.213  11.924  17.043  0.00  0.00    +0.000 N 
ATOM      2  C   UNL     1      -1.655  12.374  18.197  0.00  0.00    +0.000 C 
ATOM      3  O   UNL     1      -0.800  13.258  18.171  0.00  0.00    +0.000 OA
ATOM      4  N   UNL     1      -2.108  11.787  19.334  0.00  0.00    +0.000 N 
ATOM      5  H   UNL     1      -1.933  12.461  16.230  0.00  0.00    +0.000 HD
ATOM      6  H   UNL     1      -3.015  11.351  19.298  0.00  0.00    +0.000 HD
ENDROOT
BRANCH   1   7
ATOM      7  C   UNL     1      -3.179  10.822  16.857  0.00  0.00    +0.000 C 
ATOM      8  C   UNL     1      -2.655   9.559  17.595  0.00  0.00    +0.000 C 
ATOM      9  C   UNL     1      -3.270  10.486  15.356  0.00  0.00    +0.000 C 
BRANCH   7  14
ATOM     10  C   UNL     1      -6.501  11.029  18.834  0.00  0.00    +0.000 A 
ATOM     11  C   UNL     1      -7.097  12.139  18.224  0.00  0.00    +0.000 A 
ATOM     12  C   UNL     1      -6.464  12.804  17.176  0.00  0.00    +0.000 A 
ATOM     13  C   UNL     1      -5.226  12.364  16.717  0.00  0.00    +0.000 A 
ATOM     14  C   UNL     1      -4.580  11.266  17.315  0.00  0.00    +0.000 A 
ATOM     15  C   UNL     1      -5.246  10.610  18.364  0.00  0.00    +0.000 A 
BRANCH  10  17
ATOM     16  C   UNL     1      -7.820  10.879  20.920  0.00  0.00    +0.000 C 
ATOM     17  C   UNL     1      -7.193  10.264  19.901  0.00  0.00    +0.000 C 
ATOM     18  C   UNL     1      -7.140   8.764  19.816  0.00  0.00    +0.000 C 
ENDBRANCH  10  17
ENDBRANCH   7  14
ENDBRANCH   1   7
BRANCH   4  19
ATOM     19  C   UNL     1      -1.627  12.086  20.648  0.00  0.00    +0.000 C 
BRANCH  19  20
ATOM     20  C   UNL     1      -2.721  12.683  21.495  0.00  0.00    +0.000 A 
ATOM     21  C   UNL     1      -4.016  12.789  20.990  0.00  0.00    +0.000 A 
ATOM     22  C   UNL     1      -5.037  13.311  21.782  0.00  0.00    +0.000 A 
ATOM     23  C   UNL     1      -4.791  13.751  23.091  0.00  0.00    +0.000 A 
ATOM     24  C   UNL     1      -3.481  13.689  23.602  0.00  0.00    +0.000 A 
ATOM     25  C   UNL     1      -2.460  13.162  22.790  0.00  0.00    +0.000 A 
BRANCH  23  26
ATOM     26  O   UNL     1      -5.934  14.200  23.705  0.00  0.00    +0.000 OA
ATOM     27  C   UNL     1      -6.134  15.599  23.843  0.00  0.00    +0.000 C 
ENDBRANCH  23  26
BRANCH  24  28
ATOM     28  O   UNL     1      -3.257  14.149  24.872  0.00  0.00    +0.000 OA
ATOM     29  C   UNL     1      -2.184  15.054  25.083  0.00  0.00    +0.000 C 
ENDBRANCH  24  28
ENDBRANCH  19  20
ENDBRANCH   4  19
TORSDOF 7
ENDMDL
MODEL 6
REMARK VINA RESULT:      -7.4      3.131      7.291
REMARK  Name = 
REMARK  12 active torsions:
REMARK  status: ('A' for Active; 'I' for Inactive)
REMARK    1  A    between atoms: C_2  and  C_3
REMARK    2  A    between atoms: C_2  and  C_4
REMARK    3  A    between atoms: C_8  and  C_9
REMARK    4  A    between atoms: C_9  and  C_10
REMARK    5  A    between atoms: C_9  and  C_11
REMARK    6  A    between atoms: C_9  and  N_12
REMARK    7  A    between atoms: N_15  and  C_16
REMARK    8  A    between atoms: C_16  and  C_17
REMARK    9  A    between atoms: C_20  and  O_21
REMARK   10  A    between atoms: O_21  and  C_22
REMARK   11  A    between atoms: C_23  and  O_24
REMARK   12  A    between atoms: O_24  and  C_25
REMARK                            x       y       z     vdW  Elec       q    Type
REMARK                         _______ _______ _______ _____ _____    ______ ____
ROOT
ATOM      1  N   UNL     1       2.779   2.283  19.775  0.00  0.00    +0.000 N 
ATOM      2  C   UNL     1       4.070   2.629  20.019  0.00  0.00    +0.000 C 
ATOM      3  O   UNL     1       4.787   1.906  20.708  0.00  0.00    +0.000 OA
ATOM      4  N   UNL     1       4.479   3.795  19.458  0.00  0.00    +0.000 N 
ATOM      5  H   UNL     1       2.545   1.356  20.114  0.00  0.00    +0.000 HD
ATOM      6  H   UNL     1       3.965   4.128  18.658  0.00  0.00    +0.000 HD
ENDROOT
BRANCH   1   7
ATOM      7  C   UNL     1       1.741   3.049  19.055  0.00  0.00    +0.000 C 
ATOM      8  C   UNL     1       0.355   2.398  19.321  0.00  0.00    +0.000 C 
ATOM      9  C   UNL     1       2.019   2.965  17.541  0.00  0.00    +0.000 C 
BRANCH   7  14
ATOM     10  C   UNL     1       2.277   6.879  18.871  0.00  0.00    +0.000 A 
ATOM     11  C   UNL     1       1.842   7.263  20.145  0.00  0.00    +0.000 A 
ATOM     12  C   UNL     1       1.404   6.314  21.066  0.00  0.00    +0.000 A 
ATOM     13  C   UNL     1       1.403   4.963  20.730  0.00  0.00    +0.000 A 
ATOM     14  C   UNL     1       1.811   4.534  19.454  0.00  0.00    +0.000 A 
ATOM     15  C   UNL     1       2.255   5.512  18.548  0.00  0.00    +0.000 A 
BRANCH  10  17
ATOM     16  C   UNL     1       2.239   9.068  17.723  0.00  0.00    +0.000 C 
ATOM     17  C   UNL     1       2.816   7.867  17.903  0.00  0.00    +0.000 C 
ATOM     18  C   UNL     1       4.023   7.459  17.105  0.00  0.00    +0.000 C 
ENDBRANCH  10  17
ENDBRANCH   7  14
ENDBRANCH   1   7
BRANCH   4  19
ATOM     19  C   UNL     1       5.783   4.361  19.622  0.00  0.00    +0.000 C 
BRANCH  19  20
ATOM     20  C   UNL     1       6.365   4.760  18.291  0.00  0.00    +0.000 A 
ATOM     21  C   UNL     1       6.291   3.887  17.206  0.00  0.00    +0.000 A 
ATOM     22  C   UNL     1       6.798   4.266  15.966  0.00  0.00    +0.000 A 
ATOM     23  C   UNL     1       7.403   5.517  15.777  0.00  0.00    +0.000 A 
ATOM     24  C   UNL     1       7.523   6.394  16.871  0.00  0.00    +0.000 A 
ATOM     25  C   UNL     1       7.008   5.998  18.119  0.00  0.00    +0.000 A 
BRANCH  23  26
ATOM     26  O   UNL     1       7.808   5.701  14.478  0.00  0.00    +0.000 OA
ATOM     27  C   UNL     1       7.191   4.938  13.452  0.00  0.00    +0.000 C 
ENDBRANCH  23  26
BRANCH  24  28
ATOM     28  O   UNL     1       8.140   7.601  16.672  0.00  0.00    +0.000 OA
ATOM     29  C   UNL     1       7.875   8.654  17.586  0.00  0.00    +0.000 C 
ENDBRANCH  24  28
ENDBRANCH  19  20
ENDBRANCH   4  19
TORSDOF 7
ENDMDL
MODEL 7
REMARK VINA RESULT:      -7.2      3.951      9.512
REMARK  Name = 
REMARK  12 active torsions:
REMARK  status: ('A' for Active; 'I' for Inactive)
REMARK    1  A    between atoms: C_2  and  C_3
REMARK    2  A    between atoms: C_2  and  C_4
REMARK    3  A    between atoms: C_8  and  C_9
REMARK    4  A    between atoms: C_9  and  C_10
REMARK    5  A    between atoms: C_9  and  C_11
REMARK    6  A    between atoms: C_9  and  N_12
REMARK    7  A    between atoms: N_15  and  C_16
REMARK    8  A    between atoms: C_16  and  C_17
REMARK    9  A    between atoms: C_20  and  O_21
REMARK   10  A    between atoms: O_21  and  C_22
REMARK   11  A    between atoms: C_23  and  O_24
REMARK   12  A    between atoms: O_24  and  C_25
REMARK                            x       y       z     vdW  Elec       q    Type
REMARK                         _______ _______ _______ _____ _____    ______ ____
ROOT
ATOM      1  N   UNL     1       0.899  11.024  20.476  0.00  0.00    +0.000 N 
ATOM      2  C   UNL     1       1.062   9.924  21.258  0.00  0.00    +0.000 C 
ATOM      3  O   UNL     1       1.248  10.044  22.468  0.00  0.00    +0.000 OA
ATOM      4  N   UNL     1       1.003   8.732  20.610  0.00  0.00    +0.000 N 
ATOM      5  H   UNL     1       0.836  11.884  21.009  0.00  0.00    +0.000 HD
ATOM      6  H   UNL     1       0.518   8.710  19.729  0.00  0.00    +0.000 HD
ENDROOT
BRANCH   1   7
ATOM      7  C   UNL     1       0.755  11.095  19.008  0.00  0.00    +0.000 C 
ATOM      8  C   UNL     1       1.714  10.062  18.354  0.00  0.00    +0.000 C 
ATOM      9  C   UNL     1       1.178  12.499  18.533  0.00  0.00    +0.000 C 
BRANCH   7  14
ATOM     10  C   UNL     1      -3.084  11.559  18.805  0.00  0.00    +0.000 A 
ATOM     11  C   UNL     1      -3.407  10.620  17.819  0.00  0.00    +0.000 A 
ATOM     12  C   UNL     1      -2.420   9.826  17.238  0.00  0.00    +0.000 A 
ATOM     13  C   UNL     1      -1.094   9.954  17.641  0.00  0.00    +0.000 A 
ATOM     14  C   UNL     1      -0.721  10.901  18.613  0.00  0.00    +0.000 A 
ATOM     15  C   UNL     1      -1.738  11.682  19.187  0.00  0.00    +0.000 A 
BRANCH  10  17
ATOM     16  C   UNL     1      -3.869  13.061  20.604  0.00  0.00    +0.000 C 
ATOM     17  C   UNL     1      -4.130  12.361  19.486  0.00  0.00    +0.000 C 
ATOM     18  C   UNL     1      -5.511  12.337  18.892  0.00  0.00    +0.000 C 
ENDBRANCH  10  17
ENDBRANCH   7  14
ENDBRANCH   1   7
BRANCH   4  19
ATOM     19  C   UNL     1       1.188   7.459  21.237  0.00  0.00    +0.000 C 
BRANCH  19  20
ATOM     20  C   UNL     1       1.724   6.452  20.254  0.00  0.00    +0.000 A 
ATOM     21  C   UNL     1       1.383   5.105  20.377  0.00  0.00    +0.000 A 
ATOM     22  C   UNL     1       1.851   4.177  19.449  0.00  0.00    +0.000 A 
ATOM     23  C   UNL     1       2.679   4.562  18.385  0.00  0.00    +0.000 A 
ATOM     24  C   UNL     1       3.066   5.910  18.270  0.00  0.00    +0.000 A 
ATOM     25  C   UNL     1       2.588   6.837  19.214  0.00  0.00    +0.000 A 
BRANCH  23  26
ATOM     26  O   UNL     1       3.002   3.502  17.575  0.00  0.00    +0.000 OA
ATOM     27  C   UNL     1       3.603   2.354  18.154  0.00  0.00    +0.000 C 
ENDBRANCH  23  26
BRANCH  24  28
ATOM     28  O   UNL     1       3.897   6.262  17.239  0.00  0.00    +0.000 OA
ATOM     29  C   UNL     1       5.296   6.103  17.416  0.00  0.00    +0.000 C 
ENDBRANCH  24  28
ENDBRANCH  19  20
ENDBRANCH   4  19
TORSDOF 7
ENDMDL
MODEL 8
REMARK VINA RESULT:      -7.1      2.599      4.643
REMARK  Name = 
REMARK  12 active torsions:
REMARK  status: ('A' for Active; 'I' for Inactive)
REMARK    1  A    between atoms: C_2  and  C_3
REMARK    2  A    between atoms: C_2  and  C_4
REMARK    3  A    between atoms: C_8  and  C_9
REMARK    4  A    between atoms: C_9  and  C_10
REMARK    5  A    between atoms: C_9  and  C_11
REMARK    6  A    between atoms: C_9  and  N_12
REMARK    7  A    between atoms: N_15  and  C_16
REMARK    8  A    between atoms: C_16  and  C_17
REMARK    9  A    between atoms: C_20  and  O_21
REMARK   10  A    between atoms: O_21  and  C_22
REMARK   11  A    between atoms: C_23  and  O_24
REMARK   12  A    between atoms: O_24  and  C_25
REMARK                            x       y       z     vdW  Elec       q    Type
REMARK                         _______ _______ _______ _____ _____    ______ ____
ROOT
ATOM      1  N   UNL     1       2.288   3.687  18.101  0.00  0.00    +0.000 N 
ATOM      2  C   UNL     1       2.005   4.967  17.740  0.00  0.00    +0.000 C 
ATOM      3  O   UNL     1       0.921   5.243  17.231  0.00  0.00    +0.000 OA
ATOM      4  N   UNL     1       2.986   5.873  17.983  0.00  0.00    +0.000 N 
ATOM      5  H   UNL     1       1.494   3.063  18.009  0.00  0.00    +0.000 HD
ATOM      6  H   UNL     1       3.664   5.641  18.691  0.00  0.00    +0.000 HD
ENDROOT
BRANCH   1   7
ATOM      7  C   UNL     1       3.550   3.141  18.640  0.00  0.00    +0.000 C 
ATOM      8  C   UNL     1       3.505   1.589  18.561  0.00  0.00    +0.000 C 
ATOM      9  C   UNL     1       3.671   3.534  20.125  0.00  0.00    +0.000 C 
BRANCH   7  14
ATOM     10  C   UNL     1       6.798   5.124  17.926  0.00  0.00    +0.000 A 
ATOM     11  C   UNL     1       7.003   4.810  16.578  0.00  0.00    +0.000 A 
ATOM     12  C   UNL     1       6.105   3.996  15.890  0.00  0.00    +0.000 A 
ATOM     13  C   UNL     1       4.984   3.488  16.539  0.00  0.00    +0.000 A 
ATOM     14  C   UNL     1       4.751   3.760  17.900  0.00  0.00    +0.000 A 
ATOM     15  C   UNL     1       5.668   4.590  18.566  0.00  0.00    +0.000 A 
BRANCH  10  17
ATOM     16  C   UNL     1       8.285   5.700  19.816  0.00  0.00    +0.000 C 
ATOM     17  C   UNL     1       7.702   6.048  18.655  0.00  0.00    +0.000 C 
ATOM     18  C   UNL     1       7.922   7.410  18.056  0.00  0.00    +0.000 C 
ENDBRANCH  10  17
ENDBRANCH   7  14
ENDBRANCH   1   7
BRANCH   4  19
ATOM     19  C   UNL     1       2.909   7.261  17.646  0.00  0.00    +0.000 C 
BRANCH  19  20
ATOM     20  C   UNL     1       2.103   8.017  18.671  0.00  0.00    +0.000 A 
ATOM     21  C   UNL     1       2.050   7.564  19.989  0.00  0.00    +0.000 A 
ATOM     22  C   UNL     1       1.333   8.279  20.946  0.00  0.00    +0.000 A 
ATOM     23  C   UNL     1       0.641   9.453  20.613  0.00  0.00    +0.000 A 
ATOM     24  C   UNL     1       0.651   9.901  19.279  0.00  0.00    +0.000 A 
ATOM     25  C   UNL     1       1.377   9.169  18.322  0.00  0.00    +0.000 A 
BRANCH  23  26
ATOM     26  O   UNL     1       0.027  10.014  21.705  0.00  0.00    +0.000 OA
ATOM     27  C   UNL     1      -0.069   9.258  22.902  0.00  0.00    +0.000 C 
ENDBRANCH  23  26
BRANCH  24  28
ATOM     28  O   UNL     1      -0.053  11.035  18.969  0.00  0.00    +0.000 OA
ATOM     29  C   UNL     1      -1.409  10.899  18.570  0.00  0.00    +0.000 C 
ENDBRANCH  24  28
ENDBRANCH  19  20
ENDBRANCH   4  19
TORSDOF 7
ENDMDL
MODEL 9
REMARK VINA RESULT:      -7.1      3.048      7.686
REMARK  Name = 
REMARK  12 active torsions:
REMARK  status: ('A' for Active; 'I' for Inactive)
REMARK    1  A    between atoms: C_2  and  C_3
REMARK    2  A    between atoms: C_2  and  C_4
REMARK    3  A    between atoms: C_8  and  C_9
REMARK    4  A    between atoms: C_9  and  C_10
REMARK    5  A    between atoms: C_9  and  C_11
REMARK    6  A    between atoms: C_9  and  N_12
REMARK    7  A    between atoms: N_15  and  C_16
REMARK    8  A    between atoms: C_16  and  C_17
REMARK    9  A    between atoms: C_20  and  O_21
REMARK   10  A    between atoms: O_21  and  C_22
REMARK   11  A    between atoms: C_23  and  O_24
REMARK   12  A    between atoms: O_24  and  C_25
REMARK                            x       y       z     vdW  Elec       q    Type
REMARK                         _______ _______ _______ _____ _____    ______ ____
ROOT
ATOM      1  N   UNL     1       3.049   2.305  19.397  0.00  0.00    +0.000 N 
ATOM      2  C   UNL     1       4.380   2.578  19.398  0.00  0.00    +0.000 C 
ATOM      3  O   UNL     1       5.154   1.894  20.066  0.00  0.00    +0.000 OA
ATOM      4  N   UNL     1       4.762   3.627  18.627  0.00  0.00    +0.000 N 
ATOM      5  H   UNL     1       2.818   1.450  19.891  0.00  0.00    +0.000 HD
ATOM      6  H   UNL     1       4.150   3.895  17.874  0.00  0.00    +0.000 HD
ENDROOT
BRANCH   1   7
ATOM      7  C   UNL     1       1.957   3.052  18.740  0.00  0.00    +0.000 C 
ATOM      8  C   UNL     1       0.615   2.306  18.982  0.00  0.00    +0.000 C 
ATOM      9  C   UNL     1       2.214   3.078  17.220  0.00  0.00    +0.000 C 
BRANCH   7  14
ATOM     10  C   UNL     1       2.302   6.908  18.800  0.00  0.00    +0.000 A 
ATOM     11  C   UNL     1       1.833   7.190  20.088  0.00  0.00    +0.000 A 
ATOM     12  C   UNL     1       1.433   6.165  20.943  0.00  0.00    +0.000 A 
ATOM     13  C   UNL     1       1.503   4.839  20.524  0.00  0.00    +0.000 A 
ATOM     14  C   UNL     1       1.947   4.511  19.230  0.00  0.00    +0.000 A 
ATOM     15  C   UNL     1       2.351   5.564  18.393  0.00  0.00    +0.000 A 
BRANCH  10  17
ATOM     16  C   UNL     1       2.158   9.154  17.777  0.00  0.00    +0.000 C 
ATOM     17  C   UNL     1       2.800   7.979  17.903  0.00  0.00    +0.000 C 
ATOM     18  C   UNL     1       4.045   7.689  17.110  0.00  0.00    +0.000 C 
ENDBRANCH  10  17
ENDBRANCH   7  14
ENDBRANCH   1   7
BRANCH   4  19
ATOM     19  C   UNL     1       6.107   4.106  18.517  0.00  0.00    +0.000 C 
BRANCH  19  20
ATOM     20  C   UNL     1       6.429   4.473  17.092  0.00  0.00    +0.000 A 
ATOM     21  C   UNL     1       7.120   5.652  16.813  0.00  0.00    +0.000 A 
ATOM     22  C   UNL     1       7.447   5.977  15.499  0.00  0.00    +0.000 A 
ATOM     23  C   UNL     1       7.084   5.147  14.429  0.00  0.00    +0.000 A 
ATOM     24  C   UNL     1       6.351   3.974  14.689  0.00  0.00    +0.000 A 
ATOM     25  C   UNL     1       6.025   3.658  16.021  0.00  0.00    +0.000 A 
BRANCH  23  26
ATOM     26  O   UNL     1       7.528   5.636  13.225  0.00  0.00    +0.000 OA
ATOM     27  C   UNL     1       8.922   5.814  13.029  0.00  0.00    +0.000 C 
ENDBRANCH  23  26
BRANCH  24  28
ATOM     28  O   UNL     1       5.983   3.189  13.628  0.00  0.00    +0.000 OA
ATOM     29  C   UNL     1       4.972   3.668  12.753  0.00  0.00    +0.000 C 
ENDBRANCH  24  28
ENDBRANCH  19  20
ENDBRANCH   4  19
TORSDOF 7
ENDMDL
