MODEL 1
REMARK VINA RESULT:      -8.6      0.000      0.000
REMARK  Name = 
REMARK  11 active torsions:
REMARK  status: ('A' for Active; 'I' for Inactive)
REMARK    1  A    between atoms: C_1  and  C_2
REMARK    2  A    between atoms: C_4  and  C_5
REMARK    3  A    between atoms: C_13  and  C_14
REMARK    4  A    between atoms: N_16  and  CA_17
REMARK    5  A    between atoms: CA_17  and  CB_18
REMARK    6  A    between atoms: CA_17  and  C_25
REMARK    7  A    between atoms: CB_18  and  CG_19
REMARK    8  A    between atoms: C_25  and  OXT_27
REMARK    9  A    between atoms: C_30  and  C_31
REMARK   10  A    between atoms: C_32  and  C_33
REMARK   11  A    between atoms: C_33  and  O_35
REMARK                            x       y       z     vdW  Elec       q    Type
REMARK                         _______ _______ _______ _____ _____    ______ ____
ROOT
ATOM      1  C   UNK A   0       2.105   6.877  20.437  0.00  0.00    +0.000 C 
ATOM      2  C   UNK A   0       1.815   7.905  19.623  0.00  0.00    +0.000 C 
ATOM      3  C   UNK A   0       2.239   8.054  18.178  0.00  0.00    +0.000 C 
ATOM      4  O   UNK A   0       3.008   7.375  17.523  0.00  0.00    +0.000 OA
ATOM      5  N   UNK A   0       1.595   9.196  17.738  0.00  0.00    +0.000 N 
ATOM      6  C   UNK A   0       0.880   9.807  18.759  0.00  0.00    +0.000 A 
ATOM      7  C   UNK A   0       0.172  10.985  18.659  0.00  0.00    +0.000 A 
ATOM      8  C   UNK A   0      -0.414  11.475  19.823  0.00  0.00    +0.000 A 
ATOM      9  C   UNK A   0      -0.279  10.791  21.054  0.00  0.00    +0.000 A 
ATOM     10  C   UNK A   0       0.406   9.561  21.117  0.00  0.00    +0.000 A 
ATOM     11  C   UNK A   0       0.991   9.083  19.951  0.00  0.00    +0.000 A 
ATOM     12  H   UNK A   0       1.706   9.548  16.799  0.00  0.00    +0.000 HD
ENDROOT
BRANCH   1  16
ATOM     13  C   UNK A   0       6.171   4.799  18.772  0.00  0.00    +0.000 C 
ATOM     14  C   UNK A   0       4.745   4.804  19.198  0.00  0.00    +0.000 A 
ATOM     15  N   UNK A   0       4.168   5.975  19.635  0.00  0.00    +0.000 N 
ATOM     16  C   UNK A   0       2.866   5.765  20.000  0.00  0.00    +0.000 A 
ATOM     17  C   UNK A   0       2.588   4.422  19.818  0.00  0.00    +0.000 A 
ATOM     18  C   UNK A   0       1.283   3.739  20.053  0.00  0.00    +0.000 C 
ATOM     19  C   UNK A   0       3.780   3.800  19.295  0.00  0.00    +0.000 A 
ATOM     20  H   UNK A   0       4.635   6.873  19.662  0.00  0.00    +0.000 HD
BRANCH  19  21
ATOM     21  C   UNK A   0       3.919   2.379  18.957  0.00  0.00    +0.000 C 
ATOM     22  O   UNK A   0       3.301   1.832  18.055  0.00  0.00    +0.000 OA
BRANCH  21  23
ATOM     23  O   UNK A   0       4.829   1.697  19.701  0.00  0.00    +0.000 OA
ATOM     24  H   UNK A   0       4.612   1.773  20.646  0.00  0.00    +0.000 HD
ENDBRANCH  21  23
ENDBRANCH  19  21
ENDBRANCH   1  16
BRANCH   9  25
ATOM     25  C   UNK A   0      -0.881  11.451  22.251  0.00  0.00    +0.000 C 
ATOM     26  O   UNK A   0      -0.628  11.034  23.375  0.00  0.00    +0.000 OA
ATOM     27  N   PHE A   1      -1.743  12.494  22.027  0.00  0.00    +0.000 N 
ATOM     28  H   PHE A   1      -2.055  12.730  21.089  0.00  0.00    +0.000 HD
BRANCH  27  29
ATOM     29  CA  PHE A   1      -2.448  13.176  23.118  0.00  0.00    +0.000 C 
BRANCH  29  30
ATOM     30  C   PHE A   1      -3.776  12.439  23.350  0.00  0.00    +0.000 C 
ATOM     31  O   PHE A   1      -4.108  11.975  24.435  0.00  0.00    +0.000 OA
BRANCH  30  32
ATOM     32  OXT PHE A   1      -4.600  12.390  22.277  0.00  0.00    +0.000 OA
ATOM     33  HXT PHE A   1      -5.307  13.062  22.258  0.00  0.00    +0.000 HD
ENDBRANCH  30  32
ENDBRANCH  29  30
BRANCH  29  34
ATOM     34  CB  PHE A   1      -2.640  14.685  22.880  0.00  0.00    +0.000 C 
BRANCH  34  35
ATOM     35  CG  PHE A   1      -2.263  15.558  24.054  0.00  0.00    +0.000 A 
ATOM     36  CD1 PHE A   1      -2.937  16.762  24.294  0.00  0.00    +0.000 A 
ATOM     37  CE1 PHE A   1      -2.573  17.571  25.370  0.00  0.00    +0.000 A 
ATOM     38  CZ  PHE A   1      -1.534  17.185  26.214  0.00  0.00    +0.000 A 
ATOM     39  CE2 PHE A   1      -0.855  15.991  25.981  0.00  0.00    +0.000 A 
ATOM     40  CD2 PHE A   1      -1.218  15.180  24.908  0.00  0.00    +0.000 A 
ENDBRANCH  34  35
ENDBRANCH  29  34
ENDBRANCH  27  29
ENDBRANCH   9  25
TORSDOF 9
ENDMDL
MODEL 2
REMARK VINA RESULT:      -8.6      3.984     12.408
REMARK  Name = 
REMARK  11 active torsions:
REMARK  status: ('A' for Active; 'I' for Inactive)
REMARK    1  A    between atoms: C_1  and  C_2
REMARK    2  A    between atoms: C_4  and  C_5
REMARK    3  A    between atoms: C_13  and  C_14
REMARK    4  A    between atoms: N_16  and  CA_17
REMARK    5  A    between atoms: CA_17  and  CB_18
REMARK    6  A    between atoms: CA_17  and  C_25
REMARK    7  A    between atoms: CB_18  and  CG_19
REMARK    8  A    between atoms: C_25  and  OXT_27
REMARK    9  A    between atoms: C_30  and  C_31
REMARK   10  A    between atoms: C_32  and  C_33
REMARK   11  A    between atoms: C_33  and  O_35
REMARK                            x       y       z     vdW  Elec       q    Type
REMARK                         _______ _______ _______ _____ _____    ______ ____
ROOT
ATOM      1  C   UNK A   0       1.476   9.459  18.442  0.00  0.00    +0.000 C 
ATOM      2  C   UNK A   0       1.623   8.509  19.379  0.00  0.00    +0.000 C 
ATOM      3  C   UNK A   0       1.174   8.595  20.823  0.00  0.00    +0.000 C 
ATOM      4  O   UNK A   0       0.732   9.547  21.440  0.00  0.00    +0.000 OA
ATOM      5  N   UNK A   0       1.425   7.339  21.345  0.00  0.00    +0.000 N 
ATOM      6  C   UNK A   0       2.038   6.511  20.415  0.00  0.00    +0.000 A 
ATOM      7  C   UNK A   0       2.461   5.218  20.638  0.00  0.00    +0.000 A 
ATOM      8  C   UNK A   0       3.129   4.580  19.595  0.00  0.00    +0.000 A 
ATOM      9  C   UNK A   0       3.365   5.239  18.365  0.00  0.00    +0.000 A 
ATOM     10  C   UNK A   0       2.875   6.542  18.146  0.00  0.00    +0.000 A 
ATOM     11  C   UNK A   0       2.214   7.171  19.194  0.00  0.00    +0.000 A 
ATOM     12  H   UNK A   0       1.231   7.109  22.308  0.00  0.00    +0.000 HD
ENDROOT
BRANCH   1  16
ATOM     13  C   UNK A   0      -2.374  12.183  19.616  0.00  0.00    +0.000 C 
ATOM     14  C   UNK A   0      -0.952  11.964  19.233  0.00  0.00    +0.000 A 
ATOM     15  N   UNK A   0      -0.487  10.683  19.040  0.00  0.00    +0.000 N 
ATOM     16  C   UNK A   0       0.843  10.695  18.717  0.00  0.00    +0.000 A 
ATOM     17  C   UNK A   0       1.265  12.013  18.718  0.00  0.00    +0.000 A 
ATOM     18  C   UNK A   0       2.630  12.514  18.391  0.00  0.00    +0.000 C 
ATOM     19  C   UNK A   0       0.122  12.834  19.036  0.00  0.00    +0.000 A 
ATOM     20  H   UNK A   0      -1.056   9.848  19.105  0.00  0.00    +0.000 HD
BRANCH  19  21
ATOM     21  C   UNK A   0       0.130  14.297  19.141  0.00  0.00    +0.000 C 
ATOM     22  O   UNK A   0       0.753  14.913  19.994  0.00  0.00    +0.000 OA
BRANCH  21  23
ATOM     23  O   UNK A   0      -0.584  14.947  18.185  0.00  0.00    +0.000 OA
ATOM     24  H   UNK A   0      -0.616  14.414  17.372  0.00  0.00    +0.000 HD
ENDBRANCH  21  23
ENDBRANCH  19  21
ENDBRANCH   1  16
BRANCH   9  25
ATOM     25  C   UNK A   0       4.160   4.486  17.350  0.00  0.00    +0.000 C 
ATOM     26  O   UNK A   0       4.208   3.262  17.392  0.00  0.00    +0.000 OA
ATOM     27  N   PHE A   1       4.848   5.220  16.418  0.00  0.00    +0.000 N 
ATOM     28  H   PHE A   1       4.915   6.232  16.488  0.00  0.00    +0.000 HD
BRANCH  27  29
ATOM     29  CA  PHE A   1       5.717   4.595  15.414  0.00  0.00    +0.000 C 
BRANCH  29  30
ATOM     30  C   PHE A   1       7.172   4.911  15.793  0.00  0.00    +0.000 C 
ATOM     31  O   PHE A   1       7.783   5.883  15.363  0.00  0.00    +0.000 OA
BRANCH  30  32
ATOM     32  OXT PHE A   1       7.724   4.071  16.700  0.00  0.00    +0.000 OA
ATOM     33  HXT PHE A   1       7.601   3.120  16.521  0.00  0.00    +0.000 HD
ENDBRANCH  30  32
ENDBRANCH  29  30
BRANCH  29  34
ATOM     34  CB  PHE A   1       5.378   5.002  13.968  0.00  0.00    +0.000 C 
BRANCH  34  35
ATOM     35  CG  PHE A   1       5.677   3.943  12.933  0.00  0.00    +0.000 A 
ATOM     36  CD1 PHE A   1       6.997   3.674  12.548  0.00  0.00    +0.000 A 
ATOM     37  CE1 PHE A   1       7.265   2.707  11.580  0.00  0.00    +0.000 A 
ATOM     38  CZ  PHE A   1       6.219   2.001  10.989  0.00  0.00    +0.000 A 
ATOM     39  CE2 PHE A   1       4.903   2.264  11.363  0.00  0.00    +0.000 A 
ATOM     40  CD2 PHE A   1       4.633   3.229  12.331  0.00  0.00    +0.000 A 
ENDBRANCH  34  35
ENDBRANCH  29  34
ENDBRANCH  27  29
ENDBRANCH   9  25
TORSDOF 9
ENDMDL
MODEL 3
REMARK VINA RESULT:      -8.6      2.333     10.923
REMARK  Name = 
REMARK  11 active torsions:
REMARK  status: ('A' for Active; 'I' for Inactive)
REMARK    1  A    between atoms: C_1  and  C_2
REMARK    2  A    between atoms: C_4  and  C_5
REMARK    3  A    between atoms: C_13  and  C_14
REMARK    4  A    between atoms: N_16  and  CA_17
REMARK    5  A    between atoms: CA_17  and  CB_18
REMARK    6  A    between atoms: CA_17  and  C_25
REMARK    7  A    between atoms: CB_18  and  CG_19
REMARK    8  A    between atoms: C_25  and  OXT_27
REMARK    9  A    between atoms: C_30  and  C_31
REMARK   10  A    between atoms: C_32  and  C_33
REMARK   11  A    between atoms: C_33  and  O_35
REMARK                            x       y       z     vdW  Elec       q    Type
REMARK                         _______ _______ _______ _____ _____    ______ ____
ROOT
ATOM      1  C   UNK A   0      -0.773  11.270  22.170  0.00  0.00    +0.000 C 
ATOM      2  C   UNK A   0      -0.886  11.171  20.836  0.00  0.00    +0.000 C 
ATOM      3  C   UNK A   0      -1.848  11.940  19.956  0.00  0.00    +0.000 C 
ATOM      4  O   UNK A   0      -2.768  12.672  20.272  0.00  0.00    +0.000 OA
ATOM      5  N   UNK A   0      -1.498  11.594  18.664  0.00  0.00    +0.000 N 
ATOM      6  C   UNK A   0      -0.481  10.650  18.644  0.00  0.00    +0.000 A 
ATOM      7  C   UNK A   0       0.059  10.065  17.519  0.00  0.00    +0.000 A 
ATOM      8  C   UNK A   0       1.021   9.077  17.716  0.00  0.00    +0.000 A 
ATOM      9  C   UNK A   0       1.418   8.692  19.018  0.00  0.00    +0.000 A 
ATOM     10  C   UNK A   0       0.889   9.344  20.149  0.00  0.00    +0.000 A 
ATOM     11  C   UNK A   0      -0.073  10.324  19.943  0.00  0.00    +0.000 A 
ATOM     12  H   UNK A   0      -1.987  11.956  17.859  0.00  0.00    +0.000 HD
ENDROOT
BRANCH   1  16
ATOM     13  C   UNK A   0      -4.713  12.384  24.789  0.00  0.00    +0.000 C 
ATOM     14  C   UNK A   0      -3.418  12.685  24.119  0.00  0.00    +0.000 A 
ATOM     15  N   UNK A   0      -2.746  11.686  23.452  0.00  0.00    +0.000 N 
ATOM     16  C   UNK A   0      -1.574  12.158  22.928  0.00  0.00    +0.000 A 
ATOM     17  C   UNK A   0      -1.464  13.493  23.276  0.00  0.00    +0.000 A 
ATOM     18  C   UNK A   0      -0.366  14.428  22.897  0.00  0.00    +0.000 C 
ATOM     19  C   UNK A   0      -2.644  13.843  24.029  0.00  0.00    +0.000 A 
ATOM     20  H   UNK A   0      -3.083  10.738  23.344  0.00  0.00    +0.000 HD
BRANCH  19  21
ATOM     21  C   UNK A   0      -2.931  15.168  24.591  0.00  0.00    +0.000 C 
ATOM     22  O   UNK A   0      -2.676  15.485  25.744  0.00  0.00    +0.000 OA
BRANCH  21  23
ATOM     23  O   UNK A   0      -3.476  16.057  23.720  0.00  0.00    +0.000 OA
ATOM     24  H   UNK A   0      -3.893  16.788  24.206  0.00  0.00    +0.000 HD
ENDBRANCH  21  23
ENDBRANCH  19  21
ENDBRANCH   1  16
BRANCH   9  25
ATOM     25  C   UNK A   0       2.397   7.568  19.108  0.00  0.00    +0.000 C 
ATOM     26  O   UNK A   0       2.621   7.033  20.188  0.00  0.00    +0.000 OA
ATOM     27  N   PHE A   1       3.046   7.204  17.956  0.00  0.00    +0.000 N 
ATOM     28  H   PHE A   1       2.958   7.752  17.105  0.00  0.00    +0.000 HD
BRANCH  27  29
ATOM     29  CA  PHE A   1       4.078   6.161  17.934  0.00  0.00    +0.000 C 
BRANCH  29  30
ATOM     30  C   PHE A   1       5.203   6.636  17.000  0.00  0.00    +0.000 C 
ATOM     31  O   PHE A   1       5.049   6.808  15.796  0.00  0.00    +0.000 OA
BRANCH  30  32
ATOM     32  OXT PHE A   1       6.375   6.920  17.613  0.00  0.00    +0.000 OA
ATOM     33  HXT PHE A   1       6.332   7.012  18.584  0.00  0.00    +0.000 HD
ENDBRANCH  30  32
ENDBRANCH  29  30
BRANCH  29  34
ATOM     34  CB  PHE A   1       3.539   4.769  17.554  0.00  0.00    +0.000 C 
BRANCH  34  35
ATOM     35  CG  PHE A   1       2.803   4.058  18.664  0.00  0.00    +0.000 A 
ATOM     36  CD1 PHE A   1       1.417   3.867  18.596  0.00  0.00    +0.000 A 
ATOM     37  CE1 PHE A   1       0.741   3.225  19.633  0.00  0.00    +0.000 A 
ATOM     38  CZ  PHE A   1       1.444   2.767  20.746  0.00  0.00    +0.000 A 
ATOM     39  CE2 PHE A   1       2.822   2.954  20.825  0.00  0.00    +0.000 A 
ATOM     40  CD2 PHE A   1       3.499   3.595  19.789  0.00  0.00    +0.000 A 
ENDBRANCH  34  35
ENDBRANCH  29  34
ENDBRANCH  27  29
ENDBRANCH   9  25
TORSDOF 9
ENDMDL
MODEL 4
REMARK VINA RESULT:      -8.6      3.942     12.341
REMARK  Name = 
REMARK  11 active torsions:
REMARK  status: ('A' for Active; 'I' for Inactive)
REMARK    1  A    between atoms: C_1  and  C_2
REMARK    2  A    between atoms: C_4  and  C_5
REMARK    3  A    between atoms: C_13  and  C_14
REMARK    4  A    between atoms: N_16  and  CA_17
REMARK    5  A    between atoms: CA_17  and  CB_18
REMARK    6  A    between atoms: CA_17  and  C_25
REMARK    7  A    between atoms: CB_18  and  CG_19
REMARK    8  A    between atoms: C_25  and  OXT_27
REMARK    9  A    between atoms: C_30  and  C_31
REMARK   10  A    between atoms: C_32  and  C_33
REMARK   11  A    between atoms: C_33  and  O_35
REMARK                            x       y       z     vdW  Elec       q    Type
REMARK                         _______ _______ _______ _____ _____    ______ ____
ROOT
ATOM      1  C   UNK A   0       1.646   9.265  18.550  0.00  0.00    +0.000 C 
ATOM      2  C   UNK A   0       1.764   8.257  19.428  0.00  0.00    +0.000 C 
ATOM      3  C   UNK A   0       1.312   8.266  20.873  0.00  0.00    +0.000 C 
ATOM      4  O   UNK A   0       0.892   9.190  21.545  0.00  0.00    +0.000 OA
ATOM      5  N   UNK A   0       1.528   6.975  21.318  0.00  0.00    +0.000 N 
ATOM      6  C   UNK A   0       2.124   6.189  20.341  0.00  0.00    +0.000 A 
ATOM      7  C   UNK A   0       2.512   4.874  20.486  0.00  0.00    +0.000 A 
ATOM      8  C   UNK A   0       3.167   4.284  19.408  0.00  0.00    +0.000 A 
ATOM      9  C   UNK A   0       3.426   5.010  18.221  0.00  0.00    +0.000 A 
ATOM     10  C   UNK A   0       2.971   6.336  18.081  0.00  0.00    +0.000 A 
ATOM     11  C   UNK A   0       2.322   6.918  19.163  0.00  0.00    +0.000 A 
ATOM     12  H   UNK A   0       1.323   6.692  22.264  0.00  0.00    +0.000 HD
ENDROOT
BRANCH   1  16
ATOM     13  C   UNK A   0       1.737  13.753  20.412  0.00  0.00    +0.000 C 
ATOM     14  C   UNK A   0       1.078  12.572  19.790  0.00  0.00    +0.000 A 
ATOM     15  N   UNK A   0       1.826  11.459  19.478  0.00  0.00    +0.000 N 
ATOM     16  C   UNK A   0       1.044  10.498  18.898  0.00  0.00    +0.000 A 
ATOM     17  C   UNK A   0      -0.243  10.999  18.809  0.00  0.00    +0.000 A 
ATOM     18  C   UNK A   0      -1.442  10.293  18.274  0.00  0.00    +0.000 C 
ATOM     19  C   UNK A   0      -0.234  12.321  19.387  0.00  0.00    +0.000 A 
ATOM     20  H   UNK A   0       2.815  11.357  19.672  0.00  0.00    +0.000 HD
BRANCH  19  21
ATOM     21  C   UNK A   0      -1.398  13.209  19.496  0.00  0.00    +0.000 C 
ATOM     22  O   UNK A   0      -2.453  12.883  20.020  0.00  0.00    +0.000 OA
BRANCH  21  23
ATOM     23  O   UNK A   0      -1.215  14.461  19.002  0.00  0.00    +0.000 OA
ATOM     24  H   UNK A   0      -0.288  14.582  18.733  0.00  0.00    +0.000 HD
ENDBRANCH  21  23
ENDBRANCH  19  21
ENDBRANCH   1  16
BRANCH   9  25
ATOM     25  C   UNK A   0       4.205   4.299  17.164  0.00  0.00    +0.000 C 
ATOM     26  O   UNK A   0       4.192   3.075  17.109  0.00  0.00    +0.000 OA
ATOM     27  N   PHE A   1       4.950   5.069  16.307  0.00  0.00    +0.000 N 
ATOM     28  H   PHE A   1       5.066   6.067  16.458  0.00  0.00    +0.000 HD
BRANCH  27  29
ATOM     29  CA  PHE A   1       5.809   4.482  15.273  0.00  0.00    +0.000 C 
BRANCH  29  30
ATOM     30  C   PHE A   1       7.264   4.845  15.612  0.00  0.00    +0.000 C 
ATOM     31  O   PHE A   1       7.867   4.378  16.572  0.00  0.00    +0.000 OA
BRANCH  30  32
ATOM     32  OXT PHE A   1       7.868   5.676  14.731  0.00  0.00    +0.000 OA
ATOM     33  HXT PHE A   1       8.140   6.542  15.088  0.00  0.00    +0.000 HD
ENDBRANCH  30  32
ENDBRANCH  29  30
BRANCH  29  34
ATOM     34  CB  PHE A   1       5.414   4.887  13.840  0.00  0.00    +0.000 C 
BRANCH  34  35
ATOM     35  CG  PHE A   1       5.613   3.804  12.806  0.00  0.00    +0.000 A 
ATOM     36  CD1 PHE A   1       4.517   3.251  12.132  0.00  0.00    +0.000 A 
ATOM     37  CE1 PHE A   1       4.705   2.240  11.190  0.00  0.00    +0.000 A 
ATOM     38  CZ  PHE A   1       5.989   1.773  10.914  0.00  0.00    +0.000 A 
ATOM     39  CE2 PHE A   1       7.085   2.314  11.582  0.00  0.00    +0.000 A 
ATOM     40  CD2 PHE A   1       6.899   3.326  12.522  0.00  0.00    +0.000 A 
ENDBRANCH  34  35
ENDBRANCH  29  34
ENDBRANCH  27  29
ENDBRANCH   9  25
TORSDOF 9
ENDMDL
MODEL 5
REMARK VINA RESULT:      -8.5      3.521     12.006
REMARK  Name = 
REMARK  11 active torsions:
REMARK  status: ('A' for Active; 'I' for Inactive)
REMARK    1  A    between atoms: C_1  and  C_2
REMARK    2  A    between atoms: C_4  and  C_5
REMARK    3  A    between atoms: C_13  and  C_14
REMARK    4  A    between atoms: N_16  and  CA_17
REMARK    5  A    between atoms: CA_17  and  CB_18
REMARK    6  A    between atoms: CA_17  and  C_25
REMARK    7  A    between atoms: CB_18  and  CG_19
REMARK    8  A    between atoms: C_25  and  OXT_27
REMARK    9  A    between atoms: C_30  and  C_31
REMARK   10  A    between atoms: C_32  and  C_33
REMARK   11  A    between atoms: C_33  and  O_35
REMARK                            x       y       z     vdW  Elec       q    Type
REMARK                         _______ _______ _______ _____ _____    ______ ____
ROOT
ATOM      1  C   UNK A   0       1.093  10.400  18.796  0.00  0.00    +0.000 C 
ATOM      2  C   UNK A   0       1.128   9.433  19.727  0.00  0.00    +0.000 C 
ATOM      3  C   UNK A   0       0.566   9.516  21.131  0.00  0.00    +0.000 C 
ATOM      4  O   UNK A   0       0.111  10.476  21.725  0.00  0.00    +0.000 OA
ATOM      5  N   UNK A   0       0.727   8.246  21.651  0.00  0.00    +0.000 N 
ATOM      6  C   UNK A   0       1.384   7.406  20.761  0.00  0.00    +0.000 A 
ATOM      7  C   UNK A   0       1.740   6.096  20.996  0.00  0.00    +0.000 A 
ATOM      8  C   UNK A   0       2.467   5.447  20.001  0.00  0.00    +0.000 A 
ATOM      9  C   UNK A   0       2.826   6.112  18.805  0.00  0.00    +0.000 A 
ATOM     10  C   UNK A   0       2.404   7.435  18.569  0.00  0.00    +0.000 A 
ATOM     11  C   UNK A   0       1.683   8.076  19.569  0.00  0.00    +0.000 A 
ATOM     12  H   UNK A   0       0.446   8.010  22.591  0.00  0.00    +0.000 HD
ENDROOT
BRANCH   1  16
ATOM     13  C   UNK A   0      -2.689  13.227  19.943  0.00  0.00    +0.000 C 
ATOM     14  C   UNK A   0      -1.278  12.971  19.542  0.00  0.00    +0.000 A 
ATOM     15  N   UNK A   0      -0.838  11.677  19.386  0.00  0.00    +0.000 N 
ATOM     16  C   UNK A   0       0.486  11.655  19.039  0.00  0.00    +0.000 A 
ATOM     17  C   UNK A   0       0.929  12.965  18.985  0.00  0.00    +0.000 A 
ATOM     18  C   UNK A   0       2.296  13.431  18.616  0.00  0.00    +0.000 C 
ATOM     19  C   UNK A   0      -0.194  13.816  19.295  0.00  0.00    +0.000 A 
ATOM     20  H   UNK A   0      -1.418  10.854  19.491  0.00  0.00    +0.000 HD
BRANCH  19  21
ATOM     21  C   UNK A   0      -0.161  15.282  19.348  0.00  0.00    +0.000 C 
ATOM     22  O   UNK A   0       0.297  15.916  20.287  0.00  0.00    +0.000 OA
BRANCH  21  23
ATOM     23  O   UNK A   0      -0.646  15.908  18.245  0.00  0.00    +0.000 OA
ATOM     24  H   UNK A   0      -1.581  16.139  18.375  0.00  0.00    +0.000 HD
ENDBRANCH  21  23
ENDBRANCH  19  21
ENDBRANCH   1  16
BRANCH   9  25
ATOM     25  C   UNK A   0       3.674   5.343  17.846  0.00  0.00    +0.000 C 
ATOM     26  O   UNK A   0       3.204   4.384  17.244  0.00  0.00    +0.000 OA
ATOM     27  N   PHE A   1       4.982   5.731  17.711  0.00  0.00    +0.000 N 
ATOM     28  H   PHE A   1       5.392   6.431  18.324  0.00  0.00    +0.000 HD
BRANCH  27  29
ATOM     29  CA  PHE A   1       5.928   5.011  16.851  0.00  0.00    +0.000 C 
BRANCH  29  30
ATOM     30  C   PHE A   1       7.114   4.572  17.725  0.00  0.00    +0.000 C 
ATOM     31  O   PHE A   1       7.079   4.566  18.951  0.00  0.00    +0.000 OA
BRANCH  30  32
ATOM     32  OXT PHE A   1       8.194   4.124  17.044  0.00  0.00    +0.000 OA
ATOM     33  HXT PHE A   1       9.044   4.177  17.521  0.00  0.00    +0.000 HD
ENDBRANCH  30  32
ENDBRANCH  29  30
BRANCH  29  34
ATOM     34  CB  PHE A   1       6.368   5.812  15.612  0.00  0.00    +0.000 C 
BRANCH  34  35
ATOM     35  CG  PHE A   1       6.410   5.013  14.331  0.00  0.00    +0.000 A 
ATOM     36  CD1 PHE A   1       5.403   4.085  14.036  0.00  0.00    +0.000 A 
ATOM     37  CE1 PHE A   1       5.457   3.338  12.859  0.00  0.00    +0.000 A 
ATOM     38  CZ  PHE A   1       6.514   3.512  11.969  0.00  0.00    +0.000 A 
ATOM     39  CE2 PHE A   1       7.522   4.430  12.255  0.00  0.00    +0.000 A 
ATOM     40  CD2 PHE A   1       7.470   5.178  13.430  0.00  0.00    +0.000 A 
ENDBRANCH  34  35
ENDBRANCH  29  34
ENDBRANCH  27  29
ENDBRANCH   9  25
TORSDOF 9
ENDMDL
MODEL 6
REMARK VINA RESULT:      -8.5      3.976     12.505
REMARK  Name = 
REMARK  11 active torsions:
REMARK  status: ('A' for Active; 'I' for Inactive)
REMARK    1  A    between atoms: C_1  and  C_2
REMARK    2  A    between atoms: C_4  and  C_5
REMARK    3  A    between atoms: C_13  and  C_14
REMARK    4  A    between atoms: N_16  and  CA_17
REMARK    5  A    between atoms: CA_17  and  CB_18
REMARK    6  A    between atoms: CA_17  and  C_25
REMARK    7  A    between atoms: CB_18  and  CG_19
REMARK    8  A    between atoms: C_25  and  OXT_27
REMARK    9  A    between atoms: C_30  and  C_31
REMARK   10  A    between atoms: C_32  and  C_33
REMARK   11  A    between atoms: C_33  and  O_35
REMARK                            x       y       z     vdW  Elec       q    Type
REMARK                         _______ _______ _______ _____ _____    ______ ____
ROOT
ATOM      1  C   UNK A   0       1.170   9.687  18.838  0.00  0.00    +0.000 C 
ATOM      2  C   UNK A   0       1.510   8.559  19.480  0.00  0.00    +0.000 C 
ATOM      3  C   UNK A   0       1.048   8.134  20.858  0.00  0.00    +0.000 C 
ATOM      4  O   UNK A   0       0.413   8.760  21.687  0.00  0.00    +0.000 OA
ATOM      5  N   UNK A   0       1.556   6.859  21.023  0.00  0.00    +0.000 N 
ATOM      6  C   UNK A   0       2.335   6.473  19.940  0.00  0.00    +0.000 A 
ATOM      7  C   UNK A   0       3.020   5.284  19.819  0.00  0.00    +0.000 A 
ATOM      8  C   UNK A   0       3.812   5.120  18.684  0.00  0.00    +0.000 A 
ATOM      9  C   UNK A   0       3.908   6.137  17.705  0.00  0.00    +0.000 A 
ATOM     10  C   UNK A   0       3.155   7.322  17.829  0.00  0.00    +0.000 A 
ATOM     11  C   UNK A   0       2.372   7.478  18.966  0.00  0.00    +0.000 A 
ATOM     12  H   UNK A   0       1.412   6.328  21.868  0.00  0.00    +0.000 HD
ENDROOT
BRANCH   1  16
ATOM     13  C   UNK A   0       0.158  13.474  21.711  0.00  0.00    +0.000 C 
ATOM     14  C   UNK A   0      -0.188  12.379  20.765  0.00  0.00    +0.000 A 
ATOM     15  N   UNK A   0       0.806  11.563  20.274  0.00  0.00    +0.000 N 
ATOM     16  C   UNK A   0       0.289  10.639  19.407  0.00  0.00    +0.000 A 
ATOM     17  C   UNK A   0      -1.073  10.866  19.311  0.00  0.00    +0.000 A 
ATOM     18  C   UNK A   0      -2.055  10.084  18.508  0.00  0.00    +0.000 C 
ATOM     19  C   UNK A   0      -1.390  11.971  20.184  0.00  0.00    +0.000 A 
ATOM     20  H   UNK A   0       1.782  11.622  20.535  0.00  0.00    +0.000 HD
BRANCH  19  21
ATOM     21  C   UNK A   0      -2.728  12.539  20.384  0.00  0.00    +0.000 C 
ATOM     22  O   UNK A   0      -3.247  12.684  21.481  0.00  0.00    +0.000 OA
BRANCH  21  23
ATOM     23  O   UNK A   0      -3.357  12.942  19.249  0.00  0.00    +0.000 OA
ATOM     24  H   UNK A   0      -4.117  13.507  19.471  0.00  0.00    +0.000 HD
ENDBRANCH  21  23
ENDBRANCH  19  21
ENDBRANCH   1  16
BRANCH   9  25
ATOM     25  C   UNK A   0       4.847   5.883  16.573  0.00  0.00    +0.000 C 
ATOM     26  O   UNK A   0       5.264   6.818  15.899  0.00  0.00    +0.000 OA
ATOM     27  N   PHE A   1       5.177   4.578  16.310  0.00  0.00    +0.000 N 
ATOM     28  H   PHE A   1       4.710   3.809  16.783  0.00  0.00    +0.000 HD
BRANCH  27  29
ATOM     29  CA  PHE A   1       6.037   4.199  15.183  0.00  0.00    +0.000 C 
BRANCH  29  30
ATOM     30  C   PHE A   1       7.415   4.842  15.410  0.00  0.00    +0.000 C 
ATOM     31  O   PHE A   1       7.926   5.632  14.623  0.00  0.00    +0.000 OA
BRANCH  30  32
ATOM     32  OXT PHE A   1       8.009   4.526  16.584  0.00  0.00    +0.000 OA
ATOM     33  HXT PHE A   1       7.460   4.017  17.210  0.00  0.00    +0.000 HD
ENDBRANCH  30  32
ENDBRANCH  29  30
BRANCH  29  34
ATOM     34  CB  PHE A   1       5.439   4.548  13.807  0.00  0.00    +0.000 C 
BRANCH  34  35
ATOM     35  CG  PHE A   1       5.763   3.558  12.714  0.00  0.00    +0.000 A 
ATOM     36  CD1 PHE A   1       4.744   2.831  12.084  0.00  0.00    +0.000 A 
ATOM     37  CE1 PHE A   1       5.052   1.906  11.087  0.00  0.00    +0.000 A 
ATOM     38  CZ  PHE A   1       6.377   1.699  10.711  0.00  0.00    +0.000 A 
ATOM     39  CE2 PHE A   1       7.398   2.414  11.334  0.00  0.00    +0.000 A 
ATOM     40  CD2 PHE A   1       7.092   3.340  12.330  0.00  0.00    +0.000 A 
ENDBRANCH  34  35
ENDBRANCH  29  34
ENDBRANCH  27  29
ENDBRANCH   9  25
TORSDOF 9
ENDMDL
MODEL 7
REMARK VINA RESULT:      -8.5      3.218      5.002
REMARK  Name = 
REMARK  11 active torsions:
REMARK  status: ('A' for Active; 'I' for Inactive)
REMARK    1  A    between atoms: C_1  and  C_2
REMARK    2  A    between atoms: C_4  and  C_5
REMARK    3  A    between atoms: C_13  and  C_14
REMARK    4  A    between atoms: N_16  and  CA_17
REMARK    5  A    between atoms: CA_17  and  CB_18
REMARK    6  A    between atoms: CA_17  and  C_25
REMARK    7  A    between atoms: CB_18  and  CG_19
REMARK    8  A    between atoms: C_25  and  OXT_27
REMARK    9  A    between atoms: C_30  and  C_31
REMARK   10  A    between atoms: C_32  and  C_33
REMARK   11  A    between atoms: C_33  and  O_35
REMARK                            x       y       z     vdW  Elec       q    Type
REMARK                         _______ _______ _______ _____ _____    ______ ____
ROOT
ATOM      1  C   UNK A   0       3.166   7.471  17.825  0.00  0.00    +0.000 C 
ATOM      2  C   UNK A   0       2.523   7.384  19.000  0.00  0.00    +0.000 C 
ATOM      3  C   UNK A   0       2.678   6.286  20.030  0.00  0.00    +0.000 C 
ATOM      4  O   UNK A   0       3.286   5.234  19.953  0.00  0.00    +0.000 OA
ATOM      5  N   UNK A   0       1.919   6.703  21.108  0.00  0.00    +0.000 N 
ATOM      6  C   UNK A   0       1.257   7.894  20.838  0.00  0.00    +0.000 A 
ATOM      7  C   UNK A   0       0.386   8.545  21.684  0.00  0.00    +0.000 A 
ATOM      8  C   UNK A   0      -0.238   9.690  21.194  0.00  0.00    +0.000 A 
ATOM      9  C   UNK A   0       0.012  10.155  19.882  0.00  0.00    +0.000 A 
ATOM     10  C   UNK A   0       0.948   9.500  19.057  0.00  0.00    +0.000 A 
ATOM     11  C   UNK A   0       1.562   8.356  19.553  0.00  0.00    +0.000 A 
ATOM     12  H   UNK A   0       1.829   6.152  21.947  0.00  0.00    +0.000 HD
ENDROOT
BRANCH   1  16
ATOM     13  C   UNK A   0       4.469   2.977  16.509  0.00  0.00    +0.000 C 
ATOM     14  C   UNK A   0       4.725   4.408  16.831  0.00  0.00    +0.000 A 
ATOM     15  N   UNK A   0       3.674   5.227  17.179  0.00  0.00    +0.000 N 
ATOM     16  C   UNK A   0       4.113   6.502  17.413  0.00  0.00    +0.000 A 
ATOM     17  C   UNK A   0       5.479   6.525  17.195  0.00  0.00    +0.000 A 
ATOM     18  C   UNK A   0       6.391   7.693  17.361  0.00  0.00    +0.000 C 
ATOM     19  C   UNK A   0       5.883   5.188  16.833  0.00  0.00    +0.000 A 
ATOM     20  H   UNK A   0       2.713   4.924  17.270  0.00  0.00    +0.000 HD
BRANCH  19  21
ATOM     21  C   UNK A   0       7.253   4.770  16.516  0.00  0.00    +0.000 C 
ATOM     22  O   UNK A   0       8.045   4.355  17.350  0.00  0.00    +0.000 OA
BRANCH  21  23
ATOM     23  O   UNK A   0       7.586   4.837  15.201  0.00  0.00    +0.000 OA
ATOM     24  H   UNK A   0       6.825   5.141  14.679  0.00  0.00    +0.000 HD
ENDBRANCH  21  23
ENDBRANCH  19  21
ENDBRANCH   1  16
BRANCH   9  25
ATOM     25  C   UNK A   0      -0.773  11.345  19.438  0.00  0.00    +0.000 C 
ATOM     26  O   UNK A   0      -0.625  11.792  18.306  0.00  0.00    +0.000 OA
ATOM     27  N   PHE A   1      -1.617  11.920  20.354  0.00  0.00    +0.000 N 
ATOM     28  H   PHE A   1      -1.618  11.627  21.327  0.00  0.00    +0.000 HD
BRANCH  27  29
ATOM     29  CA  PHE A   1      -2.389  13.132  20.056  0.00  0.00    +0.000 C 
BRANCH  29  30
ATOM     30  C   PHE A   1      -1.544  14.341  20.487  0.00  0.00    +0.000 C 
ATOM     31  O   PHE A   1      -1.073  14.465  21.613  0.00  0.00    +0.000 OA
BRANCH  30  32
ATOM     32  OXT PHE A   1      -1.294  15.244  19.511  0.00  0.00    +0.000 OA
ATOM     33  HXT PHE A   1      -1.676  15.036  18.637  0.00  0.00    +0.000 HD
ENDBRANCH  30  32
ENDBRANCH  29  30
BRANCH  29  34
ATOM     34  CB  PHE A   1      -3.795  13.136  20.682  0.00  0.00    +0.000 C 
BRANCH  34  35
ATOM     35  CG  PHE A   1      -4.827  12.351  19.909  0.00  0.00    +0.000 A 
ATOM     36  CD1 PHE A   1      -6.055  12.014  20.494  0.00  0.00    +0.000 A 
ATOM     37  CE1 PHE A   1      -6.997  11.273  19.780  0.00  0.00    +0.000 A 
ATOM     38  CZ  PHE A   1      -6.721  10.864  18.477  0.00  0.00    +0.000 A 
ATOM     39  CE2 PHE A   1      -5.503  11.191  17.887  0.00  0.00    +0.000 A 
ATOM     40  CD2 PHE A   1      -4.560  11.932  18.598  0.00  0.00    +0.000 A 
ENDBRANCH  34  35
ENDBRANCH  29  34
ENDBRANCH  27  29
ENDBRANCH   9  25
TORSDOF 9
ENDMDL
MODEL 8
REMARK VINA RESULT:      -8.4      1.311      2.070
REMARK  Name = 
REMARK  11 active torsions:
REMARK  status: ('A' for Active; 'I' for Inactive)
REMARK    1  A    between atoms: C_1  and  C_2
REMARK    2  A    between atoms: C_4  and  C_5
REMARK    3  A    between atoms: C_13  and  C_14
REMARK    4  A    between atoms: N_16  and  CA_17
REMARK    5  A    between atoms: CA_17  and  CB_18
REMARK    6  A    between atoms: CA_17  and  C_25
REMARK    7  A    between atoms: CB_18  and  CG_19
REMARK    8  A    between atoms: C_25  and  OXT_27
REMARK    9  A    between atoms: C_30  and  C_31
REMARK   10  A    between atoms: C_32  and  C_33
REMARK   11  A    between atoms: C_33  and  O_35
REMARK                            x       y       z     vdW  Elec       q    Type
REMARK                         _______ _______ _______ _____ _____    ______ ____
ROOT
ATOM      1  C   UNK A   0       2.004   6.711  20.406  0.00  0.00    +0.000 C 
ATOM      2  C   UNK A   0       1.794   7.811  19.664  0.00  0.00    +0.000 C 
ATOM      3  C   UNK A   0       2.300   8.056  18.258  0.00  0.00    +0.000 C 
ATOM      4  O   UNK A   0       3.077   7.399  17.590  0.00  0.00    +0.000 OA
ATOM      5  N   UNK A   0       1.723   9.254  17.880  0.00  0.00    +0.000 N 
ATOM      6  C   UNK A   0       0.978   9.812  18.910  0.00  0.00    +0.000 A 
ATOM      7  C   UNK A   0       0.320  11.023  18.871  0.00  0.00    +0.000 A 
ATOM      8  C   UNK A   0      -0.308  11.443  20.041  0.00  0.00    +0.000 A 
ATOM      9  C   UNK A   0      -0.263  10.659  21.218  0.00  0.00    +0.000 A 
ATOM     10  C   UNK A   0       0.372   9.401  21.215  0.00  0.00    +0.000 A 
ATOM     11  C   UNK A   0       0.999   8.992  20.045  0.00  0.00    +0.000 A 
ATOM     12  H   UNK A   0       1.896   9.674  16.979  0.00  0.00    +0.000 HD
ENDROOT
BRANCH   1  16
ATOM     13  C   UNK A   0       6.079   4.597  18.812  0.00  0.00    +0.000 C 
ATOM     14  C   UNK A   0       4.630   4.632  19.150  0.00  0.00    +0.000 A 
ATOM     15  N   UNK A   0       4.075   5.787  19.653  0.00  0.00    +0.000 N 
ATOM     16  C   UNK A   0       2.744   5.607  19.919  0.00  0.00    +0.000 A 
ATOM     17  C   UNK A   0       2.424   4.299  19.603  0.00  0.00    +0.000 A 
ATOM     18  C   UNK A   0       1.080   3.660  19.698  0.00  0.00    +0.000 C 
ATOM     19  C   UNK A   0       3.621   3.669  19.099  0.00  0.00    +0.000 A 
ATOM     20  H   UNK A   0       4.576   6.656  19.787  0.00  0.00    +0.000 HD
BRANCH  19  21
ATOM     21  C   UNK A   0       3.723   2.277  18.647  0.00  0.00    +0.000 C 
ATOM     22  O   UNK A   0       3.125   1.833  17.676  0.00  0.00    +0.000 OA
BRANCH  21  23
ATOM     23  O   UNK A   0       4.573   1.499  19.366  0.00  0.00    +0.000 OA
ATOM     24  H   UNK A   0       5.007   2.028  20.057  0.00  0.00    +0.000 HD
ENDBRANCH  21  23
ENDBRANCH  19  21
ENDBRANCH   1  16
BRANCH   9  25
ATOM     25  C   UNK A   0      -0.902  11.247  22.432  0.00  0.00    +0.000 C 
ATOM     26  O   UNK A   0      -0.786  10.692  23.518  0.00  0.00    +0.000 OA
ATOM     27  N   PHE A   1      -1.643  12.390  22.263  0.00  0.00    +0.000 N 
ATOM     28  H   PHE A   1      -1.850  12.753  21.336  0.00  0.00    +0.000 HD
BRANCH  27  29
ATOM     29  CA  PHE A   1      -2.373  13.021  23.368  0.00  0.00    +0.000 C 
BRANCH  29  30
ATOM     30  C   PHE A   1      -3.822  12.513  23.321  0.00  0.00    +0.000 C 
ATOM     31  O   PHE A   1      -4.481  12.456  22.289  0.00  0.00    +0.000 OA
BRANCH  30  32
ATOM     32  OXT PHE A   1      -4.311  12.062  24.500  0.00  0.00    +0.000 OA
ATOM     33  HXT PHE A   1      -3.946  11.212  24.810  0.00  0.00    +0.000 HD
ENDBRANCH  30  32
ENDBRANCH  29  30
BRANCH  29  34
ATOM     34  CB  PHE A   1      -2.282  14.558  23.368  0.00  0.00    +0.000 C 
BRANCH  34  35
ATOM     35  CG  PHE A   1      -1.430  15.135  22.263  0.00  0.00    +0.000 A 
ATOM     36  CD1 PHE A   1      -0.070  15.398  22.473  0.00  0.00    +0.000 A 
ATOM     37  CE1 PHE A   1       0.708  15.947  21.453  0.00  0.00    +0.000 A 
ATOM     38  CZ  PHE A   1       0.134  16.237  20.217  0.00  0.00    +0.000 A 
ATOM     39  CE2 PHE A   1      -1.217  15.983  19.999  0.00  0.00    +0.000 A 
ATOM     40  CD2 PHE A   1      -1.996  15.434  21.016  0.00  0.00    +0.000 A 
ENDBRANCH  34  35
ENDBRANCH  29  34
ENDBRANCH  27  29
ENDBRANCH   9  25
TORSDOF 9
ENDMDL
MODEL 9
REMARK VINA RESULT:      -8.3      0.317      1.146
REMARK  Name = 
REMARK  11 active torsions:
REMARK  status: ('A' for Active; 'I' for Inactive)
REMARK    1  A    between atoms: C_1  and  C_2
REMARK    2  A    between atoms: C_4  and  C_5
REMARK    3  A    between atoms: C_13  and  C_14
REMARK    4  A    between atoms: N_16  and  CA_17
REMARK    5  A    between atoms: CA_17  and  CB_18
REMARK    6  A    between atoms: CA_17  and  C_25
REMARK    7  A    between atoms: CB_18  and  CG_19
REMARK    8  A    between atoms: C_25  and  OXT_27
REMARK    9  A    between atoms: C_30  and  C_31
REMARK   10  A    between atoms: C_32  and  C_33
REMARK   11  A    between atoms: C_33  and  O_35
REMARK                            x       y       z     vdW  Elec       q    Type
REMARK                         _______ _______ _______ _____ _____    ______ ____
ROOT
ATOM      1  C   UNK A   0       1.880   7.034  20.407  0.00  0.00    +0.000 C 
ATOM      2  C   UNK A   0       1.668   8.112  19.636  0.00  0.00    +0.000 C 
ATOM      3  C   UNK A   0       2.185   8.326  18.229  0.00  0.00    +0.000 C 
ATOM      4  O   UNK A   0       2.975   7.659  17.586  0.00  0.00    +0.000 OA
ATOM      5  N   UNK A   0       1.601   9.509  17.815  0.00  0.00    +0.000 N 
ATOM      6  C   UNK A   0       0.841  10.086  18.823  0.00  0.00    +0.000 A 
ATOM      7  C   UNK A   0       0.173  11.289  18.746  0.00  0.00    +0.000 A 
ATOM      8  C   UNK A   0      -0.470  11.734  19.899  0.00  0.00    +0.000 A 
ATOM      9  C   UNK A   0      -0.430  10.980  21.096  0.00  0.00    +0.000 A 
ATOM     10  C   UNK A   0       0.216   9.729  21.132  0.00  0.00    +0.000 A 
ATOM     11  C   UNK A   0       0.858   9.296  19.979  0.00  0.00    +0.000 A 
ATOM     12  H   UNK A   0       1.780   9.907  16.906  0.00  0.00    +0.000 HD
ENDROOT
BRANCH   1  16
ATOM     13  C   UNK A   0       5.984   4.923  18.885  0.00  0.00    +0.000 C 
ATOM     14  C   UNK A   0       4.534   4.950  19.221  0.00  0.00    +0.000 A 
ATOM     15  N   UNK A   0       3.964   6.113  19.687  0.00  0.00    +0.000 N 
ATOM     16  C   UNK A   0       2.635   5.925  19.957  0.00  0.00    +0.000 A 
ATOM     17  C   UNK A   0       2.332   4.603  19.681  0.00  0.00    +0.000 A 
ATOM     18  C   UNK A   0       0.996   3.950  19.795  0.00  0.00    +0.000 C 
ATOM     19  C   UNK A   0       3.537   3.973  19.199  0.00  0.00    +0.000 A 
ATOM     20  H   UNK A   0       4.453   6.992  19.793  0.00  0.00    +0.000 HD
BRANCH  19  21
ATOM     21  C   UNK A   0       3.658   2.569  18.791  0.00  0.00    +0.000 C 
ATOM     22  O   UNK A   0       4.219   1.713  19.460  0.00  0.00    +0.000 OA
BRANCH  21  23
ATOM     23  O   UNK A   0       3.058   2.259  17.612  0.00  0.00    +0.000 OA
ATOM     24  H   UNK A   0       3.047   3.037  17.028  0.00  0.00    +0.000 HD
ENDBRANCH  21  23
ENDBRANCH  19  21
ENDBRANCH   1  16
BRANCH   9  25
ATOM     25  C   UNK A   0      -1.087  11.594  22.289  0.00  0.00    +0.000 C 
ATOM     26  O   UNK A   0      -0.946  11.087  23.396  0.00  0.00    +0.000 OA
ATOM     27  N   PHE A   1      -1.869  12.700  22.077  0.00  0.00    +0.000 N 
ATOM     28  H   PHE A   1      -2.093  13.017  21.137  0.00  0.00    +0.000 HD
BRANCH  27  29
ATOM     29  CA  PHE A   1      -2.619  13.348  23.159  0.00  0.00    +0.000 C 
BRANCH  29  30
ATOM     30  C   PHE A   1      -3.945  12.590  23.329  0.00  0.00    +0.000 C 
ATOM     31  O   PHE A   1      -4.858  12.641  22.513  0.00  0.00    +0.000 OA
BRANCH  30  32
ATOM     32  OXT PHE A   1      -4.016  11.796  24.423  0.00  0.00    +0.000 OA
ATOM     33  HXT PHE A   1      -3.433  12.047  25.164  0.00  0.00    +0.000 HD
ENDBRANCH  30  32
ENDBRANCH  29  30
BRANCH  29  34
ATOM     34  CB  PHE A   1      -2.823  14.860  22.948  0.00  0.00    +0.000 C 
BRANCH  34  35
ATOM     35  CG  PHE A   1      -2.332  15.723  24.086  0.00  0.00    +0.000 A 
ATOM     36  CD1 PHE A   1      -1.417  15.220  25.021  0.00  0.00    +0.000 A 
ATOM     37  CE1 PHE A   1      -0.981  16.017  26.079  0.00  0.00    +0.000 A 
ATOM     38  CZ  PHE A   1      -1.453  17.321  26.212  0.00  0.00    +0.000 A 
ATOM     39  CE2 PHE A   1      -2.365  17.829  25.290  0.00  0.00    +0.000 A 
ATOM     40  CD2 PHE A   1      -2.801  17.035  24.231  0.00  0.00    +0.000 A 
ENDBRANCH  34  35
ENDBRANCH  29  34
ENDBRANCH  27  29
ENDBRANCH   9  25
TORSDOF 9
ENDMDL
