MODEL 1
REMARK VINA RESULT:      -9.4      0.000      0.000
REMARK  Name = 
REMARK  8 active torsions:
REMARK  status: ('A' for Active; 'I' for Inactive)
REMARK    1  A    between atoms: C_1  and  N_2
REMARK    2  A    between atoms: C_8  and  N_9
REMARK    3  A    between atoms: C_13  and  C_14
REMARK    4  A    between atoms: N_16  and  C_17
REMARK    5  A    between atoms: C_17  and  C_18
REMARK    6  A    between atoms: C_18  and  C_19
REMARK    7  A    between atoms: C_22  and  C_23
REMARK    8  A    between atoms: C_28  and  C_29
REMARK                            x       y       z     vdW  Elec       q    Type
REMARK                         _______ _______ _______ _____ _____    ______ ____
ROOT
ATOM      1  N   UNL     1       5.284   5.367  17.323  0.00  0.00    +0.000 N 
ATOM      2  C   UNL     1       5.259   5.559  15.883  0.00  0.00    +0.000 C 
ATOM      3  C   UNL     1       6.129   4.421  15.378  0.00  0.00    +0.000 C 
ATOM      4  C   UNL     1       7.216   4.311  16.438  0.00  0.00    +0.000 C 
ATOM      5  C   UNL     1       6.554   4.767  17.761  0.00  0.00    +0.000 C 
ENDROOT
BRANCH   1  13
ATOM      6  C   UNL     1       1.209  12.131  19.589  0.00  0.00    +0.000 C 
ATOM      7  N   UNL     1       0.959  10.696  19.496  0.00  0.00    +0.000 NA
ATOM      8  C   UNL     1       1.528   9.975  20.666  0.00  0.00    +0.000 C 
ATOM      9  C   UNL     1       1.334   8.433  20.580  0.00  0.00    +0.000 C 
ATOM     10  N   UNL     1       1.910   7.989  19.314  0.00  0.00    +0.000 N 
ATOM     11  C   UNL     1       2.491   6.751  19.172  0.00  0.00    +0.000 A 
ATOM     12  C   UNL     1       3.499   6.628  18.238  0.00  0.00    +0.000 A 
ATOM     13  C   UNL     1       4.176   5.443  18.121  0.00  0.00    +0.000 A 
ATOM     14  N   UNL     1       3.843   4.403  18.891  0.00  0.00    +0.000 NA
ATOM     15  C   UNL     1       2.824   4.557  19.778  0.00  0.00    +0.000 A 
ATOM     16  N   UNL     1       2.165   5.727  19.968  0.00  0.00    +0.000 NA
ATOM     17  C   UNL     1       1.323   8.631  18.131  0.00  0.00    +0.000 C 
ATOM     18  C   UNL     1       1.539  10.153  18.246  0.00  0.00    +0.000 C 
BRANCH  15  19
ATOM     19  C   UNL     1       2.449   3.358  20.656  0.00  0.00    +0.000 C 
ATOM     20  F   UNL     1       3.496   2.517  20.921  0.00  0.00    +0.000 F 
ATOM     21  F   UNL     1       1.974   3.730  21.885  0.00  0.00    +0.000 F 
ATOM     22  F   UNL     1       1.480   2.562  20.112  0.00  0.00    +0.000 F 
ENDBRANCH  15  19
ENDBRANCH   1  13
BRANCH   5  23
ATOM     23  C   UNL     1       7.458   5.811  18.465  0.00  0.00    +0.000 C 
ATOM     24  O   UNL     1       8.073   5.543  19.499  0.00  0.00    +0.000 OA
ATOM     25  N   UNL     1       7.491   7.086  17.926  0.00  0.00    +0.000 N 
ATOM     26  H   UNL     1       7.056   7.221  17.020  0.00  0.00    +0.000 HD
BRANCH  25  27
ATOM     27  C   UNL     1       8.371   8.096  18.488  0.00  0.00    +0.000 C 
BRANCH  27  28
ATOM     28  C   UNL     1       8.390   9.402  17.693  0.00  0.00    +0.000 C 
BRANCH  28  29
ATOM     29  C   UNL     1       8.920  10.559  18.512  0.00  0.00    +0.000 A 
ATOM     30  C   UNL     1       9.324  10.396  19.843  0.00  0.00    +0.000 A 
ATOM     31  C   UNL     1       9.779  11.481  20.593  0.00  0.00    +0.000 A 
ATOM     32  C   UNL     1       9.834  12.758  20.023  0.00  0.00    +0.000 A 
ATOM     33  C   UNL     1       9.444  12.937  18.692  0.00  0.00    +0.000 A 
ATOM     34  C   UNL     1       8.986  11.846  17.945  0.00  0.00    +0.000 A 
BRANCH  32  35
ATOM     35  C   UNL     1      10.286  13.877  20.797  0.00  0.00    +0.000 C 
ATOM     36  N   UNL     1      10.660  14.785  21.428  0.00  0.00    +0.000 NA
ENDBRANCH  32  35
ENDBRANCH  28  29
ENDBRANCH  27  28
ENDBRANCH  25  27
ENDBRANCH   5  23
TORSDOF 7
ENDMDL
MODEL 2
REMARK VINA RESULT:      -9.1      1.401      1.662
REMARK  Name = 
REMARK  8 active torsions:
REMARK  status: ('A' for Active; 'I' for Inactive)
REMARK    1  A    between atoms: C_1  and  N_2
REMARK    2  A    between atoms: C_8  and  N_9
REMARK    3  A    between atoms: C_13  and  C_14
REMARK    4  A    between atoms: N_16  and  C_17
REMARK    5  A    between atoms: C_17  and  C_18
REMARK    6  A    between atoms: C_18  and  C_19
REMARK    7  A    between atoms: C_22  and  C_23
REMARK    8  A    between atoms: C_28  and  C_29
REMARK                            x       y       z     vdW  Elec       q    Type
REMARK                         _______ _______ _______ _____ _____    ______ ____
ROOT
ATOM      1  N   UNL     1       5.041   5.263  17.262  0.00  0.00    +0.000 N 
ATOM      2  C   UNL     1       5.024   4.470  16.044  0.00  0.00    +0.000 C 
ATOM      3  C   UNL     1       6.322   3.688  16.136  0.00  0.00    +0.000 C 
ATOM      4  C   UNL     1       7.288   4.681  16.770  0.00  0.00    +0.000 C 
ATOM      5  C   UNL     1       6.416   5.593  17.667  0.00  0.00    +0.000 C 
ENDROOT
BRANCH   1  13
ATOM      6  C   UNL     1       1.391  12.298  19.428  0.00  0.00    +0.000 C 
ATOM      7  N   UNL     1       1.063  10.877  19.381  0.00  0.00    +0.000 NA
ATOM      8  C   UNL     1       1.620  10.159  20.558  0.00  0.00    +0.000 C 
ATOM      9  C   UNL     1       1.341   8.628  20.521  0.00  0.00    +0.000 C 
ATOM     10  N   UNL     1       1.862   8.119  19.254  0.00  0.00    +0.000 N 
ATOM     11  C   UNL     1       2.372   6.847  19.134  0.00  0.00    +0.000 A 
ATOM     12  C   UNL     1       3.349   6.644  18.181  0.00  0.00    +0.000 A 
ATOM     13  C   UNL     1       3.958   5.422  18.083  0.00  0.00    +0.000 A 
ATOM     14  N   UNL     1       3.588   4.422  18.889  0.00  0.00    +0.000 NA
ATOM     15  C   UNL     1       2.602   4.656  19.795  0.00  0.00    +0.000 A 
ATOM     16  N   UNL     1       2.012   5.865  19.967  0.00  0.00    +0.000 NA
ATOM     17  C   UNL     1       1.282   8.759  18.067  0.00  0.00    +0.000 C 
ATOM     18  C   UNL     1       1.581  10.270  18.135  0.00  0.00    +0.000 C 
BRANCH  15  19
ATOM     19  C   UNL     1       2.184   3.503  20.715  0.00  0.00    +0.000 C 
ATOM     20  F   UNL     1       2.772   2.307  20.405  0.00  0.00    +0.000 F 
ATOM     21  F   UNL     1       2.510   3.728  22.025  0.00  0.00    +0.000 F 
ATOM     22  F   UNL     1       0.841   3.254  20.707  0.00  0.00    +0.000 F 
ENDBRANCH  15  19
ENDBRANCH   1  13
BRANCH   5  23
ATOM     23  C   UNL     1       6.748   7.079  17.380  0.00  0.00    +0.000 C 
ATOM     24  O   UNL     1       6.142   7.726  16.525  0.00  0.00    +0.000 OA
ATOM     25  N   UNL     1       7.809   7.635  18.076  0.00  0.00    +0.000 N 
ATOM     26  H   UNL     1       8.199   7.096  18.841  0.00  0.00    +0.000 HD
BRANCH  25  27
ATOM     27  C   UNL     1       8.133   9.042  17.913  0.00  0.00    +0.000 C 
BRANCH  27  28
ATOM     28  C   UNL     1       9.071   9.582  18.994  0.00  0.00    +0.000 C 
BRANCH  28  29
ATOM     29  C   UNL     1       9.625  10.945  18.637  0.00  0.00    +0.000 A 
ATOM     30  C   UNL     1       8.893  11.860  17.871  0.00  0.00    +0.000 A 
ATOM     31  C   UNL     1       9.433  13.099  17.524  0.00  0.00    +0.000 A 
ATOM     32  C   UNL     1      10.725  13.445  17.936  0.00  0.00    +0.000 A 
ATOM     33  C   UNL     1      11.466  12.547  18.711  0.00  0.00    +0.000 A 
ATOM     34  C   UNL     1      10.921  11.305  19.054  0.00  0.00    +0.000 A 
BRANCH  32  35
ATOM     35  C   UNL     1      11.287  14.711  17.568  0.00  0.00    +0.000 C 
ATOM     36  N   UNL     1      11.741  15.745  17.272  0.00  0.00    +0.000 NA
ENDBRANCH  32  35
ENDBRANCH  28  29
ENDBRANCH  27  28
ENDBRANCH  25  27
ENDBRANCH   5  23
TORSDOF 7
ENDMDL
MODEL 3
REMARK VINA RESULT:      -9.0      1.244      1.434
REMARK  Name = 
REMARK  8 active torsions:
REMARK  status: ('A' for Active; 'I' for Inactive)
REMARK    1  A    between atoms: C_1  and  N_2
REMARK    2  A    between atoms: C_8  and  N_9
REMARK    3  A    between atoms: C_13  and  C_14
REMARK    4  A    between atoms: N_16  and  C_17
REMARK    5  A    between atoms: C_17  and  C_18
REMARK    6  A    between atoms: C_18  and  C_19
REMARK    7  A    between atoms: C_22  and  C_23
REMARK    8  A    between atoms: C_28  and  C_29
REMARK                            x       y       z     vdW  Elec       q    Type
REMARK                         _______ _______ _______ _____ _____    ______ ____
ROOT
ATOM      1  N   UNL     1       5.275   5.770  17.056  0.00  0.00    +0.000 N 
ATOM      2  C   UNL     1       5.203   5.981  15.620  0.00  0.00    +0.000 C 
ATOM      3  C   UNL     1       6.135   4.913  15.077  0.00  0.00    +0.000 C 
ATOM      4  C   UNL     1       7.252   4.862  16.109  0.00  0.00    +0.000 C 
ATOM      5  C   UNL     1       6.593   5.252  17.454  0.00  0.00    +0.000 C 
ENDROOT
BRANCH   1  13
ATOM      6  C   UNL     1       1.048  12.240  19.843  0.00  0.00    +0.000 C 
ATOM      7  N   UNL     1       0.840  10.807  19.661  0.00  0.00    +0.000 NA
ATOM      8  C   UNL     1       1.457  10.031  20.770  0.00  0.00    +0.000 C 
ATOM      9  C   UNL     1       1.308   8.492  20.588  0.00  0.00    +0.000 C 
ATOM     10  N   UNL     1       1.869   8.149  19.284  0.00  0.00    +0.000 N 
ATOM     11  C   UNL     1       2.485   6.942  19.049  0.00  0.00    +0.000 A 
ATOM     12  C   UNL     1       3.473   6.912  18.088  0.00  0.00    +0.000 A 
ATOM     13  C   UNL     1       4.184   5.760  17.881  0.00  0.00    +0.000 A 
ATOM     14  N   UNL     1       3.901   4.661  18.587  0.00  0.00    +0.000 NA
ATOM     15  C   UNL     1       2.899   4.726  19.504  0.00  0.00    +0.000 A 
ATOM     16  N   UNL     1       2.209   5.859  19.784  0.00  0.00    +0.000 NA
ATOM     17  C   UNL     1       1.236   8.847  18.157  0.00  0.00    +0.000 C 
ATOM     18  C   UNL     1       1.407  10.364  18.367  0.00  0.00    +0.000 C 
BRANCH  15  19
ATOM     19  C   UNL     1       2.581   3.461  20.310  0.00  0.00    +0.000 C 
ATOM     20  F   UNL     1       2.134   3.711  21.579  0.00  0.00    +0.000 F 
ATOM     21  F   UNL     1       1.601   2.699  19.734  0.00  0.00    +0.000 F 
ATOM     22  F   UNL     1       3.652   2.627  20.466  0.00  0.00    +0.000 F 
ENDBRANCH  15  19
ENDBRANCH   1  13
BRANCH   5  23
ATOM     23  C   UNL     1       7.441   6.345  18.154  0.00  0.00    +0.000 C 
ATOM     24  O   UNL     1       7.840   6.212  19.313  0.00  0.00    +0.000 OA
ATOM     25  N   UNL     1       7.673   7.514  17.449  0.00  0.00    +0.000 N 
ATOM     26  H   UNL     1       7.418   7.526  16.468  0.00  0.00    +0.000 HD
BRANCH  25  27
ATOM     27  C   UNL     1       8.520   8.551  18.012  0.00  0.00    +0.000 C 
BRANCH  27  28
ATOM     28  C   UNL     1       7.848   9.924  18.069  0.00  0.00    +0.000 C 
BRANCH  28  29
ATOM     29  C   UNL     1       8.846  11.053  17.920  0.00  0.00    +0.000 A 
ATOM     30  C   UNL     1      10.220  10.851  18.104  0.00  0.00    +0.000 A 
ATOM     31  C   UNL     1      11.121  11.910  17.994  0.00  0.00    +0.000 A 
ATOM     32  C   UNL     1      10.663  13.199  17.700  0.00  0.00    +0.000 A 
ATOM     33  C   UNL     1       9.295  13.416  17.503  0.00  0.00    +0.000 A 
ATOM     34  C   UNL     1       8.395  12.351  17.616  0.00  0.00    +0.000 A 
BRANCH  32  35
ATOM     35  C   UNL     1      11.585  14.291  17.602  0.00  0.00    +0.000 C 
ATOM     36  N   UNL     1      12.333  15.183  17.517  0.00  0.00    +0.000 NA
ENDBRANCH  32  35
ENDBRANCH  28  29
ENDBRANCH  27  28
ENDBRANCH  25  27
ENDBRANCH   5  23
TORSDOF 7
ENDMDL
MODEL 4
REMARK VINA RESULT:      -8.6      0.714      1.260
REMARK  Name = 
REMARK  8 active torsions:
REMARK  status: ('A' for Active; 'I' for Inactive)
REMARK    1  A    between atoms: C_1  and  N_2
REMARK    2  A    between atoms: C_8  and  N_9
REMARK    3  A    between atoms: C_13  and  C_14
REMARK    4  A    between atoms: N_16  and  C_17
REMARK    5  A    between atoms: C_17  and  C_18
REMARK    6  A    between atoms: C_18  and  C_19
REMARK    7  A    between atoms: C_22  and  C_23
REMARK    8  A    between atoms: C_28  and  C_29
REMARK                            x       y       z     vdW  Elec       q    Type
REMARK                         _______ _______ _______ _____ _____    ______ ____
ROOT
ATOM      1  N   UNL     1       5.383   5.438  17.089  0.00  0.00    +0.000 N 
ATOM      2  C   UNL     1       5.346   5.269  15.646  0.00  0.00    +0.000 C 
ATOM      3  C   UNL     1       6.429   4.233  15.402  0.00  0.00    +0.000 C 
ATOM      4  C   UNL     1       7.499   4.594  16.423  0.00  0.00    +0.000 C 
ATOM      5  C   UNL     1       6.738   5.219  17.618  0.00  0.00    +0.000 C 
ENDROOT
BRANCH   1  13
ATOM      6  C   UNL     1       1.318  12.130  19.577  0.00  0.00    +0.000 C 
ATOM      7  N   UNL     1       1.062  10.701  19.425  0.00  0.00    +0.000 NA
ATOM      8  C   UNL     1       1.617   9.933  20.572  0.00  0.00    +0.000 C 
ATOM      9  C   UNL     1       1.416   8.396  20.426  0.00  0.00    +0.000 C 
ATOM     10  N   UNL     1       2.002   7.999  19.148  0.00  0.00    +0.000 N 
ATOM     11  C   UNL     1       2.579   6.763  18.964  0.00  0.00    +0.000 A 
ATOM     12  C   UNL     1       3.595   6.672  18.035  0.00  0.00    +0.000 A 
ATOM     13  C   UNL     1       4.268   5.489  17.880  0.00  0.00    +0.000 A 
ATOM     14  N   UNL     1       3.923   4.421  18.605  0.00  0.00    +0.000 NA
ATOM     15  C   UNL     1       2.897   4.547  19.488  0.00  0.00    +0.000 A 
ATOM     16  N   UNL     1       2.241   5.712  19.718  0.00  0.00    +0.000 NA
ATOM     17  C   UNL     1       1.430   8.688  17.985  0.00  0.00    +0.000 C 
ATOM     18  C   UNL     1       1.651  10.203  18.162  0.00  0.00    +0.000 C 
BRANCH  15  19
ATOM     19  C   UNL     1       2.508   3.316  20.316  0.00  0.00    +0.000 C 
ATOM     20  F   UNL     1       1.682   3.597  21.371  0.00  0.00    +0.000 F 
ATOM     21  F   UNL     1       1.838   2.375  19.583  0.00  0.00    +0.000 F 
ATOM     22  F   UNL     1       3.577   2.664  20.863  0.00  0.00    +0.000 F 
ENDBRANCH  15  19
ENDBRANCH   1  13
BRANCH   5  23
ATOM     23  C   UNL     1       7.409   6.556  18.023  0.00  0.00    +0.000 C 
ATOM     24  O   UNL     1       8.098   6.652  19.040  0.00  0.00    +0.000 OA
ATOM     25  N   UNL     1       7.143   7.662  17.234  0.00  0.00    +0.000 N 
ATOM     26  H   UNL     1       6.663   7.503  16.355  0.00  0.00    +0.000 HD
BRANCH  25  27
ATOM     27  C   UNL     1       7.795   8.931  17.510  0.00  0.00    +0.000 C 
BRANCH  27  28
ATOM     28  C   UNL     1       8.629   8.924  18.792  0.00  0.00    +0.000 C 
BRANCH  28  29
ATOM     29  C   UNL     1       9.315  10.251  19.031  0.00  0.00    +0.000 A 
ATOM     30  C   UNL     1       9.775  11.045  17.972  0.00  0.00    +0.000 A 
ATOM     31  C   UNL     1      10.435  12.250  18.213  0.00  0.00    +0.000 A 
ATOM     32  C   UNL     1      10.654  12.684  19.525  0.00  0.00    +0.000 A 
ATOM     33  C   UNL     1      10.192  11.909  20.595  0.00  0.00    +0.000 A 
ATOM     34  C   UNL     1       9.533  10.700  20.347  0.00  0.00    +0.000 A 
BRANCH  32  35
ATOM     35  C   UNL     1      11.346  13.914  19.775  0.00  0.00    +0.000 C 
ATOM     36  N   UNL     1      11.904  14.917  19.984  0.00  0.00    +0.000 NA
ENDBRANCH  32  35
ENDBRANCH  28  29
ENDBRANCH  27  28
ENDBRANCH  25  27
ENDBRANCH   5  23
TORSDOF 7
ENDMDL
MODEL 5
REMARK VINA RESULT:      -8.4      5.586      9.674
REMARK  Name = 
REMARK  8 active torsions:
REMARK  status: ('A' for Active; 'I' for Inactive)
REMARK    1  A    between atoms: C_1  and  N_2
REMARK    2  A    between atoms: C_8  and  N_9
REMARK    3  A    between atoms: C_13  and  C_14
REMARK    4  A    between atoms: N_16  and  C_17
REMARK    5  A    between atoms: C_17  and  C_18
REMARK    6  A    between atoms: C_18  and  C_19
REMARK    7  A    between atoms: C_22  and  C_23
REMARK    8  A    between atoms: C_28  and  C_29
REMARK                            x       y       z     vdW  Elec       q    Type
REMARK                         _______ _______ _______ _____ _____    ______ ____
ROOT
ATOM      1  N   UNL     1      -0.464  12.221  20.015  0.00  0.00    +0.000 N 
ATOM      2  C   UNL     1      -0.096  12.814  21.290  0.00  0.00    +0.000 C 
ATOM      3  C   UNL     1       1.175  13.573  20.953  0.00  0.00    +0.000 C 
ATOM      4  C   UNL     1       1.865  12.671  19.939  0.00  0.00    +0.000 C 
ATOM      5  C   UNL     1       0.725  11.930  19.199  0.00  0.00    +0.000 C 
ENDROOT
BRANCH   1  13
ATOM      6  C   UNL     1      -7.445  13.679  24.094  0.00  0.00    +0.000 C 
ATOM      7  N   UNL     1      -6.975  13.690  22.712  0.00  0.00    +0.000 NA
ATOM      8  C   UNL     1      -6.943  12.315  22.146  0.00  0.00    +0.000 C 
ATOM      9  C   UNL     1      -6.393  12.273  20.690  0.00  0.00    +0.000 C 
ATOM     10  N   UNL     1      -5.078  12.907  20.700  0.00  0.00    +0.000 N 
ATOM     11  C   UNL     1      -4.072  12.512  19.848  0.00  0.00    +0.000 A 
ATOM     12  C   UNL     1      -2.773  12.678  20.282  0.00  0.00    +0.000 A 
ATOM     13  C   UNL     1      -1.737  12.216  19.516  0.00  0.00    +0.000 A 
ATOM     14  N   UNL     1      -1.982  11.633  18.338  0.00  0.00    +0.000 NA
ATOM     15  C   UNL     1      -3.275  11.516  17.934  0.00  0.00    +0.000 A 
ATOM     16  N   UNL     1      -4.335  11.905  18.686  0.00  0.00    +0.000 NA
ATOM     17  C   UNL     1      -5.082  14.291  21.190  0.00  0.00    +0.000 C 
ATOM     18  C   UNL     1      -5.625  14.294  22.632  0.00  0.00    +0.000 C 
BRANCH  15  19
ATOM     19  C   UNL     1      -3.547  10.846  16.582  0.00  0.00    +0.000 C 
ATOM     20  F   UNL     1      -3.299   9.500  16.572  0.00  0.00    +0.000 F 
ATOM     21  F   UNL     1      -4.850  10.968  16.184  0.00  0.00    +0.000 F 
ATOM     22  F   UNL     1      -2.799  11.355  15.558  0.00  0.00    +0.000 F 
ENDBRANCH  15  19
ENDBRANCH   1  13
BRANCH   5  23
ATOM     23  C   UNL     1       1.027  10.410  19.164  0.00  0.00    +0.000 C 
ATOM     24  O   UNL     1       1.075   9.734  20.193  0.00  0.00    +0.000 OA
ATOM     25  N   UNL     1       1.316   9.851  17.930  0.00  0.00    +0.000 N 
ATOM     26  H   UNL     1       1.155  10.425  17.109  0.00  0.00    +0.000 HD
BRANCH  25  27
ATOM     27  C   UNL     1       1.537   8.421  17.808  0.00  0.00    +0.000 C 
BRANCH  27  28
ATOM     28  C   UNL     1       3.014   8.026  17.842  0.00  0.00    +0.000 C 
BRANCH  28  29
ATOM     29  C   UNL     1       3.201   6.532  17.995  0.00  0.00    +0.000 A 
ATOM     30  C   UNL     1       4.473   5.944  17.986  0.00  0.00    +0.000 A 
ATOM     31  C   UNL     1       4.624   4.561  18.096  0.00  0.00    +0.000 A 
ATOM     32  C   UNL     1       3.500   3.736  18.212  0.00  0.00    +0.000 A 
ATOM     33  C   UNL     1       2.223   4.307  18.233  0.00  0.00    +0.000 A 
ATOM     34  C   UNL     1       2.077   5.694  18.121  0.00  0.00    +0.000 A 
BRANCH  32  35
ATOM     35  C   UNL     1       3.652   2.314  18.308  0.00  0.00    +0.000 C 
ATOM     36  N   UNL     1       3.775   1.155  18.380  0.00  0.00    +0.000 NA
ENDBRANCH  32  35
ENDBRANCH  28  29
ENDBRANCH  27  28
ENDBRANCH  25  27
ENDBRANCH   5  23
TORSDOF 7
ENDMDL
MODEL 6
REMARK VINA RESULT:      -8.3      5.226      8.420
REMARK  Name = 
REMARK  8 active torsions:
REMARK  status: ('A' for Active; 'I' for Inactive)
REMARK    1  A    between atoms: C_1  and  N_2
REMARK    2  A    between atoms: C_8  and  N_9
REMARK    3  A    between atoms: C_13  and  C_14
REMARK    4  A    between atoms: N_16  and  C_17
REMARK    5  A    between atoms: C_17  and  C_18
REMARK    6  A    between atoms: C_18  and  C_19
REMARK    7  A    between atoms: C_22  and  C_23
REMARK    8  A    between atoms: C_28  and  C_29
REMARK                            x       y       z     vdW  Elec       q    Type
REMARK                         _______ _______ _______ _____ _____    ______ ____
ROOT
ATOM      1  N   UNL     1       0.134   9.763  20.565  0.00  0.00    +0.000 N 
ATOM      2  C   UNL     1      -0.734   9.354  21.657  0.00  0.00    +0.000 C 
ATOM      3  C   UNL     1       0.206   9.350  22.849  0.00  0.00    +0.000 C 
ATOM      4  C   UNL     1       1.518   8.848  22.262  0.00  0.00    +0.000 C 
ATOM      5  C   UNL     1       1.517   9.314  20.786  0.00  0.00    +0.000 C 
ENDROOT
BRANCH   1  13
ATOM      6  C   UNL     1       2.096  17.740  20.442  0.00  0.00    +0.000 C 
ATOM      7  N   UNL     1       1.660  16.716  19.496  0.00  0.00    +0.000 NA
ATOM      8  C   UNL     1       0.189  16.510  19.570  0.00  0.00    +0.000 C 
ATOM      9  C   UNL     1      -0.314  15.386  18.618  0.00  0.00    +0.000 C 
ATOM     10  N   UNL     1       0.439  14.175  18.934  0.00  0.00    +0.000 N 
ATOM     11  C   UNL     1      -0.110  12.921  18.805  0.00  0.00    +0.000 A 
ATOM     12  C   UNL     1       0.364  11.933  19.643  0.00  0.00    +0.000 A 
ATOM     13  C   UNL     1      -0.213  10.691  19.623  0.00  0.00    +0.000 A 
ATOM     14  N   UNL     1      -1.212  10.430  18.774  0.00  0.00    +0.000 NA
ATOM     15  C   UNL     1      -1.629  11.423  17.945  0.00  0.00    +0.000 A 
ATOM     16  N   UNL     1      -1.128  12.683  17.971  0.00  0.00    +0.000 NA
ATOM     17  C   UNL     1       1.894  14.323  18.805  0.00  0.00    +0.000 C 
ATOM     18  C   UNL     1       2.356  15.438  19.765  0.00  0.00    +0.000 C 
BRANCH  15  19
ATOM     19  C   UNL     1      -2.775  11.114  16.975  0.00  0.00    +0.000 C 
ATOM     20  F   UNL     1      -3.216   9.820  17.034  0.00  0.00    +0.000 F 
ATOM     21  F   UNL     1      -3.887  11.877  17.210  0.00  0.00    +0.000 F 
ATOM     22  F   UNL     1      -2.456  11.324  15.663  0.00  0.00    +0.000 F 
ENDBRANCH  15  19
ENDBRANCH   1  13
BRANCH   5  23
ATOM     23  C   UNL     1       1.879   8.123  19.862  0.00  0.00    +0.000 C 
ATOM     24  O   UNL     1       2.006   8.263  18.644  0.00  0.00    +0.000 OA
ATOM     25  N   UNL     1       1.981   6.874  20.451  0.00  0.00    +0.000 N 
ATOM     26  H   UNL     1       1.975   6.834  21.464  0.00  0.00    +0.000 HD
BRANCH  25  27
ATOM     27  C   UNL     1       2.388   5.724  19.661  0.00  0.00    +0.000 C 
BRANCH  27  28
ATOM     28  C   UNL     1       3.899   5.489  19.658  0.00  0.00    +0.000 C 
BRANCH  28  29
ATOM     29  C   UNL     1       4.423   5.178  18.272  0.00  0.00    +0.000 A 
ATOM     30  C   UNL     1       4.762   6.192  17.367  0.00  0.00    +0.000 A 
ATOM     31  C   UNL     1       5.212   5.885  16.083  0.00  0.00    +0.000 A 
ATOM     32  C   UNL     1       5.329   4.552  15.676  0.00  0.00    +0.000 A 
ATOM     33  C   UNL     1       5.005   3.526  16.571  0.00  0.00    +0.000 A 
ATOM     34  C   UNL     1       4.552   3.839  17.856  0.00  0.00    +0.000 A 
BRANCH  32  35
ATOM     35  C   UNL     1       5.777   4.236  14.351  0.00  0.00    +0.000 C 
ATOM     36  N   UNL     1       6.135   3.975  13.271  0.00  0.00    +0.000 NA
ENDBRANCH  32  35
ENDBRANCH  28  29
ENDBRANCH  27  28
ENDBRANCH  25  27
ENDBRANCH   5  23
TORSDOF 7
ENDMDL
MODEL 7
REMARK VINA RESULT:      -8.2      1.103      1.218
REMARK  Name = 
REMARK  8 active torsions:
REMARK  status: ('A' for Active; 'I' for Inactive)
REMARK    1  A    between atoms: C_1  and  N_2
REMARK    2  A    between atoms: C_8  and  N_9
REMARK    3  A    between atoms: C_13  and  C_14
REMARK    4  A    between atoms: N_16  and  C_17
REMARK    5  A    between atoms: C_17  and  C_18
REMARK    6  A    between atoms: C_18  and  C_19
REMARK    7  A    between atoms: C_22  and  C_23
REMARK    8  A    between atoms: C_28  and  C_29
REMARK                            x       y       z     vdW  Elec       q    Type
REMARK                         _______ _______ _______ _____ _____    ______ ____
ROOT
ATOM      1  N   UNL     1       5.022   5.336  17.250  0.00  0.00    +0.000 N 
ATOM      2  C   UNL     1       5.006   4.552  16.026  0.00  0.00    +0.000 C 
ATOM      3  C   UNL     1       6.288   3.746  16.127  0.00  0.00    +0.000 C 
ATOM      4  C   UNL     1       7.264   4.716  16.780  0.00  0.00    +0.000 C 
ATOM      5  C   UNL     1       6.398   5.637  17.674  0.00  0.00    +0.000 C 
ENDROOT
BRANCH   1  13
ATOM      6  C   UNL     1       1.458  12.418  19.403  0.00  0.00    +0.000 C 
ATOM      7  N   UNL     1       1.108  11.002  19.346  0.00  0.00    +0.000 NA
ATOM      8  C   UNL     1       1.641  10.271  20.527  0.00  0.00    +0.000 C 
ATOM      9  C   UNL     1       1.339   8.745  20.480  0.00  0.00    +0.000 C 
ATOM     10  N   UNL     1       1.865   8.233  19.218  0.00  0.00    +0.000 N 
ATOM     11  C   UNL     1       2.357   6.954  19.098  0.00  0.00    +0.000 A 
ATOM     12  C   UNL     1       3.341   6.739  18.155  0.00  0.00    +0.000 A 
ATOM     13  C   UNL     1       3.933   5.508  18.059  0.00  0.00    +0.000 A 
ATOM     14  N   UNL     1       3.538   4.511  18.857  0.00  0.00    +0.000 NA
ATOM     15  C   UNL     1       2.545   4.757  19.752  0.00  0.00    +0.000 A 
ATOM     16  N   UNL     1       1.972   5.974  19.923  0.00  0.00    +0.000 NA
ATOM     17  C   UNL     1       1.309   8.887  18.027  0.00  0.00    +0.000 C 
ATOM     18  C   UNL     1       1.631  10.392  18.104  0.00  0.00    +0.000 C 
BRANCH  15  19
ATOM     19  C   UNL     1       2.100   3.607  20.663  0.00  0.00    +0.000 C 
ATOM     20  F   UNL     1       2.378   3.810  21.988  0.00  0.00    +0.000 F 
ATOM     21  F   UNL     1       0.750   3.386  20.615  0.00  0.00    +0.000 F 
ATOM     22  F   UNL     1       2.679   2.408  20.356  0.00  0.00    +0.000 F 
ENDBRANCH  15  19
ENDBRANCH   1  13
BRANCH   5  23
ATOM     23  C   UNL     1       6.761   7.119  17.403  0.00  0.00    +0.000 C 
ATOM     24  O   UNL     1       6.234   7.759  16.491  0.00  0.00    +0.000 OA
ATOM     25  N   UNL     1       7.760   7.678  18.182  0.00  0.00    +0.000 N 
ATOM     26  H   UNL     1       8.079   7.146  18.983  0.00  0.00    +0.000 HD
BRANCH  25  27
ATOM     27  C   UNL     1       8.103   9.082  18.034  0.00  0.00    +0.000 C 
BRANCH  27  28
ATOM     28  C   UNL     1       9.361   9.488  18.804  0.00  0.00    +0.000 C 
BRANCH  28  29
ATOM     29  C   UNL     1       9.279  10.909  19.319  0.00  0.00    +0.000 A 
ATOM     30  C   UNL     1       9.384  11.205  20.684  0.00  0.00    +0.000 A 
ATOM     31  C   UNL     1       9.273  12.517  21.144  0.00  0.00    +0.000 A 
ATOM     32  C   UNL     1       9.050  13.564  20.243  0.00  0.00    +0.000 A 
ATOM     33  C   UNL     1       8.954  13.288  18.875  0.00  0.00    +0.000 A 
ATOM     34  C   UNL     1       9.063  11.970  18.419  0.00  0.00    +0.000 A 
BRANCH  32  35
ATOM     35  C   UNL     1       8.920  14.911  20.715  0.00  0.00    +0.000 C 
ATOM     36  N   UNL     1       8.818  16.006  21.106  0.00  0.00    +0.000 NA
ENDBRANCH  32  35
ENDBRANCH  28  29
ENDBRANCH  27  28
ENDBRANCH  25  27
ENDBRANCH   5  23
TORSDOF 7
ENDMDL
MODEL 8
REMARK VINA RESULT:      -8.2      4.976      8.795
REMARK  Name = 
REMARK  8 active torsions:
REMARK  status: ('A' for Active; 'I' for Inactive)
REMARK    1  A    between atoms: C_1  and  N_2
REMARK    2  A    between atoms: C_8  and  N_9
REMARK    3  A    between atoms: C_13  and  C_14
REMARK    4  A    between atoms: N_16  and  C_17
REMARK    5  A    between atoms: C_17  and  C_18
REMARK    6  A    between atoms: C_18  and  C_19
REMARK    7  A    between atoms: C_22  and  C_23
REMARK    8  A    between atoms: C_28  and  C_29
REMARK                            x       y       z     vdW  Elec       q    Type
REMARK                         _______ _______ _______ _____ _____    ______ ____
ROOT
ATOM      1  N   UNL     1       1.071  13.602  20.677  0.00  0.00    +0.000 N 
ATOM      2  C   UNL     1       1.888  14.559  21.406  0.00  0.00    +0.000 C 
ATOM      3  C   UNL     1       1.812  15.798  20.531  0.00  0.00    +0.000 C 
ATOM      4  C   UNL     1       1.807  15.233  19.118  0.00  0.00    +0.000 C 
ATOM      5  C   UNL     1       1.127  13.846  19.228  0.00  0.00    +0.000 C 
ENDROOT
BRANCH   1  13
ATOM      6  C   UNL     1      -6.153  15.783  23.926  0.00  0.00    +0.000 C 
ATOM      7  N   UNL     1      -5.516  14.573  23.414  0.00  0.00    +0.000 NA
ATOM      8  C   UNL     1      -4.612  13.972  24.430  0.00  0.00    +0.000 C 
ATOM      9  C   UNL     1      -3.867  12.709  23.908  0.00  0.00    +0.000 C 
ATOM     10  N   UNL     1      -3.163  13.091  22.686  0.00  0.00    +0.000 N 
ATOM     11  C   UNL     1      -1.968  12.514  22.323  0.00  0.00    +0.000 A 
ATOM     12  C   UNL     1      -1.098  13.279  21.575  0.00  0.00    +0.000 A 
ATOM     13  C   UNL     1       0.144  12.789  21.266  0.00  0.00    +0.000 A 
ATOM     14  N   UNL     1       0.497  11.562  21.664  0.00  0.00    +0.000 NA
ATOM     15  C   UNL     1      -0.402  10.831  22.373  0.00  0.00    +0.000 A 
ATOM     16  N   UNL     1      -1.618  11.297  22.752  0.00  0.00    +0.000 NA
ATOM     17  C   UNL     1      -4.036  13.626  21.633  0.00  0.00    +0.000 C 
ATOM     18  C   UNL     1      -4.751  14.875  22.183  0.00  0.00    +0.000 C 
BRANCH  15  19
ATOM     19  C   UNL     1       0.013   9.426  22.825  0.00  0.00    +0.000 C 
ATOM     20  F   UNL     1       1.249   9.044  22.380  0.00  0.00    +0.000 F 
ATOM     21  F   UNL     1       0.075   9.305  24.187  0.00  0.00    +0.000 F 
ATOM     22  F   UNL     1      -0.838   8.441  22.407  0.00  0.00    +0.000 F 
ENDBRANCH  15  19
ENDBRANCH   1  13
BRANCH   5  23
ATOM     23  C   UNL     1       1.993  12.781  18.509  0.00  0.00    +0.000 C 
ATOM     24  O   UNL     1       3.013  13.086  17.889  0.00  0.00    +0.000 OA
ATOM     25  N   UNL     1       1.533  11.475  18.527  0.00  0.00    +0.000 N 
ATOM     26  H   UNL     1       0.752  11.263  19.138  0.00  0.00    +0.000 HD
BRANCH  25  27
ATOM     27  C   UNL     1       2.327  10.411  17.936  0.00  0.00    +0.000 C 
BRANCH  27  28
ATOM     28  C   UNL     1       1.560   9.100  17.762  0.00  0.00    +0.000 C 
BRANCH  28  29
ATOM     29  C   UNL     1       2.401   7.895  18.125  0.00  0.00    +0.000 A 
ATOM     30  C   UNL     1       2.177   7.168  19.300  0.00  0.00    +0.000 A 
ATOM     31  C   UNL     1       2.984   6.079  19.635  0.00  0.00    +0.000 A 
ATOM     32  C   UNL     1       4.038   5.700  18.798  0.00  0.00    +0.000 A 
ATOM     33  C   UNL     1       4.270   6.409  17.615  0.00  0.00    +0.000 A 
ATOM     34  C   UNL     1       3.460   7.501  17.285  0.00  0.00    +0.000 A 
BRANCH  32  35
ATOM     35  C   UNL     1       4.878   4.592  19.148  0.00  0.00    +0.000 C 
ATOM     36  N   UNL     1       5.559   3.686  19.428  0.00  0.00    +0.000 NA
ENDBRANCH  32  35
ENDBRANCH  28  29
ENDBRANCH  27  28
ENDBRANCH  25  27
ENDBRANCH   5  23
TORSDOF 7
ENDMDL
MODEL 9
REMARK VINA RESULT:      -8.1      5.462      9.503
REMARK  Name = 
REMARK  8 active torsions:
REMARK  status: ('A' for Active; 'I' for Inactive)
REMARK    1  A    between atoms: C_1  and  N_2
REMARK    2  A    between atoms: C_8  and  N_9
REMARK    3  A    between atoms: C_13  and  C_14
REMARK    4  A    between atoms: N_16  and  C_17
REMARK    5  A    between atoms: C_17  and  C_18
REMARK    6  A    between atoms: C_18  and  C_19
REMARK    7  A    between atoms: C_22  and  C_23
REMARK    8  A    between atoms: C_28  and  C_29
REMARK                            x       y       z     vdW  Elec       q    Type
REMARK                         _______ _______ _______ _____ _____    ______ ____
ROOT
ATOM      1  N   UNL     1      -0.522  12.437  20.037  0.00  0.00    +0.000 N 
ATOM      2  C   UNL     1      -0.301  12.324  21.469  0.00  0.00    +0.000 C 
ATOM      3  C   UNL     1       0.611  13.502  21.761  0.00  0.00    +0.000 C 
ATOM      4  C   UNL     1       1.503  13.572  20.530  0.00  0.00    +0.000 C 
ATOM      5  C   UNL     1       0.642  13.032  19.362  0.00  0.00    +0.000 C 
ENDROOT
BRANCH   1  13
ATOM      6  C   UNL     1      -7.910  13.361  23.508  0.00  0.00    +0.000 C 
ATOM      7  N   UNL     1      -7.334  13.374  22.167  0.00  0.00    +0.000 NA
ATOM      8  C   UNL     1      -7.132  11.992  21.657  0.00  0.00    +0.000 C 
ATOM      9  C   UNL     1      -6.467  11.956  20.251  0.00  0.00    +0.000 C 
ATOM     10  N   UNL     1      -5.219  12.710  20.338  0.00  0.00    +0.000 N 
ATOM     11  C   UNL     1      -4.116  12.385  19.581  0.00  0.00    +0.000 A 
ATOM     12  C   UNL     1      -2.877  12.685  20.108  0.00  0.00    +0.000 A 
ATOM     13  C   UNL     1      -1.745  12.298  19.441  0.00  0.00    +0.000 A 
ATOM     14  N   UNL     1      -1.842  11.659  18.271  0.00  0.00    +0.000 NA
ATOM     15  C   UNL     1      -3.082  11.410  17.774  0.00  0.00    +0.000 A 
ATOM     16  N   UNL     1      -4.229  11.721  18.426  0.00  0.00    +0.000 NA
ATOM     17  C   UNL     1      -5.388  14.102  20.774  0.00  0.00    +0.000 C 
ATOM     18  C   UNL     1      -6.043  14.098  22.169  0.00  0.00    +0.000 C 
BRANCH  15  19
ATOM     19  C   UNL     1      -3.183  10.676  16.431  0.00  0.00    +0.000 C 
ATOM     20  F   UNL     1      -2.825   9.357  16.494  0.00  0.00    +0.000 F 
ATOM     21  F   UNL     1      -4.453  10.675  15.923  0.00  0.00    +0.000 F 
ATOM     22  F   UNL     1      -2.395  11.214  15.452  0.00  0.00    +0.000 F 
ENDBRANCH  15  19
ENDBRANCH   1  13
BRANCH   5  23
ATOM     23  C   UNL     1       1.442  11.967  18.571  0.00  0.00    +0.000 C 
ATOM     24  O   UNL     1       2.402  12.272  17.861  0.00  0.00    +0.000 OA
ATOM     25  N   UNL     1       0.989  10.660  18.634  0.00  0.00    +0.000 N 
ATOM     26  H   UNL     1       0.268  10.448  19.314  0.00  0.00    +0.000 HD
BRANCH  25  27
ATOM     27  C   UNL     1       1.731   9.596  17.978  0.00  0.00    +0.000 C 
BRANCH  27  28
ATOM     28  C   UNL     1       1.833   8.318  18.811  0.00  0.00    +0.000 C 
BRANCH  28  29
ATOM     29  C   UNL     1       2.744   7.293  18.171  0.00  0.00    +0.000 A 
ATOM     30  C   UNL     1       3.876   7.669  17.437  0.00  0.00    +0.000 A 
ATOM     31  C   UNL     1       4.686   6.711  16.827  0.00  0.00    +0.000 A 
ATOM     32  C   UNL     1       4.375   5.352  16.936  0.00  0.00    +0.000 A 
ATOM     33  C   UNL     1       3.254   4.957  17.674  0.00  0.00    +0.000 A 
ATOM     34  C   UNL     1       2.444   5.922  18.282  0.00  0.00    +0.000 A 
BRANCH  32  35
ATOM     35  C   UNL     1       5.197   4.367  16.296  0.00  0.00    +0.000 C 
ATOM     36  N   UNL     1       5.860   3.561  15.773  0.00  0.00    +0.000 NA
ENDBRANCH  32  35
ENDBRANCH  28  29
ENDBRANCH  27  28
ENDBRANCH  25  27
ENDBRANCH   5  23
TORSDOF 7
ENDMDL
