MODEL 1
REMARK VINA RESULT:      -8.3      0.000      0.000
REMARK  Name = 
REMARK  4 active torsions:
REMARK  status: ('A' for Active; 'I' for Inactive)
REMARK    1  A    between atoms: C_1  and  C_2
REMARK    2  A    between atoms: N_4  and  C_5
REMARK    3  A    between atoms: C_13  and  C_14
REMARK    4  A    between atoms: N_16  and  C_17
REMARK                            x       y       z     vdW  Elec       q    Type
REMARK                         _______ _______ _______ _____ _____    ______ ____
ROOT
ATOM      1  C   UNL     1       2.274   2.927  21.456  0.00  0.00    +0.000 C 
ATOM      2  C   UNL     1       2.780   3.812  20.383  0.00  0.00    +0.000 A 
ATOM      3  N   UNL     1       3.614   3.326  19.437  0.00  0.00    +0.000 NA
ATOM      4  N   UNL     1       4.013   4.432  18.718  0.00  0.00    +0.000 N 
ATOM      5  C   UNL     1       3.309   5.526  19.114  0.00  0.00    +0.000 A 
ATOM      6  S   UNL     1       3.102   7.101  18.634  0.00  0.00    +0.000 S 
ATOM      7  C   UNL     1       1.929   7.335  19.907  0.00  0.00    +0.000 A 
ATOM      8  C   UNL     1       1.749   6.173  20.669  0.00  0.00    +0.000 A 
ATOM      9  C   UNL     1       2.541   5.160  20.138  0.00  0.00    +0.000 A 
ENDROOT
BRANCH   4  10
ATOM     10  C   UNL     1       5.052   4.354  17.768  0.00  0.00    +0.000 A 
ATOM     11  C   UNL     1       6.356   4.684  18.147  0.00  0.00    +0.000 A 
ATOM     12  C   UNL     1       7.380   4.623  17.202  0.00  0.00    +0.000 A 
ATOM     13  C   UNL     1       7.093   4.281  15.878  0.00  0.00    +0.000 A 
ATOM     14  C   UNL     1       5.789   3.967  15.500  0.00  0.00    +0.000 A 
ATOM     15  C   UNL     1       4.767   3.982  16.447  0.00  0.00    +0.000 A 
ENDBRANCH   4  10
BRANCH   7  16
ATOM     16  C   UNL     1       1.272   8.628  20.087  0.00  0.00    +0.000 C 
ATOM     17  O   UNL     1       0.841   8.971  21.183  0.00  0.00    +0.000 OA
ATOM     18  N   UNL     1       1.153   9.378  18.926  0.00  0.00    +0.000 N 
ATOM     19  H   UNL     1       1.431   8.909  18.070  0.00  0.00    +0.000 HD
BRANCH  18  20
ATOM     20  C   UNL     1       0.633  10.680  18.789  0.00  0.00    +0.000 A 
ATOM     21  C   UNL     1      -0.732  10.952  18.682  0.00  0.00    +0.000 A 
ATOM     22  C   UNL     1      -1.189  12.265  18.542  0.00  0.00    +0.000 A 
ATOM     23  C   UNL     1      -0.284  13.320  18.501  0.00  0.00    +0.000 A 
ATOM     24  C   UNL     1       1.078  13.056  18.617  0.00  0.00    +0.000 A 
ATOM     25 BR   UNL     1       2.313  14.488  18.543  0.00  0.00    +0.000 Br
ATOM     26  C   UNL     1       1.541  11.748  18.776  0.00  0.00    +0.000 A 
ENDBRANCH  18  20
ENDBRANCH   7  16
TORSDOF 3
ENDMDL
MODEL 2
REMARK VINA RESULT:      -8.1      1.240      1.562
REMARK  Name = 
REMARK  4 active torsions:
REMARK  status: ('A' for Active; 'I' for Inactive)
REMARK    1  A    between atoms: C_1  and  C_2
REMARK    2  A    between atoms: N_4  and  C_5
REMARK    3  A    between atoms: C_13  and  C_14
REMARK    4  A    between atoms: N_16  and  C_17
REMARK                            x       y       z     vdW  Elec       q    Type
REMARK                         _______ _______ _______ _____ _____    ______ ____
ROOT
ATOM      1  C   UNL     1       2.234   2.771  21.356  0.00  0.00    +0.000 C 
ATOM      2  C   UNL     1       2.749   3.702  20.326  0.00  0.00    +0.000 A 
ATOM      3  N   UNL     1       3.574   3.253  19.355  0.00  0.00    +0.000 NA
ATOM      4  N   UNL     1       3.986   4.387  18.690  0.00  0.00    +0.000 N 
ATOM      5  C   UNL     1       3.297   5.470  19.142  0.00  0.00    +0.000 A 
ATOM      6  S   UNL     1       3.110   7.069  18.741  0.00  0.00    +0.000 S 
ATOM      7  C   UNL     1       1.944   7.256  20.029  0.00  0.00    +0.000 A 
ATOM      8  C   UNL     1       1.751   6.060  20.733  0.00  0.00    +0.000 A 
ATOM      9  C   UNL     1       2.527   5.064  20.150  0.00  0.00    +0.000 A 
ENDROOT
BRANCH   4  10
ATOM     10  C   UNL     1       5.020   4.344  17.733  0.00  0.00    +0.000 A 
ATOM     11  C   UNL     1       6.327   4.651  18.120  0.00  0.00    +0.000 A 
ATOM     12  C   UNL     1       7.347   4.624  17.169  0.00  0.00    +0.000 A 
ATOM     13  C   UNL     1       7.054   4.337  15.834  0.00  0.00    +0.000 A 
ATOM     14  C   UNL     1       5.747   4.045  15.448  0.00  0.00    +0.000 A 
ATOM     15  C   UNL     1       4.729   4.027  16.399  0.00  0.00    +0.000 A 
ENDBRANCH   4  10
BRANCH   7  16
ATOM     16  C   UNL     1       1.304   8.546  20.275  0.00  0.00    +0.000 C 
ATOM     17  O   UNL     1       0.963   8.877  21.406  0.00  0.00    +0.000 OA
ATOM     18  N   UNL     1       1.093   9.309  19.136  0.00  0.00    +0.000 N 
ATOM     19  H   UNL     1       1.301   8.849  18.255  0.00  0.00    +0.000 HD
BRANCH  18  20
ATOM     20  C   UNL     1       0.565  10.612  19.055  0.00  0.00    +0.000 A 
ATOM     21  C   UNL     1       1.348  11.741  18.810  0.00  0.00    +0.000 A 
ATOM     22  C   UNL     1       0.768  13.011  18.746  0.00  0.00    +0.000 A 
ATOM     23  C   UNL     1      -0.601  13.165  18.932  0.00  0.00    +0.000 A 
ATOM     24  C   UNL     1      -1.389  12.042  19.167  0.00  0.00    +0.000 A 
ATOM     25 BR   UNL     1      -3.249  12.250  19.439  0.00  0.00    +0.000 Br
ATOM     26  C   UNL     1      -0.819  10.767  19.214  0.00  0.00    +0.000 A 
ENDBRANCH  18  20
ENDBRANCH   7  16
TORSDOF 3
ENDMDL
MODEL 3
REMARK VINA RESULT:      -8.1      1.977      2.114
REMARK  Name = 
REMARK  4 active torsions:
REMARK  status: ('A' for Active; 'I' for Inactive)
REMARK    1  A    between atoms: C_1  and  C_2
REMARK    2  A    between atoms: N_4  and  C_5
REMARK    3  A    between atoms: C_13  and  C_14
REMARK    4  A    between atoms: N_16  and  C_17
REMARK                            x       y       z     vdW  Elec       q    Type
REMARK                         _______ _______ _______ _____ _____    ______ ____
ROOT
ATOM      1  C   UNL     1       2.556   2.958  21.311  0.00  0.00    +0.000 C 
ATOM      2  C   UNL     1       2.968   3.845  20.200  0.00  0.00    +0.000 A 
ATOM      3  N   UNL     1       3.756   3.374  19.209  0.00  0.00    +0.000 NA
ATOM      4  N   UNL     1       4.076   4.482  18.456  0.00  0.00    +0.000 N 
ATOM      5  C   UNL     1       3.365   5.560  18.885  0.00  0.00    +0.000 A 
ATOM      6  S   UNL     1       3.082   7.122  18.403  0.00  0.00    +0.000 S 
ATOM      7  C   UNL     1       1.983   7.336  19.745  0.00  0.00    +0.000 A 
ATOM      8  C   UNL     1       1.886   6.178  20.527  0.00  0.00    +0.000 A 
ATOM      9  C   UNL     1       2.673   5.183  19.958  0.00  0.00    +0.000 A 
ENDROOT
BRANCH   4  10
ATOM     10  C   UNL     1       5.056   4.425  17.444  0.00  0.00    +0.000 A 
ATOM     11  C   UNL     1       6.404   4.575  17.782  0.00  0.00    +0.000 A 
ATOM     12  C   UNL     1       7.371   4.535  16.778  0.00  0.00    +0.000 A 
ATOM     13  C   UNL     1       6.989   4.392  15.442  0.00  0.00    +0.000 A 
ATOM     14  C   UNL     1       5.643   4.257  15.106  0.00  0.00    +0.000 A 
ATOM     15  C   UNL     1       4.673   4.252  16.107  0.00  0.00    +0.000 A 
ENDBRANCH   4  10
BRANCH   7  16
ATOM     16  C   UNL     1       1.299   8.610  19.953  0.00  0.00    +0.000 C 
ATOM     17  O   UNL     1       1.054   9.357  19.011  0.00  0.00    +0.000 OA
ATOM     18  N   UNL     1       1.005   8.896  21.278  0.00  0.00    +0.000 N 
ATOM     19  H   UNL     1       1.390   8.251  21.961  0.00  0.00    +0.000 HD
BRANCH  18  20
ATOM     20  C   UNL     1       0.299  10.002  21.788  0.00  0.00    +0.000 A 
ATOM     21  C   UNL     1      -0.719   9.889  22.736  0.00  0.00    +0.000 A 
ATOM     22  C   UNL     1      -1.389  11.024  23.201  0.00  0.00    +0.000 A 
ATOM     23  C   UNL     1      -1.053  12.283  22.717  0.00  0.00    +0.000 A 
ATOM     24  C   UNL     1      -0.032  12.403  21.778  0.00  0.00    +0.000 A 
ATOM     25 BR   UNL     1       0.416  14.113  21.104  0.00  0.00    +0.000 Br
ATOM     26  C   UNL     1       0.655  11.275  21.322  0.00  0.00    +0.000 A 
ENDBRANCH  18  20
ENDBRANCH   7  16
TORSDOF 3
ENDMDL
MODEL 4
REMARK VINA RESULT:      -8.0      1.391      1.947
REMARK  Name = 
REMARK  4 active torsions:
REMARK  status: ('A' for Active; 'I' for Inactive)
REMARK    1  A    between atoms: C_1  and  C_2
REMARK    2  A    between atoms: N_4  and  C_5
REMARK    3  A    between atoms: C_13  and  C_14
REMARK    4  A    between atoms: N_16  and  C_17
REMARK                            x       y       z     vdW  Elec       q    Type
REMARK                         _______ _______ _______ _____ _____    ______ ____
ROOT
ATOM      1  C   UNL     1       2.743   2.794  21.206  0.00  0.00    +0.000 C 
ATOM      2  C   UNL     1       3.115   3.735  20.125  0.00  0.00    +0.000 A 
ATOM      3  N   UNL     1       3.904   3.323  19.108  0.00  0.00    +0.000 NA
ATOM      4  N   UNL     1       4.184   4.469  18.394  0.00  0.00    +0.000 N 
ATOM      5  C   UNL     1       3.448   5.508  18.872  0.00  0.00    +0.000 A 
ATOM      6  S   UNL     1       3.116   7.079  18.454  0.00  0.00    +0.000 S 
ATOM      7  C   UNL     1       2.029   7.211  19.816  0.00  0.00    +0.000 A 
ATOM      8  C   UNL     1       1.973   6.022  20.554  0.00  0.00    +0.000 A 
ATOM      9  C   UNL     1       2.781   5.071  19.938  0.00  0.00    +0.000 A 
ENDROOT
BRANCH   4  10
ATOM     10  C   UNL     1       5.152   4.478  17.370  0.00  0.00    +0.000 A 
ATOM     11  C   UNL     1       4.762   4.221  16.053  0.00  0.00    +0.000 A 
ATOM     12  C   UNL     1       5.723   4.213  15.042  0.00  0.00    +0.000 A 
ATOM     13  C   UNL     1       7.070   4.415  15.354  0.00  0.00    +0.000 A 
ATOM     14  C   UNL     1       7.458   4.657  16.670  0.00  0.00    +0.000 A 
ATOM     15  C   UNL     1       6.499   4.710  17.680  0.00  0.00    +0.000 A 
ENDBRANCH   4  10
BRANCH   7  16
ATOM     16  C   UNL     1       1.312   8.457  20.080  0.00  0.00    +0.000 C 
ATOM     17  O   UNL     1       1.027   8.791  21.225  0.00  0.00    +0.000 OA
ATOM     18  N   UNL     1       0.963   9.172  18.943  0.00  0.00    +0.000 N 
ATOM     19  H   UNL     1       1.143   8.705  18.060  0.00  0.00    +0.000 HD
BRANCH  18  20
ATOM     20  C   UNL     1       0.334  10.430  18.873  0.00  0.00    +0.000 A 
ATOM     21  C   UNL     1       1.028  11.638  18.955  0.00  0.00    +0.000 A 
ATOM     22  C   UNL     1       0.347  12.857  18.884  0.00  0.00    +0.000 A 
ATOM     23  C   UNL     1      -1.035  12.879  18.738  0.00  0.00    +0.000 A 
ATOM     24  C   UNL     1      -1.732  11.677  18.647  0.00  0.00    +0.000 A 
ATOM     25 BR   UNL     1      -3.614  11.704  18.466  0.00  0.00    +0.000 Br
ATOM     26  C   UNL     1      -1.056  10.455  18.697  0.00  0.00    +0.000 A 
ENDBRANCH  18  20
ENDBRANCH   7  16
TORSDOF 3
ENDMDL
MODEL 5
REMARK VINA RESULT:      -8.0      1.948      2.257
REMARK  Name = 
REMARK  4 active torsions:
REMARK  status: ('A' for Active; 'I' for Inactive)
REMARK    1  A    between atoms: C_1  and  C_2
REMARK    2  A    between atoms: N_4  and  C_5
REMARK    3  A    between atoms: C_13  and  C_14
REMARK    4  A    between atoms: N_16  and  C_17
REMARK                            x       y       z     vdW  Elec       q    Type
REMARK                         _______ _______ _______ _____ _____    ______ ____
ROOT
ATOM      1  C   UNL     1       2.341   3.120  21.471  0.00  0.00    +0.000 C 
ATOM      2  C   UNL     1       2.820   3.989  20.373  0.00  0.00    +0.000 A 
ATOM      3  N   UNL     1       3.653   3.496  19.430  0.00  0.00    +0.000 NA
ATOM      4  N   UNL     1       4.024   4.592  18.681  0.00  0.00    +0.000 N 
ATOM      5  C   UNL     1       3.304   5.682  19.060  0.00  0.00    +0.000 A 
ATOM      6  S   UNL     1       3.065   7.242  18.546  0.00  0.00    +0.000 S 
ATOM      7  C   UNL     1       1.901   7.484  19.826  0.00  0.00    +0.000 A 
ATOM      8  C   UNL     1       1.750   6.337  20.616  0.00  0.00    +0.000 A 
ATOM      9  C   UNL     1       2.554   5.326  20.100  0.00  0.00    +0.000 A 
ENDROOT
BRANCH   4  10
ATOM     10  C   UNL     1       5.054   4.511  17.722  0.00  0.00    +0.000 A 
ATOM     11  C   UNL     1       4.734   4.224  16.392  0.00  0.00    +0.000 A 
ATOM     12  C   UNL     1       5.755   4.129  15.447  0.00  0.00    +0.000 A 
ATOM     13  C   UNL     1       7.089   4.272  15.839  0.00  0.00    +0.000 A 
ATOM     14  C   UNL     1       7.406   4.544  17.168  0.00  0.00    +0.000 A 
ATOM     15  C   UNL     1       6.390   4.685  18.111  0.00  0.00    +0.000 A 
ENDBRANCH   4  10
BRANCH   7  16
ATOM     16  C   UNL     1       1.221   8.769  19.983  0.00  0.00    +0.000 C 
ATOM     17  O   UNL     1       0.941   9.459  19.009  0.00  0.00    +0.000 OA
ATOM     18  N   UNL     1       0.974   9.131  21.300  0.00  0.00    +0.000 N 
ATOM     19  H   UNL     1       1.385   8.527  22.005  0.00  0.00    +0.000 HD
BRANCH  18  20
ATOM     20  C   UNL     1       0.284  10.265  21.768  0.00  0.00    +0.000 A 
ATOM     21  C   UNL     1      -0.747  10.200  22.707  0.00  0.00    +0.000 A 
ATOM     22  C   UNL     1      -1.400  11.360  23.131  0.00  0.00    +0.000 A 
ATOM     23  C   UNL     1      -1.033  12.598  22.615  0.00  0.00    +0.000 A 
ATOM     24  C   UNL     1       0.001  12.671  21.685  0.00  0.00    +0.000 A 
ATOM     25 BR   UNL     1       0.490  14.351  20.967  0.00  0.00    +0.000 Br
ATOM     26  C   UNL     1       0.671  11.517  21.271  0.00  0.00    +0.000 A 
ENDBRANCH  18  20
ENDBRANCH   7  16
TORSDOF 3
ENDMDL
MODEL 6
REMARK VINA RESULT:      -7.9      1.806      1.946
REMARK  Name = 
REMARK  4 active torsions:
REMARK  status: ('A' for Active; 'I' for Inactive)
REMARK    1  A    between atoms: C_1  and  C_2
REMARK    2  A    between atoms: N_4  and  C_5
REMARK    3  A    between atoms: C_13  and  C_14
REMARK    4  A    between atoms: N_16  and  C_17
REMARK                            x       y       z     vdW  Elec       q    Type
REMARK                         _______ _______ _______ _____ _____    ______ ____
ROOT
ATOM      1  C   UNL     1       2.178   3.937  21.447  0.00  0.00    +0.000 C 
ATOM      2  C   UNL     1       2.719   4.622  20.252  0.00  0.00    +0.000 A 
ATOM      3  N   UNL     1       3.557   3.969  19.415  0.00  0.00    +0.000 NA
ATOM      4  N   UNL     1       3.991   4.932  18.530  0.00  0.00    +0.000 N 
ATOM      5  C   UNL     1       3.305   6.090  18.727  0.00  0.00    +0.000 A 
ATOM      6  S   UNL     1       3.142   7.567  17.988  0.00  0.00    +0.000 S 
ATOM      7  C   UNL     1       1.956   8.033  19.183  0.00  0.00    +0.000 A 
ATOM      8  C   UNL     1       1.738   7.017  20.124  0.00  0.00    +0.000 A 
ATOM      9  C   UNL     1       2.514   5.915  19.783  0.00  0.00    +0.000 A 
ENDROOT
BRANCH   4  10
ATOM     10  C   UNL     1       5.042   4.678  17.625  0.00  0.00    +0.000 A 
ATOM     11  C   UNL     1       6.365   4.847  18.043  0.00  0.00    +0.000 A 
ATOM     12  C   UNL     1       7.403   4.611  17.142  0.00  0.00    +0.000 A 
ATOM     13  C   UNL     1       7.118   4.254  15.822  0.00  0.00    +0.000 A 
ATOM     14  C   UNL     1       5.798   4.100  15.404  0.00  0.00    +0.000 A 
ATOM     15  C   UNL     1       4.755   4.291  16.309  0.00  0.00    +0.000 A 
ENDBRANCH   4  10
BRANCH   7  16
ATOM     16  C   UNL     1       1.324   9.350  19.134  0.00  0.00    +0.000 C 
ATOM     17  O   UNL     1       1.765  10.235  18.409  0.00  0.00    +0.000 OA
ATOM     18  N   UNL     1       0.244   9.502  19.991  0.00  0.00    +0.000 N 
ATOM     19  H   UNL     1       0.079   8.730  20.630  0.00  0.00    +0.000 HD
BRANCH  18  20
ATOM     20  C   UNL     1      -0.604  10.619  20.123  0.00  0.00    +0.000 A 
ATOM     21  C   UNL     1      -1.481  11.036  19.120  0.00  0.00    +0.000 A 
ATOM     22  C   UNL     1      -2.295  12.156  19.306  0.00  0.00    +0.000 A 
ATOM     23  C   UNL     1      -2.236  12.875  20.496  0.00  0.00    +0.000 A 
ATOM     24  C   UNL     1      -1.370  12.458  21.503  0.00  0.00    +0.000 A 
ATOM     25 BR   UNL     1      -1.274  13.444  23.114  0.00  0.00    +0.000 Br
ATOM     26  C   UNL     1      -0.567  11.328  21.331  0.00  0.00    +0.000 A 
ENDBRANCH  18  20
ENDBRANCH   7  16
TORSDOF 3
ENDMDL
MODEL 7
REMARK VINA RESULT:      -7.9      2.217      2.385
REMARK  Name = 
REMARK  4 active torsions:
REMARK  status: ('A' for Active; 'I' for Inactive)
REMARK    1  A    between atoms: C_1  and  C_2
REMARK    2  A    between atoms: N_4  and  C_5
REMARK    3  A    between atoms: C_13  and  C_14
REMARK    4  A    between atoms: N_16  and  C_17
REMARK                            x       y       z     vdW  Elec       q    Type
REMARK                         _______ _______ _______ _____ _____    ______ ____
ROOT
ATOM      1  C   UNL     1       2.106   3.635  21.590  0.00  0.00    +0.000 C 
ATOM      2  C   UNL     1       2.633   4.388  20.430  0.00  0.00    +0.000 A 
ATOM      3  N   UNL     1       3.472   3.788  19.555  0.00  0.00    +0.000 NA
ATOM      4  N   UNL     1       3.892   4.801  18.720  0.00  0.00    +0.000 N 
ATOM      5  C   UNL     1       3.196   5.941  18.981  0.00  0.00    +0.000 A 
ATOM      6  S   UNL     1       3.015   7.453  18.324  0.00  0.00    +0.000 S 
ATOM      7  C   UNL     1       1.831   7.843  19.548  0.00  0.00    +0.000 A 
ATOM      8  C   UNL     1       1.629   6.777  20.434  0.00  0.00    +0.000 A 
ATOM      9  C   UNL     1       2.414   5.702  20.031  0.00  0.00    +0.000 A 
ENDROOT
BRANCH   4  10
ATOM     10  C   UNL     1       4.939   4.605  17.797  0.00  0.00    +0.000 A 
ATOM     11  C   UNL     1       6.259   4.836  18.195  0.00  0.00    +0.000 A 
ATOM     12  C   UNL     1       7.293   4.657  17.277  0.00  0.00    +0.000 A 
ATOM     13  C   UNL     1       7.005   4.297  15.958  0.00  0.00    +0.000 A 
ATOM     14  C   UNL     1       5.687   4.082  15.560  0.00  0.00    +0.000 A 
ATOM     15  C   UNL     1       4.651   4.215  16.482  0.00  0.00    +0.000 A 
ENDBRANCH   4  10
BRANCH   7  16
ATOM     16  C   UNL     1       1.188   9.155  19.573  0.00  0.00    +0.000 C 
ATOM     17  O   UNL     1       0.704   9.641  18.556  0.00  0.00    +0.000 OA
ATOM     18  N   UNL     1       1.217   9.787  20.808  0.00  0.00    +0.000 N 
ATOM     19  H   UNL     1       1.770   9.326  21.523  0.00  0.00    +0.000 HD
BRANCH  18  20
ATOM     20  C   UNL     1       0.628  11.015  21.163  0.00  0.00    +0.000 A 
ATOM     21  C   UNL     1       1.165  12.253  20.806  0.00  0.00    +0.000 A 
ATOM     22  C   UNL     1       0.538  13.441  21.193  0.00  0.00    +0.000 A 
ATOM     23  C   UNL     1      -0.630  13.402  21.947  0.00  0.00    +0.000 A 
ATOM     24  C   UNL     1      -1.176  12.171  22.298  0.00  0.00    +0.000 A 
ATOM     25 BR   UNL     1      -2.754  12.115  23.339  0.00  0.00    +0.000 Br
ATOM     26  C   UNL     1      -0.565  10.979  21.899  0.00  0.00    +0.000 A 
ENDBRANCH  18  20
ENDBRANCH   7  16
TORSDOF 3
ENDMDL
MODEL 8
REMARK VINA RESULT:      -7.8      4.011      8.167
REMARK  Name = 
REMARK  4 active torsions:
REMARK  status: ('A' for Active; 'I' for Inactive)
REMARK    1  A    between atoms: C_1  and  C_2
REMARK    2  A    between atoms: N_4  and  C_5
REMARK    3  A    between atoms: C_13  and  C_14
REMARK    4  A    between atoms: N_16  and  C_17
REMARK                            x       y       z     vdW  Elec       q    Type
REMARK                         _______ _______ _______ _____ _____    ______ ____
ROOT
ATOM      1  C   UNL     1       2.002   3.416  21.191  0.00  0.00    +0.000 C 
ATOM      2  C   UNL     1       2.360   4.670  20.490  0.00  0.00    +0.000 A 
ATOM      3  N   UNL     1       1.828   5.847  20.888  0.00  0.00    +0.000 NA
ATOM      4  N   UNL     1       2.231   6.756  19.934  0.00  0.00    +0.000 N 
ATOM      5  C   UNL     1       3.117   6.176  19.080  0.00  0.00    +0.000 A 
ATOM      6  S   UNL     1       4.124   6.638  17.845  0.00  0.00    +0.000 S 
ATOM      7  C   UNL     1       4.706   4.996  17.706  0.00  0.00    +0.000 A 
ATOM      8  C   UNL     1       4.083   4.144  18.627  0.00  0.00    +0.000 A 
ATOM      9  C   UNL     1       3.210   4.889  19.412  0.00  0.00    +0.000 A 
ENDROOT
BRANCH   4  10
ATOM     10  C   UNL     1       1.702   8.062  19.894  0.00  0.00    +0.000 A 
ATOM     11  C   UNL     1       1.144   8.613  21.050  0.00  0.00    +0.000 A 
ATOM     12  C   UNL     1       0.606   9.899  21.006  0.00  0.00    +0.000 A 
ATOM     13  C   UNL     1       0.584  10.609  19.803  0.00  0.00    +0.000 A 
ATOM     14  C   UNL     1       1.129  10.051  18.648  0.00  0.00    +0.000 A 
ATOM     15  C   UNL     1       1.708   8.785  18.693  0.00  0.00    +0.000 A 
ENDBRANCH   4  10
BRANCH   7  16
ATOM     16  C   UNL     1       5.718   4.645  16.712  0.00  0.00    +0.000 C 
ATOM     17  O   UNL     1       6.790   4.153  17.048  0.00  0.00    +0.000 OA
ATOM     18  N   UNL     1       5.370   4.954  15.404  0.00  0.00    +0.000 N 
ATOM     19  H   UNL     1       4.511   5.483  15.293  0.00  0.00    +0.000 HD
BRANCH  18  20
ATOM     20  C   UNL     1       6.097   4.680  14.230  0.00  0.00    +0.000 A 
ATOM     21  C   UNL     1       7.197   5.434  13.817  0.00  0.00    +0.000 A 
ATOM     22  C   UNL     1       7.876   5.116  12.637  0.00  0.00    +0.000 A 
ATOM     23  C   UNL     1       7.458   4.044  11.856  0.00  0.00    +0.000 A 
ATOM     24  C   UNL     1       6.368   3.283  12.268  0.00  0.00    +0.000 A 
ATOM     25 BR   UNL     1       5.787   1.836  11.197  0.00  0.00    +0.000 Br
ATOM     26  C   UNL     1       5.696   3.583  13.455  0.00  0.00    +0.000 A 
ENDBRANCH  18  20
ENDBRANCH   7  16
TORSDOF 3
ENDMDL
MODEL 9
REMARK VINA RESULT:      -7.7      1.610      1.959
REMARK  Name = 
REMARK  4 active torsions:
REMARK  status: ('A' for Active; 'I' for Inactive)
REMARK    1  A    between atoms: C_1  and  C_2
REMARK    2  A    between atoms: N_4  and  C_5
REMARK    3  A    between atoms: C_13  and  C_14
REMARK    4  A    between atoms: N_16  and  C_17
REMARK                            x       y       z     vdW  Elec       q    Type
REMARK                         _______ _______ _______ _____ _____    ______ ____
ROOT
ATOM      1  C   UNL     1       3.585   2.694  20.493  0.00  0.00    +0.000 C 
ATOM      2  C   UNL     1       3.779   3.658  19.387  0.00  0.00    +0.000 A 
ATOM      3  N   UNL     1       4.479   3.300  18.288  0.00  0.00    +0.000 NA
ATOM      4  N   UNL     1       4.608   4.461  17.558  0.00  0.00    +0.000 N 
ATOM      5  C   UNL     1       3.863   5.451  18.120  0.00  0.00    +0.000 A 
ATOM      6  S   UNL     1       3.389   6.999  17.753  0.00  0.00    +0.000 S 
ATOM      7  C   UNL     1       2.448   7.059  19.223  0.00  0.00    +0.000 A 
ATOM      8  C   UNL     1       2.547   5.867  19.954  0.00  0.00    +0.000 A 
ATOM      9  C   UNL     1       3.343   4.971  19.247  0.00  0.00    +0.000 A 
ENDROOT
BRANCH   4  10
ATOM     10  C   UNL     1       5.459   4.534  16.436  0.00  0.00    +0.000 A 
ATOM     11  C   UNL     1       6.735   5.085  16.575  0.00  0.00    +0.000 A 
ATOM     12  C   UNL     1       7.569   5.171  15.460  0.00  0.00    +0.000 A 
ATOM     13  C   UNL     1       7.113   4.752  14.209  0.00  0.00    +0.000 A 
ATOM     14  C   UNL     1       5.834   4.215  14.070  0.00  0.00    +0.000 A 
ATOM     15  C   UNL     1       5.010   4.085  15.186  0.00  0.00    +0.000 A 
ENDBRANCH   4  10
BRANCH   7  16
ATOM     16  C   UNL     1       1.686   8.256  19.573  0.00  0.00    +0.000 C 
ATOM     17  O   UNL     1       1.357   8.479  20.733  0.00  0.00    +0.000 OA
ATOM     18  N   UNL     1       1.351   9.060  18.493  0.00  0.00    +0.000 N 
ATOM     19  H   UNL     1       1.572   8.679  17.578  0.00  0.00    +0.000 HD
BRANCH  18  20
ATOM     20  C   UNL     1       0.686  10.301  18.514  0.00  0.00    +0.000 A 
ATOM     21  C   UNL     1       1.333  11.511  18.772  0.00  0.00    +0.000 A 
ATOM     22  C   UNL     1       0.619  12.712  18.784  0.00  0.00    +0.000 A 
ATOM     23  C   UNL     1      -0.751  12.714  18.545  0.00  0.00    +0.000 A 
ATOM     24  C   UNL     1      -1.400  11.512  18.277  0.00  0.00    +0.000 A 
ATOM     25 BR   UNL     1      -3.266  11.510  17.969  0.00  0.00    +0.000 Br
ATOM     26  C   UNL     1      -0.689  10.310  18.244  0.00  0.00    +0.000 A 
ENDBRANCH  18  20
ENDBRANCH   7  16
TORSDOF 3
ENDMDL
