MODEL 1
REMARK VINA RESULT:      -6.0      0.000      0.000
REMARK  Name = 
REMARK  12 active torsions:
REMARK  status: ('A' for Active; 'I' for Inactive)
REMARK    1  A    between atoms: C_2  and  C_3
REMARK    2  A    between atoms: C_3  and  N_4
REMARK    3  A    between atoms: C_5  and  C_7
REMARK    4  A    between atoms: C_7  and  N_8
REMARK    5  A    between atoms: N_8  and  C_9
REMARK    6  A    between atoms: C_9  and  C_10
REMARK    7  A    between atoms: C_10  and  C_11
REMARK    8  A    between atoms: C_10  and  C_12
REMARK    9  A    between atoms: C_10  and  C_13
REMARK   10  A    between atoms: C_14  and  C_16
REMARK   11  A    between atoms: C_27  and  O_28
REMARK   12  A    between atoms: O_28  and  C_29
REMARK                            x       y       z     vdW  Elec       q    Type
REMARK                         _______ _______ _______ _____ _____    ______ ____
ROOT
ATOM      1  C   UNL     1      -0.330  13.162  20.395  0.00  0.00    +0.000 C 
ATOM      2  C   UNL     1      -0.808  14.169  19.291  0.00  0.00    +0.000 C 
ATOM      3  C   UNL     1      -1.236  15.524  19.865  0.00  0.00    +0.000 C 
ATOM      4  C   UNL     1      -2.385  15.379  20.852  0.00  0.00    +0.000 C 
ATOM      5  C   UNL     1      -2.265  14.205  21.791  0.00  0.00    +0.000 A 
ATOM      6  C   UNL     1      -3.131  14.134  22.901  0.00  0.00    +0.000 A 
ATOM      7  C   UNL     1      -3.197  12.996  23.710  0.00  0.00    +0.000 A 
ATOM      8  C   UNL     1      -2.455  11.879  23.371  0.00  0.00    +0.000 A 
ATOM      9  C   UNL     1      -1.617  11.930  22.269  0.00  0.00    +0.000 A 
ATOM     10  C   UNL     1      -1.433  13.110  21.509  0.00  0.00    +0.000 A 
ENDROOT
BRANCH   1  12
ATOM     11  N   UNL     1       2.130  14.277  20.424  0.00  0.00    +0.000 N 
ATOM     12  C   UNL     1       0.979  13.901  21.100  0.00  0.00    +0.000 C 
ATOM     13  O   UNL     1       1.031  14.179  22.302  0.00  0.00    +0.000 OA
ATOM     14  H   UNL     1       2.867  14.574  21.057  0.00  0.00    +0.000 HD
BRANCH  11  15
ATOM     15  C   UNL     1       2.515  13.894  19.103  0.00  0.00    +0.000 C 
BRANCH  15  17
ATOM     16  C   UNL     1       3.466  15.576  17.487  0.00  0.00    +0.000 C 
ATOM     17  C   UNL     1       3.600  14.695  18.486  0.00  0.00    +0.000 C 
ENDBRANCH  15  17
ENDBRANCH  11  15
ENDBRANCH   1  12
BRANCH   1  18
ATOM     18  N   UNL     1      -0.202  11.740  19.745  0.00  0.00    +0.000 N 
ATOM     19  C   UNL     1       0.930  10.934  20.207  0.00  0.00    +0.000 C 
ATOM     20  O   UNL     1       1.610  11.291  21.175  0.00  0.00    +0.000 OA
BRANCH  19  21
ATOM     21  C   UNL     1       1.383   9.621  19.592  0.00  0.00    +0.000 A 
ATOM     22  C   UNL     1       1.536   8.363  20.184  0.00  0.00    +0.000 A 
ATOM     23  C   UNL     1       2.132   7.304  19.485  0.00  0.00    +0.000 A 
ATOM     24  C   UNL     1       2.468   7.489  18.160  0.00  0.00    +0.000 A 
ATOM     25  N   UNL     1       2.217   8.631  17.500  0.00  0.00    +0.000 NA
ATOM     26  C   UNL     1       1.685   9.655  18.225  0.00  0.00    +0.000 A 
ENDBRANCH  19  21
BRANCH  18  27
ATOM     27  C   UNL     1      -1.329  10.915  19.309  0.00  0.00    +0.000 C 
BRANCH  27  28
ATOM     28  C   UNL     1      -2.429  11.136  18.254  0.00  0.00    +0.000 C 
ATOM     29  C   UNL     1      -1.852  11.744  16.972  0.00  0.00    +0.000 C 
ATOM     30  C   UNL     1      -2.944   9.712  17.873  0.00  0.00    +0.000 C 
ATOM     31  C   UNL     1      -3.662  11.869  18.773  0.00  0.00    +0.000 C 
ENDBRANCH  27  28
ENDBRANCH  18  27
ENDBRANCH   1  18
BRANCH   7  32
ATOM     32  O   UNL     1      -4.039  13.066  24.790  0.00  0.00    +0.000 OA
ATOM     33  C   UNL     1      -5.226  12.280  24.699  0.00  0.00    +0.000 C 
ENDBRANCH   7  32
TORSDOF 8
ENDMDL
MODEL 2
REMARK VINA RESULT:      -5.5      2.294      6.405
REMARK  Name = 
REMARK  12 active torsions:
REMARK  status: ('A' for Active; 'I' for Inactive)
REMARK    1  A    between atoms: C_2  and  C_3
REMARK    2  A    between atoms: C_3  and  N_4
REMARK    3  A    between atoms: C_5  and  C_7
REMARK    4  A    between atoms: C_7  and  N_8
REMARK    5  A    between atoms: N_8  and  C_9
REMARK    6  A    between atoms: C_9  and  C_10
REMARK    7  A    between atoms: C_10  and  C_11
REMARK    8  A    between atoms: C_10  and  C_12
REMARK    9  A    between atoms: C_10  and  C_13
REMARK   10  A    between atoms: C_14  and  C_16
REMARK   11  A    between atoms: C_27  and  O_28
REMARK   12  A    between atoms: O_28  and  C_29
REMARK                            x       y       z     vdW  Elec       q    Type
REMARK                         _______ _______ _______ _____ _____    ______ ____
ROOT
ATOM      1  C   UNL     1      -0.111  11.846  19.635  0.00  0.00    +0.000 C 
ATOM      2  C   UNL     1       0.324  10.633  18.739  0.00  0.00    +0.000 C 
ATOM      3  C   UNL     1       1.837  10.582  18.498  0.00  0.00    +0.000 C 
ATOM      4  C   UNL     1       2.339  11.841  17.807  0.00  0.00    +0.000 C 
ATOM      5  C   UNL     1       1.733  13.125  18.316  0.00  0.00    +0.000 A 
ATOM      6  C   UNL     1       2.316  14.349  17.929  0.00  0.00    +0.000 A 
ATOM      7  C   UNL     1       1.708  15.575  18.216  0.00  0.00    +0.000 A 
ATOM      8  C   UNL     1       0.467  15.591  18.826  0.00  0.00    +0.000 A 
ATOM      9  C   UNL     1      -0.125  14.392  19.191  0.00  0.00    +0.000 A 
ATOM     10  C   UNL     1       0.524  13.145  19.029  0.00  0.00    +0.000 A 
ENDROOT
BRANCH   1  12
ATOM     11  N   UNL     1       0.461  10.514  21.915  0.00  0.00    +0.000 N 
ATOM     12  C   UNL     1       0.669  11.602  21.080  0.00  0.00    +0.000 C 
ATOM     13  O   UNL     1       1.513  12.383  21.533  0.00  0.00    +0.000 OA
ATOM     14  H   UNL     1       0.921  10.626  22.814  0.00  0.00    +0.000 HD
BRANCH  11  15
ATOM     15  C   UNL     1      -0.599   9.561  21.835  0.00  0.00    +0.000 C 
BRANCH  15  17
ATOM     16  C   UNL     1       1.032   7.763  21.164  0.00  0.00    +0.000 C 
ATOM     17  C   UNL     1      -0.203   8.179  21.472  0.00  0.00    +0.000 C 
ENDBRANCH  15  17
ENDBRANCH  11  15
ENDBRANCH   1  12
BRANCH   1  18
ATOM     18  N   UNL     1      -1.673  11.971  19.573  0.00  0.00    +0.000 N 
ATOM     19  C   UNL     1      -2.299  12.644  20.713  0.00  0.00    +0.000 C 
ATOM     20  O   UNL     1      -1.615  13.229  21.558  0.00  0.00    +0.000 OA
BRANCH  19  21
ATOM     21  C   UNL     1      -3.793  12.711  20.983  0.00  0.00    +0.000 A 
ATOM     22  C   UNL     1      -4.852  12.931  20.097  0.00  0.00    +0.000 A 
ATOM     23  C   UNL     1      -6.158  13.127  20.567  0.00  0.00    +0.000 A 
ATOM     24  C   UNL     1      -6.405  12.990  21.917  0.00  0.00    +0.000 A 
ATOM     25  N   UNL     1      -5.453  12.641  22.798  0.00  0.00    +0.000 NA
ATOM     26  C   UNL     1      -4.186  12.511  22.313  0.00  0.00    +0.000 A 
ENDBRANCH  19  21
BRANCH  18  27
ATOM     27  C   UNL     1      -2.452  12.124  18.344  0.00  0.00    +0.000 C 
BRANCH  27  28
ATOM     28  C   UNL     1      -3.147  11.103  17.423  0.00  0.00    +0.000 C 
ATOM     29  C   UNL     1      -4.513  11.618  16.958  0.00  0.00    +0.000 C 
ATOM     30  C   UNL     1      -2.255  11.007  16.146  0.00  0.00    +0.000 C 
ATOM     31  C   UNL     1      -3.189   9.682  17.975  0.00  0.00    +0.000 C 
ENDBRANCH  27  28
ENDBRANCH  18  27
ENDBRANCH   1  18
BRANCH   7  32
ATOM     32  O   UNL     1       2.396  16.699  17.834  0.00  0.00    +0.000 OA
ATOM     33  C   UNL     1       3.808  16.652  18.026  0.00  0.00    +0.000 C 
ENDBRANCH   7  32
TORSDOF 8
ENDMDL
MODEL 3
REMARK VINA RESULT:      -5.5      2.512      6.294
REMARK  Name = 
REMARK  12 active torsions:
REMARK  status: ('A' for Active; 'I' for Inactive)
REMARK    1  A    between atoms: C_2  and  C_3
REMARK    2  A    between atoms: C_3  and  N_4
REMARK    3  A    between atoms: C_5  and  C_7
REMARK    4  A    between atoms: C_7  and  N_8
REMARK    5  A    between atoms: N_8  and  C_9
REMARK    6  A    between atoms: C_9  and  C_10
REMARK    7  A    between atoms: C_10  and  C_11
REMARK    8  A    between atoms: C_10  and  C_12
REMARK    9  A    between atoms: C_10  and  C_13
REMARK   10  A    between atoms: C_14  and  C_16
REMARK   11  A    between atoms: C_27  and  O_28
REMARK   12  A    between atoms: O_28  and  C_29
REMARK                            x       y       z     vdW  Elec       q    Type
REMARK                         _______ _______ _______ _____ _____    ______ ____
ROOT
ATOM      1  C   UNL     1      -0.460  12.116  19.653  0.00  0.00    +0.000 C 
ATOM      2  C   UNL     1       0.185  10.930  18.852  0.00  0.00    +0.000 C 
ATOM      3  C   UNL     1       1.717  10.980  18.844  0.00  0.00    +0.000 C 
ATOM      4  C   UNL     1       2.235  12.266  18.217  0.00  0.00    +0.000 C 
ATOM      5  C   UNL     1       1.476  13.509  18.608  0.00  0.00    +0.000 A 
ATOM      6  C   UNL     1       2.029  14.767  18.294  0.00  0.00    +0.000 A 
ATOM      7  C   UNL     1       1.306  15.951  18.467  0.00  0.00    +0.000 A 
ATOM      8  C   UNL     1      -0.012  15.887  18.882  0.00  0.00    +0.000 A 
ATOM      9  C   UNL     1      -0.572  14.654  19.172  0.00  0.00    +0.000 A 
ATOM     10  C   UNL     1       0.174  13.451  19.129  0.00  0.00    +0.000 A 
ENDROOT
BRANCH   1  12
ATOM     11  N   UNL     1      -0.000  10.769  21.949  0.00  0.00    +0.000 N 
ATOM     12  C   UNL     1       0.106  11.933  21.203  0.00  0.00    +0.000 C 
ATOM     13  O   UNL     1       0.677  12.835  21.825  0.00  0.00    +0.000 OA
ATOM     14  H   UNL     1       0.271  10.908  22.918  0.00  0.00    +0.000 HD
BRANCH  11  15
ATOM     15  C   UNL     1      -0.806   9.628  21.650  0.00  0.00    +0.000 C 
BRANCH  15  17
ATOM     16  C   UNL     1       1.185   8.155  21.189  0.00  0.00    +0.000 C 
ATOM     17  C   UNL     1      -0.088   8.333  21.563  0.00  0.00    +0.000 C 
ENDBRANCH  15  17
ENDBRANCH  11  15
ENDBRANCH   1  12
BRANCH   1  18
ATOM     18  N   UNL     1      -1.999  12.136  19.352  0.00  0.00    +0.000 N 
ATOM     19  C   UNL     1      -2.827  12.823  20.344  0.00  0.00    +0.000 C 
ATOM     20  O   UNL     1      -2.314  13.495  21.245  0.00  0.00    +0.000 OA
BRANCH  19  21
ATOM     21  C   UNL     1      -4.346  12.806  20.386  0.00  0.00    +0.000 A 
ATOM     22  C   UNL     1      -5.225  11.724  20.496  0.00  0.00    +0.000 A 
ATOM     23  C   UNL     1      -6.608  11.899  20.345  0.00  0.00    +0.000 A 
ATOM     24  C   UNL     1      -7.103  13.177  20.195  0.00  0.00    +0.000 A 
ATOM     25  N   UNL     1      -6.319  14.268  20.221  0.00  0.00    +0.000 NA
ATOM     26  C   UNL     1      -4.976  14.056  20.316  0.00  0.00    +0.000 A 
ENDBRANCH  19  21
BRANCH  18  27
ATOM     27  C   UNL     1      -2.590  12.175  18.014  0.00  0.00    +0.000 C 
BRANCH  27  28
ATOM     28  C   UNL     1      -3.304  11.107  17.165  0.00  0.00    +0.000 C 
ATOM     29  C   UNL     1      -2.568  10.867  15.843  0.00  0.00    +0.000 C 
ATOM     30  C   UNL     1      -3.197   9.778  17.976  0.00  0.00    +0.000 C 
ATOM     31  C   UNL     1      -4.802  11.337  16.993  0.00  0.00    +0.000 C 
ENDBRANCH  27  28
ENDBRANCH  18  27
ENDBRANCH   1  18
BRANCH   7  32
ATOM     32  O   UNL     1       1.969  17.116  18.176  0.00  0.00    +0.000 OA
ATOM     33  C   UNL     1       1.267  18.032  17.338  0.00  0.00    +0.000 C 
ENDBRANCH   7  32
TORSDOF 8
ENDMDL
MODEL 4
REMARK VINA RESULT:      -5.4      0.811      1.351
REMARK  Name = 
REMARK  12 active torsions:
REMARK  status: ('A' for Active; 'I' for Inactive)
REMARK    1  A    between atoms: C_2  and  C_3
REMARK    2  A    between atoms: C_3  and  N_4
REMARK    3  A    between atoms: C_5  and  C_7
REMARK    4  A    between atoms: C_7  and  N_8
REMARK    5  A    between atoms: N_8  and  C_9
REMARK    6  A    between atoms: C_9  and  C_10
REMARK    7  A    between atoms: C_10  and  C_11
REMARK    8  A    between atoms: C_10  and  C_12
REMARK    9  A    between atoms: C_10  and  C_13
REMARK   10  A    between atoms: C_14  and  C_16
REMARK   11  A    between atoms: C_27  and  O_28
REMARK   12  A    between atoms: O_28  and  C_29
REMARK                            x       y       z     vdW  Elec       q    Type
REMARK                         _______ _______ _______ _____ _____    ______ ____
ROOT
ATOM      1  C   UNL     1      -0.593  13.406  20.628  0.00  0.00    +0.000 C 
ATOM      2  C   UNL     1      -1.136  14.462  19.601  0.00  0.00    +0.000 C 
ATOM      3  C   UNL     1      -1.674  15.728  20.277  0.00  0.00    +0.000 C 
ATOM      4  C   UNL     1      -2.818  15.415  21.230  0.00  0.00    +0.000 C 
ATOM      5  C   UNL     1      -2.617  14.179  22.071  0.00  0.00    +0.000 A 
ATOM      6  C   UNL     1      -3.487  13.951  23.157  0.00  0.00    +0.000 A 
ATOM      7  C   UNL     1      -3.473  12.748  23.869  0.00  0.00    +0.000 A 
ATOM      8  C   UNL     1      -2.642  11.723  23.453  0.00  0.00    +0.000 A 
ATOM      9  C   UNL     1      -1.800  11.929  22.373  0.00  0.00    +0.000 A 
ATOM     10  C   UNL     1      -1.700  13.178  21.715  0.00  0.00    +0.000 A 
ENDROOT
BRANCH   1  12
ATOM     11  N   UNL     1       1.742  14.756  20.783  0.00  0.00    +0.000 N 
ATOM     12  C   UNL     1       0.647  14.182  21.412  0.00  0.00    +0.000 C 
ATOM     13  O   UNL     1       0.694  14.312  22.640  0.00  0.00    +0.000 OA
ATOM     14  H   UNL     1       2.456  15.046  21.444  0.00  0.00    +0.000 HD
BRANCH  11  15
ATOM     15  C   UNL     1       2.139  14.582  19.421  0.00  0.00    +0.000 C 
BRANCH  15  17
ATOM     16  C   UNL     1       4.611  15.013  19.637  0.00  0.00    +0.000 C 
ATOM     17  C   UNL     1       3.575  14.288  19.197  0.00  0.00    +0.000 C 
ENDBRANCH  15  17
ENDBRANCH  11  15
ENDBRANCH   1  12
BRANCH   1  18
ATOM     18  N   UNL     1      -0.349  12.057  19.866  0.00  0.00    +0.000 N 
ATOM     19  C   UNL     1       0.846  11.312  20.268  0.00  0.00    +0.000 C 
ATOM     20  O   UNL     1       1.495  11.644  21.265  0.00  0.00    +0.000 OA
BRANCH  19  21
ATOM     21  C   UNL     1       1.406  10.095  19.552  0.00  0.00    +0.000 A 
ATOM     22  C   UNL     1       1.817   9.950  18.223  0.00  0.00    +0.000 A 
ATOM     23  C   UNL     1       2.149   8.691  17.704  0.00  0.00    +0.000 A 
ATOM     24  C   UNL     1       2.172   7.606  18.555  0.00  0.00    +0.000 A 
ATOM     25  N   UNL     1       1.923   7.710  19.870  0.00  0.00    +0.000 NA
ATOM     26  C   UNL     1       1.552   8.939  20.330  0.00  0.00    +0.000 A 
ENDBRANCH  19  21
BRANCH  18  27
ATOM     27  C   UNL     1      -1.403  11.180  19.358  0.00  0.00    +0.000 C 
BRANCH  27  28
ATOM     28  C   UNL     1      -2.122  11.102  17.998  0.00  0.00    +0.000 C 
ATOM     29  C   UNL     1      -3.587  11.530  18.121  0.00  0.00    +0.000 C 
ATOM     30  C   UNL     1      -1.428  12.165  17.090  0.00  0.00    +0.000 C 
ATOM     31  C   UNL     1      -1.936   9.780  17.261  0.00  0.00    +0.000 C 
ENDBRANCH  27  28
ENDBRANCH  18  27
ENDBRANCH   1  18
BRANCH   7  32
ATOM     32  O   UNL     1      -4.329  12.663  24.937  0.00  0.00    +0.000 OA
ATOM     33  C   UNL     1      -5.710  12.523  24.611  0.00  0.00    +0.000 C 
ENDBRANCH   7  32
TORSDOF 8
ENDMDL
MODEL 5
REMARK VINA RESULT:      -5.4      4.056      8.012
REMARK  Name = 
REMARK  12 active torsions:
REMARK  status: ('A' for Active; 'I' for Inactive)
REMARK    1  A    between atoms: C_2  and  C_3
REMARK    2  A    between atoms: C_3  and  N_4
REMARK    3  A    between atoms: C_5  and  C_7
REMARK    4  A    between atoms: C_7  and  N_8
REMARK    5  A    between atoms: N_8  and  C_9
REMARK    6  A    between atoms: C_9  and  C_10
REMARK    7  A    between atoms: C_10  and  C_11
REMARK    8  A    between atoms: C_10  and  C_12
REMARK    9  A    between atoms: C_10  and  C_13
REMARK   10  A    between atoms: C_14  and  C_16
REMARK   11  A    between atoms: C_27  and  O_28
REMARK   12  A    between atoms: O_28  and  C_29
REMARK                            x       y       z     vdW  Elec       q    Type
REMARK                         _______ _______ _______ _____ _____    ______ ____
ROOT
ATOM      1  C   UNL     1      -5.266  12.921  19.952  0.00  0.00    +0.000 C 
ATOM      2  C   UNL     1      -6.283  13.950  19.342  0.00  0.00    +0.000 C 
ATOM      3  C   UNL     1      -7.214  13.322  18.299  0.00  0.00    +0.000 C 
ATOM      4  C   UNL     1      -6.435  12.731  17.133  0.00  0.00    +0.000 C 
ATOM      5  C   UNL     1      -5.184  11.985  17.524  0.00  0.00    +0.000 A 
ATOM      6  C   UNL     1      -4.540  11.187  16.556  0.00  0.00    +0.000 A 
ATOM      7  C   UNL     1      -3.288  10.611  16.792  0.00  0.00    +0.000 A 
ATOM      8  C   UNL     1      -2.624  10.892  17.972  0.00  0.00    +0.000 A 
ATOM      9  C   UNL     1      -3.238  11.693  18.922  0.00  0.00    +0.000 A 
ATOM     10  C   UNL     1      -4.557  12.184  18.764  0.00  0.00    +0.000 A 
ENDROOT
BRANCH   1  12
ATOM     11  N   UNL     1      -6.918  11.966  21.864  0.00  0.00    +0.000 N 
ATOM     12  C   UNL     1      -6.218  11.774  20.683  0.00  0.00    +0.000 C 
ATOM     13  O   UNL     1      -6.381  10.639  20.223  0.00  0.00    +0.000 OA
ATOM     14  H   UNL     1      -7.316  11.102  22.220  0.00  0.00    +0.000 HD
BRANCH  11  15
ATOM     15  C   UNL     1      -6.768  13.048  22.785  0.00  0.00    +0.000 C 
BRANCH  15  17
ATOM     16  C   UNL     1      -5.187  12.484  24.663  0.00  0.00    +0.000 C 
ATOM     17  C   UNL     1      -6.420  12.670  24.177  0.00  0.00    +0.000 C 
ENDBRANCH  15  17
ENDBRANCH  11  15
ENDBRANCH   1  12
BRANCH   1  18
ATOM     18  N   UNL     1      -4.189  13.716  20.769  0.00  0.00    +0.000 N 
ATOM     19  C   UNL     1      -4.457  15.145  20.944  0.00  0.00    +0.000 C 
ATOM     20  O   UNL     1      -5.549  15.630  20.629  0.00  0.00    +0.000 OA
BRANCH  19  21
ATOM     21  C   UNL     1      -3.480  16.160  21.515  0.00  0.00    +0.000 A 
ATOM     22  C   UNL     1      -2.336  16.721  20.939  0.00  0.00    +0.000 A 
ATOM     23  C   UNL     1      -1.465  17.518  21.693  0.00  0.00    +0.000 A 
ATOM     24  C   UNL     1      -1.809  17.834  22.991  0.00  0.00    +0.000 A 
ATOM     25  N   UNL     1      -2.964  17.439  23.552  0.00  0.00    +0.000 NA
ATOM     26  C   UNL     1      -3.761  16.622  22.807  0.00  0.00    +0.000 A 
ENDBRANCH  19  21
BRANCH  18  27
ATOM     27  C   UNL     1      -3.393  13.163  21.865  0.00  0.00    +0.000 C 
BRANCH  27  28
ATOM     28  C   UNL     1      -1.874  13.058  22.092  0.00  0.00    +0.000 C 
ATOM     29  C   UNL     1      -1.452  13.794  23.367  0.00  0.00    +0.000 C 
ATOM     30  C   UNL     1      -1.586  11.544  22.342  0.00  0.00    +0.000 C 
ATOM     31  C   UNL     1      -1.028  13.417  20.875  0.00  0.00    +0.000 C 
ENDBRANCH  27  28
ENDBRANCH  18  27
ENDBRANCH   1  18
BRANCH   7  32
ATOM     32  O   UNL     1      -2.788   9.814  15.795  0.00  0.00    +0.000 OA
ATOM     33  C   UNL     1      -3.196  10.153  14.471  0.00  0.00    +0.000 C 
ENDBRANCH   7  32
TORSDOF 8
ENDMDL
MODEL 6
REMARK VINA RESULT:      -5.4      2.482      4.642
REMARK  Name = 
REMARK  12 active torsions:
REMARK  status: ('A' for Active; 'I' for Inactive)
REMARK    1  A    between atoms: C_2  and  C_3
REMARK    2  A    between atoms: C_3  and  N_4
REMARK    3  A    between atoms: C_5  and  C_7
REMARK    4  A    between atoms: C_7  and  N_8
REMARK    5  A    between atoms: N_8  and  C_9
REMARK    6  A    between atoms: C_9  and  C_10
REMARK    7  A    between atoms: C_10  and  C_11
REMARK    8  A    between atoms: C_10  and  C_12
REMARK    9  A    between atoms: C_10  and  C_13
REMARK   10  A    between atoms: C_14  and  C_16
REMARK   11  A    between atoms: C_27  and  O_28
REMARK   12  A    between atoms: O_28  and  C_29
REMARK                            x       y       z     vdW  Elec       q    Type
REMARK                         _______ _______ _______ _____ _____    ______ ____
ROOT
ATOM      1  C   UNL     1      -0.445  12.346  19.915  0.00  0.00    +0.000 C 
ATOM      2  C   UNL     1      -1.901  12.278  20.497  0.00  0.00    +0.000 C 
ATOM      3  C   UNL     1      -2.575  13.652  20.582  0.00  0.00    +0.000 C 
ATOM      4  C   UNL     1      -1.792  14.608  21.469  0.00  0.00    +0.000 C 
ATOM      5  C   UNL     1      -0.295  14.550  21.294  0.00  0.00    +0.000 A 
ATOM      6  C   UNL     1       0.495  15.565  21.870  0.00  0.00    +0.000 A 
ATOM      7  C   UNL     1       1.890  15.484  21.899  0.00  0.00    +0.000 A 
ATOM      8  C   UNL     1       2.513  14.344  21.422  0.00  0.00    +0.000 A 
ATOM      9  C   UNL     1       1.745  13.330  20.874  0.00  0.00    +0.000 A 
ATOM     10  C   UNL     1       0.342  13.441  20.715  0.00  0.00    +0.000 A 
ENDROOT
BRANCH   1  12
ATOM     11  N   UNL     1      -1.441  12.407  17.404  0.00  0.00    +0.000 N 
ATOM     12  C   UNL     1      -0.634  12.963  18.385  0.00  0.00    +0.000 C 
ATOM     13  O   UNL     1      -0.061  13.985  17.993  0.00  0.00    +0.000 OA
ATOM     14  H   UNL     1      -1.303  12.846  16.499  0.00  0.00    +0.000 HD
BRANCH  11  15
ATOM     15  C   UNL     1      -2.044  11.112  17.421  0.00  0.00    +0.000 C 
BRANCH  15  17
ATOM     16  C   UNL     1      -2.889  10.034  15.306  0.00  0.00    +0.000 C 
ATOM     17  C   UNL     1      -3.044  10.850  16.357  0.00  0.00    +0.000 C 
ENDBRANCH  15  17
ENDBRANCH  11  15
ENDBRANCH   1  12
BRANCH   1  18
ATOM     18  N   UNL     1       0.245  10.957  20.146  0.00  0.00    +0.000 N 
ATOM     19  C   UNL     1       1.085  10.479  19.046  0.00  0.00    +0.000 C 
ATOM     20  O   UNL     1       1.368  11.216  18.096  0.00  0.00    +0.000 OA
BRANCH  19  21
ATOM     21  C   UNL     1       1.693   9.090  18.942  0.00  0.00    +0.000 A 
ATOM     22  C   UNL     1       1.680   8.038  19.864  0.00  0.00    +0.000 A 
ATOM     23  C   UNL     1       2.446   6.884  19.653  0.00  0.00    +0.000 A 
ATOM     24  C   UNL     1       3.132   6.751  18.464  0.00  0.00    +0.000 A 
ATOM     25  N   UNL     1       3.069   7.666  17.483  0.00  0.00    +0.000 NA
ATOM     26  C   UNL     1       2.357   8.799  17.744  0.00  0.00    +0.000 A 
ENDBRANCH  19  21
BRANCH  18  27
ATOM     27  C   UNL     1       0.690  10.450  21.443  0.00  0.00    +0.000 C 
BRANCH  27  28
ATOM     28  C   UNL     1      -0.066   9.797  22.616  0.00  0.00    +0.000 C 
ATOM     29  C   UNL     1      -1.152  10.729  23.162  0.00  0.00    +0.000 C 
ATOM     30  C   UNL     1      -0.808   8.565  22.009  0.00  0.00    +0.000 C 
ATOM     31  C   UNL     1       0.834   9.212  23.699  0.00  0.00    +0.000 C 
ENDBRANCH  27  28
ENDBRANCH  18  27
ENDBRANCH   1  18
BRANCH   7  32
ATOM     32  O   UNL     1       2.551  16.557  22.440  0.00  0.00    +0.000 OA
ATOM     33  C   UNL     1       3.695  17.005  21.716  0.00  0.00    +0.000 C 
ENDBRANCH   7  32
TORSDOF 8
ENDMDL
MODEL 7
REMARK VINA RESULT:      -5.3      2.474      4.570
REMARK  Name = 
REMARK  12 active torsions:
REMARK  status: ('A' for Active; 'I' for Inactive)
REMARK    1  A    between atoms: C_2  and  C_3
REMARK    2  A    between atoms: C_3  and  N_4
REMARK    3  A    between atoms: C_5  and  C_7
REMARK    4  A    between atoms: C_7  and  N_8
REMARK    5  A    between atoms: N_8  and  C_9
REMARK    6  A    between atoms: C_9  and  C_10
REMARK    7  A    between atoms: C_10  and  C_11
REMARK    8  A    between atoms: C_10  and  C_12
REMARK    9  A    between atoms: C_10  and  C_13
REMARK   10  A    between atoms: C_14  and  C_16
REMARK   11  A    between atoms: C_27  and  O_28
REMARK   12  A    between atoms: O_28  and  C_29
REMARK                            x       y       z     vdW  Elec       q    Type
REMARK                         _______ _______ _______ _____ _____    ______ ____
ROOT
ATOM      1  C   UNL     1      -0.465  12.279  19.854  0.00  0.00    +0.000 C 
ATOM      2  C   UNL     1      -1.919  12.198  20.439  0.00  0.00    +0.000 C 
ATOM      3  C   UNL     1      -2.600  13.567  20.535  0.00  0.00    +0.000 C 
ATOM      4  C   UNL     1      -1.821  14.522  21.428  0.00  0.00    +0.000 C 
ATOM      5  C   UNL     1      -0.324  14.472  21.249  0.00  0.00    +0.000 A 
ATOM      6  C   UNL     1       0.461  15.488  21.831  0.00  0.00    +0.000 A 
ATOM      7  C   UNL     1       1.857  15.414  21.857  0.00  0.00    +0.000 A 
ATOM      8  C   UNL     1       2.485  14.282  21.370  0.00  0.00    +0.000 A 
ATOM      9  C   UNL     1       1.721  13.267  20.816  0.00  0.00    +0.000 A 
ATOM     10  C   UNL     1       0.318  13.372  20.660  0.00  0.00    +0.000 A 
ENDROOT
BRANCH   1  12
ATOM     11  N   UNL     1      -1.470  12.356  17.347  0.00  0.00    +0.000 N 
ATOM     12  C   UNL     1      -0.660  12.906  18.329  0.00  0.00    +0.000 C 
ATOM     13  O   UNL     1      -0.090  13.931  17.942  0.00  0.00    +0.000 OA
ATOM     14  H   UNL     1      -1.337  12.801  16.444  0.00  0.00    +0.000 HD
BRANCH  11  15
ATOM     15  C   UNL     1      -2.072  11.060  17.357  0.00  0.00    +0.000 C 
BRANCH  15  17
ATOM     16  C   UNL     1      -4.518  10.908  17.942  0.00  0.00    +0.000 C 
ATOM     17  C   UNL     1      -3.523  11.016  17.052  0.00  0.00    +0.000 C 
ENDBRANCH  15  17
ENDBRANCH  11  15
ENDBRANCH   1  12
BRANCH   1  18
ATOM     18  N   UNL     1       0.234  10.892  20.073  0.00  0.00    +0.000 N 
ATOM     19  C   UNL     1       1.105  10.445  18.984  0.00  0.00    +0.000 C 
ATOM     20  O   UNL     1       1.403  11.204  18.057  0.00  0.00    +0.000 OA
BRANCH  19  21
ATOM     21  C   UNL     1       1.728   9.064  18.867  0.00  0.00    +0.000 A 
ATOM     22  C   UNL     1       1.715   7.998  19.772  0.00  0.00    +0.000 A 
ATOM     23  C   UNL     1       2.496   6.855  19.553  0.00  0.00    +0.000 A 
ATOM     24  C   UNL     1       3.200   6.748  18.371  0.00  0.00    +0.000 A 
ATOM     25  N   UNL     1       3.140   7.678  17.404  0.00  0.00    +0.000 NA
ATOM     26  C   UNL     1       2.412   8.799  17.674  0.00  0.00    +0.000 A 
ENDBRANCH  19  21
BRANCH  18  27
ATOM     27  C   UNL     1       0.652  10.361  21.370  0.00  0.00    +0.000 C 
BRANCH  27  28
ATOM     28  C   UNL     1      -0.123   9.662  22.503  0.00  0.00    +0.000 C 
ATOM     29  C   UNL     1      -0.773   8.365  22.010  0.00  0.00    +0.000 C 
ATOM     30  C   UNL     1       0.950   9.243  23.556  0.00  0.00    +0.000 C 
ATOM     31  C   UNL     1      -1.082  10.569  23.265  0.00  0.00    +0.000 C 
ENDBRANCH  27  28
ENDBRANCH  18  27
ENDBRANCH   1  18
BRANCH   7  32
ATOM     32  O   UNL     1       2.513  16.487  22.404  0.00  0.00    +0.000 OA
ATOM     33  C   UNL     1       1.707  17.373  23.177  0.00  0.00    +0.000 C 
ENDBRANCH   7  32
TORSDOF 8
ENDMDL
MODEL 8
REMARK VINA RESULT:      -5.3      2.452      6.303
REMARK  Name = 
REMARK  12 active torsions:
REMARK  status: ('A' for Active; 'I' for Inactive)
REMARK    1  A    between atoms: C_2  and  C_3
REMARK    2  A    between atoms: C_3  and  N_4
REMARK    3  A    between atoms: C_5  and  C_7
REMARK    4  A    between atoms: C_7  and  N_8
REMARK    5  A    between atoms: N_8  and  C_9
REMARK    6  A    between atoms: C_9  and  C_10
REMARK    7  A    between atoms: C_10  and  C_11
REMARK    8  A    between atoms: C_10  and  C_12
REMARK    9  A    between atoms: C_10  and  C_13
REMARK   10  A    between atoms: C_14  and  C_16
REMARK   11  A    between atoms: C_27  and  O_28
REMARK   12  A    between atoms: O_28  and  C_29
REMARK                            x       y       z     vdW  Elec       q    Type
REMARK                         _______ _______ _______ _____ _____    ______ ____
ROOT
ATOM      1  C   UNL     1      -0.679  12.985  20.378  0.00  0.00    +0.000 C 
ATOM      2  C   UNL     1       0.377  12.215  21.247  0.00  0.00    +0.000 C 
ATOM      3  C   UNL     1       1.430  11.490  20.402  0.00  0.00    +0.000 C 
ATOM      4  C   UNL     1       0.797  10.466  19.472  0.00  0.00    +0.000 C 
ATOM      5  C   UNL     1      -0.474  10.923  18.802  0.00  0.00    +0.000 A 
ATOM      6  C   UNL     1      -0.990  10.159  17.735  0.00  0.00    +0.000 A 
ATOM      7  C   UNL     1      -2.248  10.421  17.185  0.00  0.00    +0.000 A 
ATOM      8  C   UNL     1      -3.044  11.402  17.748  0.00  0.00    +0.000 A 
ATOM      9  C   UNL     1      -2.555  12.144  18.811  0.00  0.00    +0.000 A 
ATOM     10  C   UNL     1      -1.238  11.988  19.305  0.00  0.00    +0.000 A 
ENDROOT
BRANCH   1  12
ATOM     11  N   UNL     1       1.204  14.898  20.074  0.00  0.00    +0.000 N 
ATOM     12  C   UNL     1       0.210  14.101  19.528  0.00  0.00    +0.000 C 
ATOM     13  O   UNL     1       0.053  14.312  18.321  0.00  0.00    +0.000 OA
ATOM     14  H   UNL     1       1.521  15.614  19.427  0.00  0.00    +0.000 HD
BRANCH  11  15
ATOM     15  C   UNL     1       1.479  15.099  21.461  0.00  0.00    +0.000 C 
BRANCH  15  17
ATOM     16  C   UNL     1       3.868  14.319  21.632  0.00  0.00    +0.000 C 
ATOM     17  C   UNL     1       2.910  15.235  21.825  0.00  0.00    +0.000 C 
ENDBRANCH  15  17
ENDBRANCH  11  15
ENDBRANCH   1  12
BRANCH   1  18
ATOM     18  N   UNL     1      -1.856  13.433  21.313  0.00  0.00    +0.000 N 
ATOM     19  C   UNL     1      -2.420  12.384  22.164  0.00  0.00    +0.000 C 
ATOM     20  O   UNL     1      -1.871  11.282  22.262  0.00  0.00    +0.000 OA
BRANCH  19  21
ATOM     21  C   UNL     1      -3.684  12.513  22.999  0.00  0.00    +0.000 A 
ATOM     22  C   UNL     1      -3.838  12.532  24.389  0.00  0.00    +0.000 A 
ATOM     23  C   UNL     1      -5.111  12.488  24.974  0.00  0.00    +0.000 A 
ATOM     24  C   UNL     1      -6.220  12.537  24.156  0.00  0.00    +0.000 A 
ATOM     25  N   UNL     1      -6.133  12.660  22.821  0.00  0.00    +0.000 NA
ATOM     26  C   UNL     1      -4.881  12.647  22.283  0.00  0.00    +0.000 A 
ENDBRANCH  19  21
BRANCH  18  27
ATOM     27  C   UNL     1      -1.993  14.762  21.908  0.00  0.00    +0.000 C 
BRANCH  27  28
ATOM     28  C   UNL     1      -3.019  15.891  21.698  0.00  0.00    +0.000 C 
ATOM     29  C   UNL     1      -3.701  16.271  23.016  0.00  0.00    +0.000 C 
ATOM     30  C   UNL     1      -2.194  17.139  21.254  0.00  0.00    +0.000 C 
ATOM     31  C   UNL     1      -4.000  15.648  20.556  0.00  0.00    +0.000 C 
ENDBRANCH  27  28
ENDBRANCH  18  27
ENDBRANCH   1  18
BRANCH   7  32
ATOM     32  O   UNL     1      -2.619   9.644  16.117  0.00  0.00    +0.000 OA
ATOM     33  C   UNL     1      -3.114  10.351  14.982  0.00  0.00    +0.000 C 
ENDBRANCH   7  32
TORSDOF 8
ENDMDL
MODEL 9
REMARK VINA RESULT:      -5.3      2.685      6.525
REMARK  Name = 
REMARK  12 active torsions:
REMARK  status: ('A' for Active; 'I' for Inactive)
REMARK    1  A    between atoms: C_2  and  C_3
REMARK    2  A    between atoms: C_3  and  N_4
REMARK    3  A    between atoms: C_5  and  C_7
REMARK    4  A    between atoms: C_7  and  N_8
REMARK    5  A    between atoms: N_8  and  C_9
REMARK    6  A    between atoms: C_9  and  C_10
REMARK    7  A    between atoms: C_10  and  C_11
REMARK    8  A    between atoms: C_10  and  C_12
REMARK    9  A    between atoms: C_10  and  C_13
REMARK   10  A    between atoms: C_14  and  C_16
REMARK   11  A    between atoms: C_27  and  O_28
REMARK   12  A    between atoms: O_28  and  C_29
REMARK                            x       y       z     vdW  Elec       q    Type
REMARK                         _______ _______ _______ _____ _____    ______ ____
ROOT
ATOM      1  C   UNL     1      -1.319  12.963  20.777  0.00  0.00    +0.000 C 
ATOM      2  C   UNL     1      -0.736  11.770  19.941  0.00  0.00    +0.000 C 
ATOM      3  C   UNL     1       0.767  11.909  19.673  0.00  0.00    +0.000 C 
ATOM      4  C   UNL     1       1.086  13.181  18.903  0.00  0.00    +0.000 C 
ATOM      5  C   UNL     1       0.319  14.400  19.352  0.00  0.00    +0.000 A 
ATOM      6  C   UNL     1       0.726  15.666  18.886  0.00  0.00    +0.000 A 
ATOM      7  C   UNL     1      -0.037  16.815  19.116  0.00  0.00    +0.000 A 
ATOM      8  C   UNL     1      -1.261  16.700  19.750  0.00  0.00    +0.000 A 
ATOM      9  C   UNL     1      -1.681  15.456  20.192  0.00  0.00    +0.000 A 
ATOM     10  C   UNL     1      -0.872  14.299  20.087  0.00  0.00    +0.000 A 
ENDROOT
BRANCH   1  12
ATOM     11  N   UNL     1      -0.408  11.794  23.035  0.00  0.00    +0.000 N 
ATOM     12  C   UNL     1      -0.495  12.910  22.218  0.00  0.00    +0.000 C 
ATOM     13  O   UNL     1       0.117  13.878  22.682  0.00  0.00    +0.000 OA
ATOM     14  H   UNL     1       0.011  12.009  23.935  0.00  0.00    +0.000 HD
BRANCH  11  15
ATOM     15  C   UNL     1      -1.183  10.597  22.941  0.00  0.00    +0.000 C 
BRANCH  15  17
ATOM     16  C   UNL     1      -0.220   8.636  21.688  0.00  0.00    +0.000 C 
ATOM     17  C   UNL     1      -0.414   9.336  22.813  0.00  0.00    +0.000 C 
ENDBRANCH  15  17
ENDBRANCH  11  15
ENDBRANCH   1  12
BRANCH   1  18
ATOM     18  N   UNL     1      -2.885  12.875  20.739  0.00  0.00    +0.000 N 
ATOM     19  C   UNL     1      -3.462  12.450  19.462  0.00  0.00    +0.000 C 
ATOM     20  O   UNL     1      -2.745  12.016  18.554  0.00  0.00    +0.000 OA
BRANCH  19  21
ATOM     21  C   UNL     1      -4.940  12.480  19.112  0.00  0.00    +0.000 A 
ATOM     22  C   UNL     1      -5.873  13.512  19.259  0.00  0.00    +0.000 A 
ATOM     23  C   UNL     1      -7.238  13.288  19.032  0.00  0.00    +0.000 A 
ATOM     24  C   UNL     1      -7.639  12.059  18.553  0.00  0.00    +0.000 A 
ATOM     25  N   UNL     1      -6.772  11.075  18.261  0.00  0.00    +0.000 NA
ATOM     26  C   UNL     1      -5.460  11.310  18.543  0.00  0.00    +0.000 A 
ENDBRANCH  19  21
BRANCH  18  27
ATOM     27  C   UNL     1      -3.731  12.513  21.876  0.00  0.00    +0.000 C 
BRANCH  27  28
ATOM     28  C   UNL     1      -4.201  13.305  23.111  0.00  0.00    +0.000 C 
ATOM     29  C   UNL     1      -3.588  14.709  23.135  0.00  0.00    +0.000 C 
ATOM     30  C   UNL     1      -5.739  13.500  22.929  0.00  0.00    +0.000 C 
ATOM     31  C   UNL     1      -4.058  12.557  24.432  0.00  0.00    +0.000 C 
ENDBRANCH  27  28
ENDBRANCH  18  27
ENDBRANCH   1  18
BRANCH   7  32
ATOM     32  O   UNL     1       0.488  17.996  18.658  0.00  0.00    +0.000 OA
ATOM     33  C   UNL     1       0.732  18.059  17.255  0.00  0.00    +0.000 C 
ENDBRANCH   7  32
TORSDOF 8
ENDMDL
