MODEL 1
REMARK VINA RESULT:      -8.0      0.000      0.000
REMARK  Name = 
REMARK  4 active torsions:
REMARK  status: ('A' for Active; 'I' for Inactive)
REMARK    1  A    between atoms: C_2  and  C_3
REMARK    2  A    between atoms: N_6  and  C_7
REMARK    3  A    between atoms: C_14  and  N_15
REMARK    4  A    between atoms: N_23  and  C_24
REMARK                            x       y       z     vdW  Elec       q    Type
REMARK                         _______ _______ _______ _____ _____    ______ ____
ROOT
ATOM      1  C   UNL     1       4.020   6.369  17.850  0.00  0.00    +0.000 A 
ATOM      2  C   UNL     1       4.706   7.379  17.143  0.00  0.00    +0.000 A 
ATOM      3  N   UNL     1       5.568   6.905  16.251  0.00  0.00    +0.000 NA
ATOM      4  N   UNL     1       5.220   5.600  16.118  0.00  0.00    +0.000 N 
ATOM      5  C   UNL     1       4.305   5.224  17.100  0.00  0.00    +0.000 A 
ENDROOT
BRANCH   1   7
ATOM      6  O   UNL     1       3.510   5.860  20.086  0.00  0.00    +0.000 OA
ATOM      7  C   UNL     1       3.237   6.513  19.083  0.00  0.00    +0.000 C 
ATOM      8  N   UNL     1       2.196   7.440  19.126  0.00  0.00    +0.000 N 
ATOM      9  C   UNL     1       1.476   7.652  20.406  0.00  0.00    +0.000 C 
ATOM     10  C   UNL     1       1.269   9.154  20.738  0.00  0.00    +0.000 C 
ATOM     11  N   UNL     1       0.740   9.865  19.564  0.00  0.00    +0.000 N 
ATOM     12  C   UNL     1       1.531   9.702  18.345  0.00  0.00    +0.000 C 
ATOM     13  C   UNL     1       1.635   8.217  18.008  0.00  0.00    +0.000 C 
BRANCH  11  14
ATOM     14  C   UNL     1      -0.410  10.621  19.573  0.00  0.00    +0.000 A 
ATOM     15  C   UNL     1      -1.337  10.564  18.524  0.00  0.00    +0.000 A 
ATOM     16  C   UNL     1      -2.529  11.296  18.558  0.00  0.00    +0.000 A 
ATOM     17  C   UNL     1      -2.810  12.116  19.644  0.00  0.00    +0.000 A 
ATOM     18 CL   UNL     1      -4.278  13.009  19.695  0.00  0.00    +0.000 Cl
ATOM     19  C   UNL     1      -1.905  12.211  20.693  0.00  0.00    +0.000 A 
ATOM     20  C   UNL     1      -0.722  11.469  20.650  0.00  0.00    +0.000 A 
ENDBRANCH  11  14
ENDBRANCH   1   7
BRANCH   4  21
ATOM     21  C   UNL     1       5.688   4.923  14.955  0.00  0.00    +0.000 A 
ATOM     22  C   UNL     1       7.010   5.134  14.522  0.00  0.00    +0.000 A 
ATOM     23  C   UNL     1       7.484   4.479  13.382  0.00  0.00    +0.000 A 
ATOM     24  C   UNL     1       6.631   3.642  12.670  0.00  0.00    +0.000 A 
ATOM     25  F   UNL     1       7.082   3.011  11.579  0.00  0.00    +0.000 F 
ATOM     26  C   UNL     1       5.311   3.455  13.068  0.00  0.00    +0.000 A 
ATOM     27  C   UNL     1       4.833   4.107  14.204  0.00  0.00    +0.000 A 
ENDBRANCH   4  21
BRANCH   5  28
ATOM     28  N   UNL     1       3.842   3.913  17.275  0.00  0.00    +0.000 N 
ATOM     29  C   UNL     1       4.558   2.843  17.775  0.00  0.00    +0.000 A 
ATOM     30  C   UNL     1       3.741   1.748  17.913  0.00  0.00    +0.000 A 
ATOM     31  C   UNL     1       2.458   2.137  17.492  0.00  0.00    +0.000 A 
ATOM     32  C   UNL     1       2.552   3.446  17.071  0.00  0.00    +0.000 A 
ENDBRANCH   5  28
TORSDOF 4
ENDMDL
MODEL 2
REMARK VINA RESULT:      -7.8      0.604      1.341
REMARK  Name = 
REMARK  4 active torsions:
REMARK  status: ('A' for Active; 'I' for Inactive)
REMARK    1  A    between atoms: C_2  and  C_3
REMARK    2  A    between atoms: N_6  and  C_7
REMARK    3  A    between atoms: C_14  and  N_15
REMARK    4  A    between atoms: N_23  and  C_24
REMARK                            x       y       z     vdW  Elec       q    Type
REMARK                         _______ _______ _______ _____ _____    ______ ____
ROOT
ATOM      1  C   UNL     1       3.771   6.332  18.228  0.00  0.00    +0.000 A 
ATOM      2  C   UNL     1       4.424   7.399  17.573  0.00  0.00    +0.000 A 
ATOM      3  N   UNL     1       5.326   6.998  16.685  0.00  0.00    +0.000 NA
ATOM      4  N   UNL     1       5.043   5.685  16.497  0.00  0.00    +0.000 N 
ATOM      5  C   UNL     1       4.126   5.230  17.445  0.00  0.00    +0.000 A 
ENDROOT
BRANCH   1   7
ATOM      6  O   UNL     1       3.130   5.597  20.365  0.00  0.00    +0.000 OA
ATOM      7  C   UNL     1       2.956   6.394  19.447  0.00  0.00    +0.000 C 
ATOM      8  N   UNL     1       2.002   7.403  19.580  0.00  0.00    +0.000 N 
ATOM      9  C   UNL     1       1.255   7.520  20.856  0.00  0.00    +0.000 C 
ATOM     10  C   UNL     1       1.172   8.981  21.373  0.00  0.00    +0.000 C 
ATOM     11  N   UNL     1       0.755   9.881  20.285  0.00  0.00    +0.000 N 
ATOM     12  C   UNL     1       1.575   9.797  19.078  0.00  0.00    +0.000 C 
ATOM     13  C   UNL     1       1.559   8.363  18.556  0.00  0.00    +0.000 C 
BRANCH  11  14
ATOM     14  C   UNL     1      -0.322  10.735  20.359  0.00  0.00    +0.000 A 
ATOM     15  C   UNL     1      -0.734  11.296  21.575  0.00  0.00    +0.000 A 
ATOM     16  C   UNL     1      -1.798  12.202  21.641  0.00  0.00    +0.000 A 
ATOM     17  C   UNL     1      -2.483  12.553  20.484  0.00  0.00    +0.000 A 
ATOM     18 CL   UNL     1      -3.785  13.673  20.558  0.00  0.00    +0.000 Cl
ATOM     19  C   UNL     1      -2.114  12.002  19.265  0.00  0.00    +0.000 A 
ATOM     20  C   UNL     1      -1.045  11.104  19.212  0.00  0.00    +0.000 A 
ENDBRANCH  11  14
ENDBRANCH   1   7
BRANCH   4  21
ATOM     21  C   UNL     1       5.566   5.073  15.322  0.00  0.00    +0.000 A 
ATOM     22  C   UNL     1       4.704   4.342  14.484  0.00  0.00    +0.000 A 
ATOM     23  C   UNL     1       5.202   3.734  13.329  0.00  0.00    +0.000 A 
ATOM     24  C   UNL     1       6.557   3.838  13.032  0.00  0.00    +0.000 A 
ATOM     25  F   UNL     1       7.037   3.260  11.924  0.00  0.00    +0.000 F 
ATOM     26  C   UNL     1       7.426   4.528  13.872  0.00  0.00    +0.000 A 
ATOM     27  C   UNL     1       6.934   5.135  15.026  0.00  0.00    +0.000 A 
ENDBRANCH   4  21
BRANCH   5  28
ATOM     28  N   UNL     1       3.721   3.894  17.561  0.00  0.00    +0.000 N 
ATOM     29  C   UNL     1       4.433   2.863  18.144  0.00  0.00    +0.000 A 
ATOM     30  C   UNL     1       3.669   1.721  18.181  0.00  0.00    +0.000 A 
ATOM     31  C   UNL     1       2.426   2.040  17.608  0.00  0.00    +0.000 A 
ATOM     32  C   UNL     1       2.494   3.355  17.202  0.00  0.00    +0.000 A 
ENDBRANCH   5  28
TORSDOF 4
ENDMDL
MODEL 3
REMARK VINA RESULT:      -7.4      0.928      1.446
REMARK  Name = 
REMARK  4 active torsions:
REMARK  status: ('A' for Active; 'I' for Inactive)
REMARK    1  A    between atoms: C_2  and  C_3
REMARK    2  A    between atoms: N_6  and  C_7
REMARK    3  A    between atoms: C_14  and  N_15
REMARK    4  A    between atoms: N_23  and  C_24
REMARK                            x       y       z     vdW  Elec       q    Type
REMARK                         _______ _______ _______ _____ _____    ______ ____
ROOT
ATOM      1  C   UNL     1       3.520   6.390  18.481  0.00  0.00    +0.000 A 
ATOM      2  C   UNL     1       4.163   7.460  17.823  0.00  0.00    +0.000 A 
ATOM      3  N   UNL     1       5.095   7.066  16.963  0.00  0.00    +0.000 NA
ATOM      4  N   UNL     1       4.847   5.744  16.791  0.00  0.00    +0.000 N 
ATOM      5  C   UNL     1       3.919   5.284  17.724  0.00  0.00    +0.000 A 
ENDROOT
BRANCH   1   7
ATOM      6  O   UNL     1       2.759   5.598  20.557  0.00  0.00    +0.000 OA
ATOM      7  C   UNL     1       2.675   6.452  19.679  0.00  0.00    +0.000 C 
ATOM      8  N   UNL     1       1.798   7.525  19.840  0.00  0.00    +0.000 N 
ATOM      9  C   UNL     1       1.023   7.634  21.100  0.00  0.00    +0.000 C 
ATOM     10  C   UNL     1       1.036   9.069  21.692  0.00  0.00    +0.000 C 
ATOM     11  N   UNL     1       0.724  10.053  20.644  0.00  0.00    +0.000 N 
ATOM     12  C   UNL     1       1.572   9.968  19.456  0.00  0.00    +0.000 C 
ATOM     13  C   UNL     1       1.461   8.568  18.858  0.00  0.00    +0.000 C 
BRANCH  11  14
ATOM     14  C   UNL     1      -0.286  10.983  20.735  0.00  0.00    +0.000 A 
ATOM     15  C   UNL     1      -0.737  11.461  21.973  0.00  0.00    +0.000 A 
ATOM     16  C   UNL     1      -1.730  12.443  22.061  0.00  0.00    +0.000 A 
ATOM     17  C   UNL     1      -2.304  12.957  20.904  0.00  0.00    +0.000 A 
ATOM     18 CL   UNL     1      -3.517  14.171  21.008  0.00  0.00    +0.000 Cl
ATOM     19  C   UNL     1      -1.894  12.493  19.662  0.00  0.00    +0.000 A 
ATOM     20  C   UNL     1      -0.897  11.518  19.588  0.00  0.00    +0.000 A 
ENDBRANCH  11  14
ENDBRANCH   1   7
BRANCH   4  21
ATOM     21  C   UNL     1       5.413   5.126  15.639  0.00  0.00    +0.000 A 
ATOM     22  C   UNL     1       6.782   5.302  15.366  0.00  0.00    +0.000 A 
ATOM     23  C   UNL     1       7.352   4.704  14.239  0.00  0.00    +0.000 A 
ATOM     24  C   UNL     1       6.550   3.959  13.381  0.00  0.00    +0.000 A 
ATOM     25  F   UNL     1       7.093   3.383  12.302  0.00  0.00    +0.000 F 
ATOM     26  C   UNL     1       5.187   3.809  13.621  0.00  0.00    +0.000 A 
ATOM     27  C   UNL     1       4.614   4.404  14.744  0.00  0.00    +0.000 A 
ENDBRANCH   4  21
BRANCH   5  28
ATOM     28  N   UNL     1       3.543   3.940  17.854  0.00  0.00    +0.000 N 
ATOM     29  C   UNL     1       2.382   3.358  17.384  0.00  0.00    +0.000 A 
ATOM     30  C   UNL     1       2.414   2.000  17.590  0.00  0.00    +0.000 A 
ATOM     31  C   UNL     1       3.642   1.708  18.209  0.00  0.00    +0.000 A 
ATOM     32  C   UNL     1       4.295   2.907  18.395  0.00  0.00    +0.000 A 
ENDBRANCH   5  28
TORSDOF 4
ENDMDL
MODEL 4
REMARK VINA RESULT:      -7.2      5.366     10.527
REMARK  Name = 
REMARK  4 active torsions:
REMARK  status: ('A' for Active; 'I' for Inactive)
REMARK    1  A    between atoms: C_2  and  C_3
REMARK    2  A    between atoms: N_6  and  C_7
REMARK    3  A    between atoms: C_14  and  N_15
REMARK    4  A    between atoms: N_23  and  C_24
REMARK                            x       y       z     vdW  Elec       q    Type
REMARK                         _______ _______ _______ _____ _____    ______ ____
ROOT
ATOM      1  C   UNL     1       0.670  11.155  19.710  0.00  0.00    +0.000 A 
ATOM      2  C   UNL     1       1.114  11.591  20.977  0.00  0.00    +0.000 A 
ATOM      3  N   UNL     1       0.204  12.294  21.640  0.00  0.00    +0.000 NA
ATOM      4  N   UNL     1      -0.953  12.046  20.977  0.00  0.00    +0.000 N 
ATOM      5  C   UNL     1      -0.707  11.386  19.773  0.00  0.00    +0.000 A 
ENDROOT
BRANCH   1   7
ATOM      6  O   UNL     1       1.944  11.373  17.748  0.00  0.00    +0.000 OA
ATOM      7  C   UNL     1       1.483  10.627  18.608  0.00  0.00    +0.000 C 
ATOM      8  N   UNL     1       1.773   9.263  18.566  0.00  0.00    +0.000 N 
ATOM      9  C   UNL     1       2.679   8.754  17.508  0.00  0.00    +0.000 C 
ATOM     10  C   UNL     1       3.753   7.776  18.054  0.00  0.00    +0.000 C 
ATOM     11  N   UNL     1       3.124   6.766  18.920  0.00  0.00    +0.000 N 
ATOM     12  C   UNL     1       2.312   7.313  20.005  0.00  0.00    +0.000 C 
ATOM     13  C   UNL     1       1.217   8.199  19.417  0.00  0.00    +0.000 C 
BRANCH  11  14
ATOM     14  C   UNL     1       3.257   5.407  18.743  0.00  0.00    +0.000 A 
ATOM     15  C   UNL     1       4.349   4.701  19.263  0.00  0.00    +0.000 A 
ATOM     16  C   UNL     1       4.458   3.312  19.124  0.00  0.00    +0.000 A 
ATOM     17  C   UNL     1       3.475   2.604  18.443  0.00  0.00    +0.000 A 
ATOM     18 CL   UNL     1       3.599   0.897  18.279  0.00  0.00    +0.000 Cl
ATOM     19  C   UNL     1       2.389   3.274  17.898  0.00  0.00    +0.000 A 
ATOM     20  C   UNL     1       2.289   4.659  18.051  0.00  0.00    +0.000 A 
ENDBRANCH  11  14
ENDBRANCH   1   7
BRANCH   4  21
ATOM     21  C   UNL     1      -2.166  12.329  21.668  0.00  0.00    +0.000 A 
ATOM     22  C   UNL     1      -3.209  12.985  20.987  0.00  0.00    +0.000 A 
ATOM     23  C   UNL     1      -4.404  13.271  21.651  0.00  0.00    +0.000 A 
ATOM     24  C   UNL     1      -4.542  12.927  22.991  0.00  0.00    +0.000 A 
ATOM     25  F   UNL     1      -5.687  13.197  23.629  0.00  0.00    +0.000 F 
ATOM     26  C   UNL     1      -3.504  12.310  23.685  0.00  0.00    +0.000 A 
ATOM     27  C   UNL     1      -2.309  12.023  23.027  0.00  0.00    +0.000 A 
ENDBRANCH   4  21
BRANCH   5  28
ATOM     28  N   UNL     1      -1.700  11.088  18.830  0.00  0.00    +0.000 N 
ATOM     29  C   UNL     1      -2.146  11.909  17.812  0.00  0.00    +0.000 A 
ATOM     30  C   UNL     1      -3.038  11.234  17.015  0.00  0.00    +0.000 A 
ATOM     31  C   UNL     1      -3.160   9.936  17.541  0.00  0.00    +0.000 A 
ATOM     32  C   UNL     1      -2.368   9.883  18.668  0.00  0.00    +0.000 A 
ENDBRANCH   5  28
TORSDOF 4
ENDMDL
MODEL 5
REMARK VINA RESULT:      -7.2      1.475      1.924
REMARK  Name = 
REMARK  4 active torsions:
REMARK  status: ('A' for Active; 'I' for Inactive)
REMARK    1  A    between atoms: C_2  and  C_3
REMARK    2  A    between atoms: N_6  and  C_7
REMARK    3  A    between atoms: C_14  and  N_15
REMARK    4  A    between atoms: N_23  and  C_24
REMARK                            x       y       z     vdW  Elec       q    Type
REMARK                         _______ _______ _______ _____ _____    ______ ____
ROOT
ATOM      1  C   UNL     1       3.042   6.587  18.790  0.00  0.00    +0.000 A 
ATOM      2  C   UNL     1       3.390   7.671  17.956  0.00  0.00    +0.000 A 
ATOM      3  N   UNL     1       4.398   7.402  17.135  0.00  0.00    +0.000 NA
ATOM      4  N   UNL     1       4.504   6.050  17.175  0.00  0.00    +0.000 N 
ATOM      5  C   UNL     1       3.721   5.517  18.198  0.00  0.00    +0.000 A 
ENDROOT
BRANCH   1   7
ATOM      6  O   UNL     1       2.216   5.686  20.796  0.00  0.00    +0.000 OA
ATOM      7  C   UNL     1       2.202   6.615  19.993  0.00  0.00    +0.000 C 
ATOM      8  N   UNL     1       1.412   7.736  20.248  0.00  0.00    +0.000 N 
ATOM      9  C   UNL     1       0.645   7.800  21.515  0.00  0.00    +0.000 C 
ATOM     10  C   UNL     1       0.770   9.175  22.226  0.00  0.00    +0.000 C 
ATOM     11  N   UNL     1       0.539  10.265  21.265  0.00  0.00    +0.000 N 
ATOM     12  C   UNL     1       1.381  10.213  20.071  0.00  0.00    +0.000 C 
ATOM     13  C   UNL     1       1.161   8.881  19.358  0.00  0.00    +0.000 C 
BRANCH  11  14
ATOM     14  C   UNL     1      -0.394  11.261  21.438  0.00  0.00    +0.000 A 
ATOM     15  C   UNL     1      -0.869  12.021  20.360  0.00  0.00    +0.000 A 
ATOM     16  C   UNL     1      -1.853  13.000  20.531  0.00  0.00    +0.000 A 
ATOM     17  C   UNL     1      -2.374  13.249  21.796  0.00  0.00    +0.000 A 
ATOM     18 CL   UNL     1      -3.591  14.444  22.009  0.00  0.00    +0.000 Cl
ATOM     19  C   UNL     1      -1.913  12.528  22.889  0.00  0.00    +0.000 A 
ATOM     20  C   UNL     1      -0.936  11.548  22.703  0.00  0.00    +0.000 A 
ENDBRANCH  11  14
ENDBRANCH   1   7
BRANCH   4  21
ATOM     21  C   UNL     1       5.218   5.428  16.112  0.00  0.00    +0.000 A 
ATOM     22  C   UNL     1       4.526   4.598  15.210  0.00  0.00    +0.000 A 
ATOM     23  C   UNL     1       5.213   3.978  14.164  0.00  0.00    +0.000 A 
ATOM     24  C   UNL     1       6.585   4.168  14.038  0.00  0.00    +0.000 A 
ATOM     25  F   UNL     1       7.246   3.578  13.034  0.00  0.00    +0.000 F 
ATOM     26  C   UNL     1       7.286   4.957  14.945  0.00  0.00    +0.000 A 
ATOM     27  C   UNL     1       6.606   5.577  15.991  0.00  0.00    +0.000 A 
ENDBRANCH   4  21
BRANCH   5  28
ATOM     28  N   UNL     1       3.706   4.159  18.543  0.00  0.00    +0.000 N 
ATOM     29  C   UNL     1       4.620   3.500  19.342  0.00  0.00    +0.000 A 
ATOM     30  C   UNL     1       4.216   2.205  19.556  0.00  0.00    +0.000 A 
ATOM     31  C   UNL     1       2.998   2.036  18.875  0.00  0.00    +0.000 A 
ATOM     32  C   UNL     1       2.728   3.226  18.234  0.00  0.00    +0.000 A 
ENDBRANCH   5  28
TORSDOF 4
ENDMDL
MODEL 6
REMARK VINA RESULT:      -7.1      1.910      2.473
REMARK  Name = 
REMARK  4 active torsions:
REMARK  status: ('A' for Active; 'I' for Inactive)
REMARK    1  A    between atoms: C_2  and  C_3
REMARK    2  A    between atoms: N_6  and  C_7
REMARK    3  A    between atoms: C_14  and  N_15
REMARK    4  A    between atoms: N_23  and  C_24
REMARK                            x       y       z     vdW  Elec       q    Type
REMARK                         _______ _______ _______ _____ _____    ______ ____
ROOT
ATOM      1  C   UNL     1       2.469   6.879  19.183  0.00  0.00    +0.000 A 
ATOM      2  C   UNL     1       2.945   7.918  18.355  0.00  0.00    +0.000 A 
ATOM      3  N   UNL     1       3.970   7.555  17.592  0.00  0.00    +0.000 NA
ATOM      4  N   UNL     1       3.964   6.200  17.655  0.00  0.00    +0.000 N 
ATOM      5  C   UNL     1       3.088   5.749  18.642  0.00  0.00    +0.000 A 
ENDROOT
BRANCH   1   7
ATOM      6  O   UNL     1       1.424   6.059  21.121  0.00  0.00    +0.000 OA
ATOM      7  C   UNL     1       1.572   6.995  20.339  0.00  0.00    +0.000 C 
ATOM      8  N   UNL     1       0.916   8.203  20.576  0.00  0.00    +0.000 N 
ATOM      9  C   UNL     1       0.092   8.344  21.801  0.00  0.00    +0.000 C 
ATOM     10  C   UNL     1       0.349   9.680  22.549  0.00  0.00    +0.000 C 
ATOM     11  N   UNL     1       0.311  10.805  21.602  0.00  0.00    +0.000 N 
ATOM     12  C   UNL     1       1.205  10.666  20.454  0.00  0.00    +0.000 C 
ATOM     13  C   UNL     1       0.861   9.384  19.700  0.00  0.00    +0.000 C 
BRANCH  11  14
ATOM     14  C   UNL     1      -0.498  11.909  21.746  0.00  0.00    +0.000 A 
ATOM     15  C   UNL     1      -0.591  12.890  20.750  0.00  0.00    +0.000 A 
ATOM     16  C   UNL     1      -1.451  13.986  20.878  0.00  0.00    +0.000 A 
ATOM     17  C   UNL     1      -2.228  14.129  22.021  0.00  0.00    +0.000 A 
ATOM     18 CL   UNL     1      -3.294  15.469  22.179  0.00  0.00    +0.000 Cl
ATOM     19  C   UNL     1      -2.148  13.186  23.037  0.00  0.00    +0.000 A 
ATOM     20  C   UNL     1      -1.291  12.092  22.893  0.00  0.00    +0.000 A 
ENDBRANCH  11  14
ENDBRANCH   1   7
BRANCH   4  21
ATOM     21  C   UNL     1       4.681   5.505  16.640  0.00  0.00    +0.000 A 
ATOM     22  C   UNL     1       5.167   6.219  15.528  0.00  0.00    +0.000 A 
ATOM     23  C   UNL     1       5.870   5.551  14.523  0.00  0.00    +0.000 A 
ATOM     24  C   UNL     1       6.060   4.176  14.618  0.00  0.00    +0.000 A 
ATOM     25  F   UNL     1       6.736   3.534  13.657  0.00  0.00    +0.000 F 
ATOM     26  C   UNL     1       5.552   3.454  15.694  0.00  0.00    +0.000 A 
ATOM     27  C   UNL     1       4.850   4.116  16.699  0.00  0.00    +0.000 A 
ENDBRANCH   4  21
BRANCH   5  28
ATOM     28  N   UNL     1       2.946   4.402  19.003  0.00  0.00    +0.000 N 
ATOM     29  C   UNL     1       1.976   3.526  18.559  0.00  0.00    +0.000 A 
ATOM     30  C   UNL     1       2.226   2.261  19.033  0.00  0.00    +0.000 A 
ATOM     31  C   UNL     1       3.400   2.335  19.801  0.00  0.00    +0.000 A 
ATOM     32  C   UNL     1       3.799   3.654  19.802  0.00  0.00    +0.000 A 
ENDBRANCH   5  28
TORSDOF 4
ENDMDL
MODEL 7
REMARK VINA RESULT:      -7.1      1.871      2.559
REMARK  Name = 
REMARK  4 active torsions:
REMARK  status: ('A' for Active; 'I' for Inactive)
REMARK    1  A    between atoms: C_2  and  C_3
REMARK    2  A    between atoms: N_6  and  C_7
REMARK    3  A    between atoms: C_14  and  N_15
REMARK    4  A    between atoms: N_23  and  C_24
REMARK                            x       y       z     vdW  Elec       q    Type
REMARK                         _______ _______ _______ _____ _____    ______ ____
ROOT
ATOM      1  C   UNL     1       2.469   6.991  19.165  0.00  0.00    +0.000 A 
ATOM      2  C   UNL     1       3.049   8.022  18.395  0.00  0.00    +0.000 A 
ATOM      3  N   UNL     1       4.069   7.613  17.650  0.00  0.00    +0.000 NA
ATOM      4  N   UNL     1       3.962   6.261  17.657  0.00  0.00    +0.000 N 
ATOM      5  C   UNL     1       3.022   5.839  18.597  0.00  0.00    +0.000 A 
ENDROOT
BRANCH   1   7
ATOM      6  O   UNL     1       1.387   6.214  21.100  0.00  0.00    +0.000 OA
ATOM      7  C   UNL     1       1.545   7.129  20.296  0.00  0.00    +0.000 C 
ATOM      8  N   UNL     1       0.872   8.336  20.484  0.00  0.00    +0.000 N 
ATOM      9  C   UNL     1       0.018   8.502  21.686  0.00  0.00    +0.000 C 
ATOM     10  C   UNL     1       0.245   9.860  22.402  0.00  0.00    +0.000 C 
ATOM     11  N   UNL     1       0.218  10.959  21.424  0.00  0.00    +0.000 N 
ATOM     12  C   UNL     1       1.141  10.798  20.301  0.00  0.00    +0.000 C 
ATOM     13  C   UNL     1       0.827   9.492  19.575  0.00  0.00    +0.000 C 
BRANCH  11  14
ATOM     14  C   UNL     1      -0.605  12.058  21.520  0.00  0.00    +0.000 A 
ATOM     15  C   UNL     1      -1.092  12.508  22.754  0.00  0.00    +0.000 A 
ATOM     16  C   UNL     1      -1.888  13.654  22.854  0.00  0.00    +0.000 A 
ATOM     17  C   UNL     1      -2.226  14.367  21.710  0.00  0.00    +0.000 A 
ATOM     18 CL   UNL     1      -3.196  15.782  21.829  0.00  0.00    +0.000 Cl
ATOM     19  C   UNL     1      -1.777  13.939  20.468  0.00  0.00    +0.000 A 
ATOM     20  C   UNL     1      -0.976  12.798  20.383  0.00  0.00    +0.000 A 
ENDBRANCH  11  14
ENDBRANCH   1   7
BRANCH   4  21
ATOM     21  C   UNL     1       4.659   5.554  16.637  0.00  0.00    +0.000 A 
ATOM     22  C   UNL     1       4.983   4.198  16.837  0.00  0.00    +0.000 A 
ATOM     23  C   UNL     1       5.668   3.491  15.847  0.00  0.00    +0.000 A 
ATOM     24  C   UNL     1       6.049   4.143  14.679  0.00  0.00    +0.000 A 
ATOM     25  F   UNL     1       6.703   3.467  13.727  0.00  0.00    +0.000 F 
ATOM     26  C   UNL     1       5.766   5.492  14.485  0.00  0.00    +0.000 A 
ATOM     27  C   UNL     1       5.083   6.203  15.470  0.00  0.00    +0.000 A 
ENDBRANCH   4  21
BRANCH   5  28
ATOM     28  N   UNL     1       2.769   4.494  18.898  0.00  0.00    +0.000 N 
ATOM     29  C   UNL     1       3.423   3.721  19.837  0.00  0.00    +0.000 A 
ATOM     30  C   UNL     1       2.824   2.489  19.938  0.00  0.00    +0.000 A 
ATOM     31  C   UNL     1       1.746   2.481  19.036  0.00  0.00    +0.000 A 
ATOM     32  C   UNL     1       1.757   3.696  18.386  0.00  0.00    +0.000 A 
ENDBRANCH   5  28
TORSDOF 4
ENDMDL
MODEL 8
REMARK VINA RESULT:      -7.1      5.561     10.779
REMARK  Name = 
REMARK  4 active torsions:
REMARK  status: ('A' for Active; 'I' for Inactive)
REMARK    1  A    between atoms: C_2  and  C_3
REMARK    2  A    between atoms: N_6  and  C_7
REMARK    3  A    between atoms: C_14  and  N_15
REMARK    4  A    between atoms: N_23  and  C_24
REMARK                            x       y       z     vdW  Elec       q    Type
REMARK                         _______ _______ _______ _____ _____    ______ ____
ROOT
ATOM      1  C   UNL     1       0.980  12.195  19.829  0.00  0.00    +0.000 A 
ATOM      2  C   UNL     1       1.684  12.750  20.920  0.00  0.00    +0.000 A 
ATOM      3  N   UNL     1       0.991  13.668  21.582  0.00  0.00    +0.000 NA
ATOM      4  N   UNL     1      -0.284  13.489  21.156  0.00  0.00    +0.000 N 
ATOM      5  C   UNL     1      -0.330  12.627  20.062  0.00  0.00    +0.000 A 
ENDROOT
BRANCH   1   7
ATOM      6  O   UNL     1       2.045  11.933  17.752  0.00  0.00    +0.000 OA
ATOM      7  C   UNL     1       1.523  11.396  18.725  0.00  0.00    +0.000 C 
ATOM      8  N   UNL     1       1.485  10.004  18.806  0.00  0.00    +0.000 N 
ATOM      9  C   UNL     1       2.126   9.204  17.734  0.00  0.00    +0.000 C 
ATOM     10  C   UNL     1       3.000   8.047  18.288  0.00  0.00    +0.000 C 
ATOM     11  N   UNL     1       2.257   7.294  19.310  0.00  0.00    +0.000 N 
ATOM     12  C   UNL     1       1.717   8.111  20.396  0.00  0.00    +0.000 C 
ATOM     13  C   UNL     1       0.797   9.180  19.814  0.00  0.00    +0.000 C 
BRANCH  11  14
ATOM     14  C   UNL     1       2.054   5.934  19.271  0.00  0.00    +0.000 A 
ATOM     15  C   UNL     1       1.686   5.211  20.414  0.00  0.00    +0.000 A 
ATOM     16  C   UNL     1       1.433   3.836  20.361  0.00  0.00    +0.000 A 
ATOM     17  C   UNL     1       1.559   3.152  19.158  0.00  0.00    +0.000 A 
ATOM     18 CL   UNL     1       1.238   1.464  19.086  0.00  0.00    +0.000 Cl
ATOM     19  C   UNL     1       1.939   3.833  18.010  0.00  0.00    +0.000 A 
ATOM     20  C   UNL     1       2.182   5.207  18.074  0.00  0.00    +0.000 A 
ENDBRANCH  11  14
ENDBRANCH   1   7
BRANCH   4  21
ATOM     21  C   UNL     1      -1.318  14.043  21.964  0.00  0.00    +0.000 A 
ATOM     22  C   UNL     1      -1.697  13.381  23.147  0.00  0.00    +0.000 A 
ATOM     23  C   UNL     1      -2.710  13.910  23.949  0.00  0.00    +0.000 A 
ATOM     24  C   UNL     1      -3.355  15.078  23.556  0.00  0.00    +0.000 A 
ATOM     25  F   UNL     1      -4.325  15.590  24.324  0.00  0.00    +0.000 F 
ATOM     26  C   UNL     1      -3.014  15.722  22.370  0.00  0.00    +0.000 A 
ATOM     27  C   UNL     1      -2.004  15.198  21.565  0.00  0.00    +0.000 A 
ENDBRANCH   4  21
BRANCH   5  28
ATOM     28  N   UNL     1      -1.499  12.333  19.347  0.00  0.00    +0.000 N 
ATOM     29  C   UNL     1      -1.596  12.075  17.993  0.00  0.00    +0.000 A 
ATOM     30  C   UNL     1      -2.881  11.710  17.671  0.00  0.00    +0.000 A 
ATOM     31  C   UNL     1      -3.625  11.732  18.864  0.00  0.00    +0.000 A 
ATOM     32  C   UNL     1      -2.774  12.152  19.862  0.00  0.00    +0.000 A 
ENDBRANCH   5  28
TORSDOF 4
ENDMDL
MODEL 9
REMARK VINA RESULT:      -7.1      5.783     11.751
REMARK  Name = 
REMARK  4 active torsions:
REMARK  status: ('A' for Active; 'I' for Inactive)
REMARK    1  A    between atoms: C_2  and  C_3
REMARK    2  A    between atoms: N_6  and  C_7
REMARK    3  A    between atoms: C_14  and  N_15
REMARK    4  A    between atoms: N_23  and  C_24
REMARK                            x       y       z     vdW  Elec       q    Type
REMARK                         _______ _______ _______ _____ _____    ______ ____
ROOT
ATOM      1  C   UNL     1      -0.364  12.105  20.880  0.00  0.00    +0.000 A 
ATOM      2  C   UNL     1      -0.773  11.424  22.047  0.00  0.00    +0.000 A 
ATOM      3  N   UNL     1      -0.782  12.193  23.130  0.00  0.00    +0.000 NA
ATOM      4  N   UNL     1      -0.711  13.455  22.639  0.00  0.00    +0.000 N 
ATOM      5  C   UNL     1      -0.419  13.445  21.276  0.00  0.00    +0.000 A 
ENDROOT
BRANCH   1   7
ATOM      6  O   UNL     1       0.114  12.209  18.583  0.00  0.00    +0.000 OA
ATOM      7  C   UNL     1       0.042  11.521  19.597  0.00  0.00    +0.000 C 
ATOM      8  N   UNL     1       0.396  10.172  19.543  0.00  0.00    +0.000 N 
ATOM      9  C   UNL     1       0.903   9.615  18.266  0.00  0.00    +0.000 C 
ATOM     10  C   UNL     1       2.169   8.736  18.453  0.00  0.00    +0.000 C 
ATOM     11  N   UNL     1       1.962   7.777  19.550  0.00  0.00    +0.000 N 
ATOM     12  C   UNL     1       1.550   8.380  20.816  0.00  0.00    +0.000 C 
ATOM     13  C   UNL     1       0.257   9.162  20.604  0.00  0.00    +0.000 C 
BRANCH  11  14
ATOM     14  C   UNL     1       2.123   6.416  19.425  0.00  0.00    +0.000 A 
ATOM     15  C   UNL     1       1.881   5.545  20.496  0.00  0.00    +0.000 A 
ATOM     16  C   UNL     1       1.997   4.158  20.354  0.00  0.00    +0.000 A 
ATOM     17  C   UNL     1       2.375   3.615  19.132  0.00  0.00    +0.000 A 
ATOM     18 CL   UNL     1       2.509   1.911  18.949  0.00  0.00    +0.000 Cl
ATOM     19  C   UNL     1       2.640   4.449  18.054  0.00  0.00    +0.000 A 
ATOM     20  C   UNL     1       2.513   5.831  18.208  0.00  0.00    +0.000 A 
ENDBRANCH  11  14
ENDBRANCH   1   7
BRANCH   4  21
ATOM     21  C   UNL     1      -1.099  14.510  23.513  0.00  0.00    +0.000 A 
ATOM     22  C   UNL     1      -2.288  14.385  24.256  0.00  0.00    +0.000 A 
ATOM     23  C   UNL     1      -2.684  15.412  25.117  0.00  0.00    +0.000 A 
ATOM     24  C   UNL     1      -1.909  16.563  25.211  0.00  0.00    +0.000 A 
ATOM     25  F   UNL     1      -2.284  17.548  26.037  0.00  0.00    +0.000 F 
ATOM     26  C   UNL     1      -0.750  16.713  24.454  0.00  0.00    +0.000 A 
ATOM     27  C   UNL     1      -0.351  15.691  23.593  0.00  0.00    +0.000 A 
ENDBRANCH   4  21
BRANCH   5  28
ATOM     28  N   UNL     1      -0.186  14.602  20.519  0.00  0.00    +0.000 N 
ATOM     29  C   UNL     1       1.043  15.140  20.190  0.00  0.00    +0.000 A 
ATOM     30  C   UNL     1       0.881  16.205  19.337  0.00  0.00    +0.000 A 
ATOM     31  C   UNL     1      -0.499  16.345  19.112  0.00  0.00    +0.000 A 
ATOM     32  C   UNL     1      -1.131  15.385  19.872  0.00  0.00    +0.000 A 
ENDBRANCH   5  28
TORSDOF 4
ENDMDL
