MODEL 1
REMARK VINA RESULT:      -8.1      0.000      0.000
REMARK  Name = 
REMARK  11 active torsions:
REMARK  status: ('A' for Active; 'I' for Inactive)
REMARK    1  A    between atoms: C_1  and  O_2
REMARK    2  A    between atoms: O_2  and  C_3
REMARK    3  A    between atoms: C_3  and  C_4
REMARK    4  A    between atoms: C_4  and  N_5
REMARK    5  A    between atoms: C_7  and  C_8
REMARK    6  A    between atoms: N_10  and  C_11
REMARK    7  A    between atoms: C_11  and  C_12
REMARK    8  A    between atoms: C_17  and  C_19
REMARK    9  A    between atoms: C_19  and  N_20
REMARK   10  A    between atoms: N_20  and  C_21
REMARK   11  A    between atoms: N_20  and  C_22
REMARK                            x       y       z     vdW  Elec       q    Type
REMARK                         _______ _______ _______ _____ _____    ______ ____
ROOT
ATOM      1  C   UNL     1       0.597   8.921  20.905  0.00  0.00    +0.000 A 
ATOM      2  N   UNL     1       0.869   7.741  21.481  0.00  0.00    +0.000 NA
ATOM      3  N   UNL     1       1.590   7.089  20.543  0.00  0.00    +0.000 N 
ATOM      4  C   UNL     1       1.891   7.870  19.458  0.00  0.00    +0.000 A 
ATOM      5  N   UNL     1       2.704   7.557  18.433  0.00  0.00    +0.000 NA
ATOM      6  C   UNL     1       2.749   8.545  17.525  0.00  0.00    +0.000 A 
ATOM      7  N   UNL     1       2.057   9.700  17.521  0.00  0.00    +0.000 NA
ATOM      8  C   UNL     1       1.251   9.974  18.568  0.00  0.00    +0.000 A 
ATOM      9  N   UNL     1       0.539  11.164  18.493  0.00  0.00    +0.000 N 
ATOM     10  C   UNL     1       1.183   9.053  19.622  0.00  0.00    +0.000 A 
ATOM     11  H   UNL     1       0.835  11.695  17.680  0.00  0.00    +0.000 HD
ATOM     12  H   UNL     1       0.505  11.696  19.354  0.00  0.00    +0.000 HD
ENDROOT
BRANCH   1  15
ATOM     13  N   UNL     1      -1.233  11.759  22.169  0.00  0.00    +0.000 N 
ATOM     14  C   UNL     1      -0.794  11.047  21.088  0.00  0.00    +0.000 A 
ATOM     15  C   UNL     1      -0.192   9.921  21.606  0.00  0.00    +0.000 A 
ATOM     16  C   UNL     1      -0.416   9.994  22.991  0.00  0.00    +0.000 A 
ATOM     17  N   UNL     1      -1.110  11.085  23.332  0.00  0.00    +0.000 NA
BRANCH  13  18
ATOM     18  C   UNL     1      -1.532  13.174  22.196  0.00  0.00    +0.000 C 
BRANCH  18  19
ATOM     19  C   UNL     1      -1.329  13.839  23.547  0.00  0.00    +0.000 C 
BRANCH  19  21
ATOM     20  C   UNL     1       0.337  14.742  22.127  0.00  0.00    +0.000 C 
ATOM     21  O   UNL     1      -0.290  14.813  23.399  0.00  0.00    +0.000 OA
ENDBRANCH  19  21
ENDBRANCH  18  19
ENDBRANCH  13  18
ENDBRANCH   1  15
BRANCH   3  22
ATOM     22  C   UNL     1       2.107   5.768  20.843  0.00  0.00    +0.000 C 
BRANCH  22  23
ATOM     23  C   UNL     1       1.266   4.566  20.345  0.00  0.00    +0.000 C 
ATOM     24  C   UNL     1       1.295   3.319  21.241  0.00  0.00    +0.000 C 
ATOM     25  C   UNL     1       2.697   2.711  21.357  0.00  0.00    +0.000 C 
ATOM     26  C   UNL     1       3.489   2.645  20.040  0.00  0.00    +0.000 C 
ATOM     27  N   UNL     1       3.208   3.741  19.107  0.00  0.00    +0.000 N 
ATOM     28  C   UNL     1       4.113   4.278  18.198  0.00  0.00    +0.000 C 
ATOM     29  O   UNL     1       3.739   5.029  17.290  0.00  0.00    +0.000 OA
ATOM     30  C   UNL     1       1.799   4.118  18.979  0.00  0.00    +0.000 C 
BRANCH  28  31
ATOM     31  C   UNL     1       5.615   4.023  18.370  0.00  0.00    +0.000 C 
BRANCH  31  32
ATOM     32  N   UNL     1       6.484   5.097  17.835  0.00  0.00    +0.000 NA
ATOM     33  C   UNL     1       7.444   5.560  18.842  0.00  0.00    +0.000 C 
ATOM     34  C   UNL     1       7.217   4.563  16.679  0.00  0.00    +0.000 C 
ENDBRANCH  31  32
ENDBRANCH  28  31
ENDBRANCH  22  23
ENDBRANCH   3  22
TORSDOF 8
ENDMDL
MODEL 2
REMARK VINA RESULT:      -8.1      2.662      9.272
REMARK  Name = 
REMARK  11 active torsions:
REMARK  status: ('A' for Active; 'I' for Inactive)
REMARK    1  A    between atoms: C_1  and  O_2
REMARK    2  A    between atoms: O_2  and  C_3
REMARK    3  A    between atoms: C_3  and  C_4
REMARK    4  A    between atoms: C_4  and  N_5
REMARK    5  A    between atoms: C_7  and  C_8
REMARK    6  A    between atoms: N_10  and  C_11
REMARK    7  A    between atoms: C_11  and  C_12
REMARK    8  A    between atoms: C_17  and  C_19
REMARK    9  A    between atoms: C_19  and  N_20
REMARK   10  A    between atoms: N_20  and  C_21
REMARK   11  A    between atoms: N_20  and  C_22
REMARK                            x       y       z     vdW  Elec       q    Type
REMARK                         _______ _______ _______ _____ _____    ______ ____
ROOT
ATOM      1  C   UNL     1       3.999   6.525  18.013  0.00  0.00    +0.000 A 
ATOM      2  N   UNL     1       3.321   7.680  18.059  0.00  0.00    +0.000 NA
ATOM      3  N   UNL     1       2.338   7.436  18.953  0.00  0.00    +0.000 N 
ATOM      4  C   UNL     1       2.460   6.215  19.564  0.00  0.00    +0.000 A 
ATOM      5  N   UNL     1       1.727   5.743  20.588  0.00  0.00    +0.000 NA
ATOM      6  C   UNL     1       2.096   4.495  20.920  0.00  0.00    +0.000 A 
ATOM      7  N   UNL     1       3.017   3.716  20.322  0.00  0.00    +0.000 NA
ATOM      8  C   UNL     1       3.728   4.227  19.296  0.00  0.00    +0.000 A 
ATOM      9  N   UNL     1       4.641   3.367  18.699  0.00  0.00    +0.000 N 
ATOM     10  C   UNL     1       3.491   5.554  18.910  0.00  0.00    +0.000 A 
ATOM     11  H   UNL     1       4.691   2.498  19.221  0.00  0.00    +0.000 HD
ATOM     12  H   UNL     1       5.538   3.781  18.481  0.00  0.00    +0.000 HD
ENDROOT
BRANCH   1  15
ATOM     13  N   UNL     1       6.526   5.717  15.570  0.00  0.00    +0.000 N 
ATOM     14  C   UNL     1       5.199   5.787  15.890  0.00  0.00    +0.000 A 
ATOM     15  C   UNL     1       5.149   6.377  17.133  0.00  0.00    +0.000 A 
ATOM     16  C   UNL     1       6.479   6.722  17.426  0.00  0.00    +0.000 A 
ATOM     17  N   UNL     1       7.316   6.379  16.442  0.00  0.00    +0.000 NA
BRANCH  13  18
ATOM     18  C   UNL     1       7.126   4.822  14.605  0.00  0.00    +0.000 C 
BRANCH  18  19
ATOM     19  C   UNL     1       6.170   3.806  14.001  0.00  0.00    +0.000 C 
BRANCH  19  21
ATOM     20  C   UNL     1       5.455   2.992  11.895  0.00  0.00    +0.000 C 
ATOM     21  O   UNL     1       6.436   3.743  12.595  0.00  0.00    +0.000 OA
ENDBRANCH  19  21
ENDBRANCH  18  19
ENDBRANCH  13  18
ENDBRANCH   1  15
BRANCH   3  22
ATOM     22  C   UNL     1       1.417   8.500  19.298  0.00  0.00    +0.000 C 
BRANCH  22  23
ATOM     23  C   UNL     1       1.751   9.320  20.570  0.00  0.00    +0.000 C 
ATOM     24  C   UNL     1       1.135   8.796  21.876  0.00  0.00    +0.000 C 
ATOM     25  C   UNL     1      -0.397   8.829  21.858  0.00  0.00    +0.000 C 
ATOM     26  C   UNL     1      -1.014  10.102  21.255  0.00  0.00    +0.000 C 
ATOM     27  N   UNL     1      -0.226  10.706  20.175  0.00  0.00    +0.000 N 
ATOM     28  C   UNL     1      -0.744  11.420  19.101  0.00  0.00    +0.000 C 
ATOM     29  O   UNL     1      -0.012  12.096  18.368  0.00  0.00    +0.000 OA
ATOM     30  C   UNL     1       1.221  10.747  20.394  0.00  0.00    +0.000 C 
BRANCH  28  31
ATOM     31  C   UNL     1      -2.232  11.303  18.748  0.00  0.00    +0.000 C 
BRANCH  31  32
ATOM     32  N   UNL     1      -2.512  11.226  17.295  0.00  0.00    +0.000 NA
ATOM     33  C   UNL     1      -2.170   9.907  16.754  0.00  0.00    +0.000 C 
ATOM     34  C   UNL     1      -3.945  11.476  17.089  0.00  0.00    +0.000 C 
ENDBRANCH  31  32
ENDBRANCH  28  31
ENDBRANCH  22  23
ENDBRANCH   3  22
TORSDOF 8
ENDMDL
MODEL 3
REMARK VINA RESULT:      -8.0      2.689      9.209
REMARK  Name = 
REMARK  11 active torsions:
REMARK  status: ('A' for Active; 'I' for Inactive)
REMARK    1  A    between atoms: C_1  and  O_2
REMARK    2  A    between atoms: O_2  and  C_3
REMARK    3  A    between atoms: C_3  and  C_4
REMARK    4  A    between atoms: C_4  and  N_5
REMARK    5  A    between atoms: C_7  and  C_8
REMARK    6  A    between atoms: N_10  and  C_11
REMARK    7  A    between atoms: C_11  and  C_12
REMARK    8  A    between atoms: C_17  and  C_19
REMARK    9  A    between atoms: C_19  and  N_20
REMARK   10  A    between atoms: N_20  and  C_21
REMARK   11  A    between atoms: N_20  and  C_22
REMARK                            x       y       z     vdW  Elec       q    Type
REMARK                         _______ _______ _______ _____ _____    ______ ____
ROOT
ATOM      1  C   UNL     1       4.052   5.648  18.811  0.00  0.00    +0.000 A 
ATOM      2  N   UNL     1       3.286   6.739  18.945  0.00  0.00    +0.000 NA
ATOM      3  N   UNL     1       2.310   6.341  19.790  0.00  0.00    +0.000 N 
ATOM      4  C   UNL     1       2.517   5.082  20.292  0.00  0.00    +0.000 A 
ATOM      5  N   UNL     1       1.805   4.465  21.253  0.00  0.00    +0.000 NA
ATOM      6  C   UNL     1       2.264   3.224  21.481  0.00  0.00    +0.000 A 
ATOM      7  N   UNL     1       3.253   2.574  20.837  0.00  0.00    +0.000 NA
ATOM      8  C   UNL     1       3.940   3.229  19.878  0.00  0.00    +0.000 A 
ATOM      9  N   UNL     1       4.926   2.499  19.228  0.00  0.00    +0.000 N 
ATOM     10  C   UNL     1       3.606   4.564  19.606  0.00  0.00    +0.000 A 
ATOM     11  H   UNL     1       5.035   1.592  19.672  0.00  0.00    +0.000 HD
ATOM     12  H   UNL     1       5.792   2.998  19.069  0.00  0.00    +0.000 HD
ENDROOT
BRANCH   1  15
ATOM     13  N   UNL     1       6.594   5.441  16.262  0.00  0.00    +0.000 N 
ATOM     14  C   UNL     1       5.272   5.584  16.575  0.00  0.00    +0.000 A 
ATOM     15  C   UNL     1       5.224   5.668  17.950  0.00  0.00    +0.000 A 
ATOM     16  C   UNL     1       6.568   5.675  18.360  0.00  0.00    +0.000 A 
ATOM     17  N   UNL     1       7.411   5.603  17.325  0.00  0.00    +0.000 NA
BRANCH  13  18
ATOM     18  C   UNL     1       7.127   4.891  15.034  0.00  0.00    +0.000 C 
BRANCH  18  19
ATOM     19  C   UNL     1       6.214   3.897  14.336  0.00  0.00    +0.000 C 
BRANCH  19  21
ATOM     20  C   UNL     1       5.597   3.182  12.164  0.00  0.00    +0.000 C 
ATOM     21  O   UNL     1       6.516   3.941  12.937  0.00  0.00    +0.000 OA
ENDBRANCH  19  21
ENDBRANCH  18  19
ENDBRANCH  13  18
ENDBRANCH   1  15
BRANCH   3  22
ATOM     22  C   UNL     1       1.303   7.297  20.206  0.00  0.00    +0.000 C 
BRANCH  22  23
ATOM     23  C   UNL     1       1.812   8.559  20.946  0.00  0.00    +0.000 C 
ATOM     24  C   UNL     1       1.177   8.823  22.320  0.00  0.00    +0.000 C 
ATOM     25  C   UNL     1      -0.331   9.082  22.231  0.00  0.00    +0.000 C 
ATOM     26  C   UNL     1      -0.768   9.993  21.071  0.00  0.00    +0.000 C 
ATOM     27  N   UNL     1       0.059   9.879  19.865  0.00  0.00    +0.000 N 
ATOM     28  C   UNL     1      -0.388  10.067  18.562  0.00  0.00    +0.000 C 
ATOM     29  O   UNL     1       0.409  10.189  17.623  0.00  0.00    +0.000 OA
ATOM     30  C   UNL     1       1.502   9.794  20.092  0.00  0.00    +0.000 C 
BRANCH  28  31
ATOM     31  C   UNL     1      -1.889  10.028  18.252  0.00  0.00    +0.000 C 
BRANCH  31  32
ATOM     32  N   UNL     1      -2.461  11.330  17.833  0.00  0.00    +0.000 NA
ATOM     33  C   UNL     1      -3.700  11.148  17.072  0.00  0.00    +0.000 C 
ATOM     34  C   UNL     1      -2.747  12.116  19.041  0.00  0.00    +0.000 C 
ENDBRANCH  31  32
ENDBRANCH  28  31
ENDBRANCH  22  23
ENDBRANCH   3  22
TORSDOF 8
ENDMDL
MODEL 4
REMARK VINA RESULT:      -7.9      1.286      1.539
REMARK  Name = 
REMARK  11 active torsions:
REMARK  status: ('A' for Active; 'I' for Inactive)
REMARK    1  A    between atoms: C_1  and  O_2
REMARK    2  A    between atoms: O_2  and  C_3
REMARK    3  A    between atoms: C_3  and  C_4
REMARK    4  A    between atoms: C_4  and  N_5
REMARK    5  A    between atoms: C_7  and  C_8
REMARK    6  A    between atoms: N_10  and  C_11
REMARK    7  A    between atoms: C_11  and  C_12
REMARK    8  A    between atoms: C_17  and  C_19
REMARK    9  A    between atoms: C_19  and  N_20
REMARK   10  A    between atoms: N_20  and  C_21
REMARK   11  A    between atoms: N_20  and  C_22
REMARK                            x       y       z     vdW  Elec       q    Type
REMARK                         _______ _______ _______ _____ _____    ______ ____
ROOT
ATOM      1  C   UNL     1       0.804   8.593  20.856  0.00  0.00    +0.000 A 
ATOM      2  N   UNL     1       1.079   7.406  21.415  0.00  0.00    +0.000 NA
ATOM      3  N   UNL     1       1.800   6.769  20.467  0.00  0.00    +0.000 N 
ATOM      4  C   UNL     1       2.097   7.566  19.392  0.00  0.00    +0.000 A 
ATOM      5  N   UNL     1       2.909   7.269  18.361  0.00  0.00    +0.000 NA
ATOM      6  C   UNL     1       2.950   8.270  17.467  0.00  0.00    +0.000 A 
ATOM      7  N   UNL     1       2.255   9.424  17.481  0.00  0.00    +0.000 NA
ATOM      8  C   UNL     1       1.451   9.681  18.533  0.00  0.00    +0.000 A 
ATOM      9  N   UNL     1       0.736  10.871  18.477  0.00  0.00    +0.000 N 
ATOM     10  C   UNL     1       1.387   8.745  19.575  0.00  0.00    +0.000 A 
ATOM     11  H   UNL     1       1.029  11.413  17.671  0.00  0.00    +0.000 HD
ATOM     12  H   UNL     1       0.703  11.390  19.345  0.00  0.00    +0.000 HD
ENDROOT
BRANCH   1  15
ATOM     13  N   UNL     1      -1.191  11.329  22.098  0.00  0.00    +0.000 N 
ATOM     14  C   UNL     1      -0.865  10.508  21.055  0.00  0.00    +0.000 A 
ATOM     15  C   UNL     1       0.013   9.582  21.573  0.00  0.00    +0.000 A 
ATOM     16  C   UNL     1       0.066   9.862  22.949  0.00  0.00    +0.000 A 
ATOM     17  N   UNL     1      -0.720  10.889  23.284  0.00  0.00    +0.000 NA
BRANCH  13  18
ATOM     18  C   UNL     1      -1.716  12.673  21.995  0.00  0.00    +0.000 C 
BRANCH  18  19
ATOM     19  C   UNL     1      -3.157  12.756  21.518  0.00  0.00    +0.000 C 
BRANCH  19  21
ATOM     20  C   UNL     1      -3.760  13.010  23.794  0.00  0.00    +0.000 C 
ATOM     21  O   UNL     1      -3.994  12.301  22.586  0.00  0.00    +0.000 OA
ENDBRANCH  19  21
ENDBRANCH  18  19
ENDBRANCH  13  18
ENDBRANCH   1  15
BRANCH   3  22
ATOM     22  C   UNL     1       2.321   5.445  20.747  0.00  0.00    +0.000 C 
BRANCH  22  23
ATOM     23  C   UNL     1       1.294   4.284  20.748  0.00  0.00    +0.000 C 
ATOM     24  C   UNL     1       1.633   3.101  21.667  0.00  0.00    +0.000 C 
ATOM     25  C   UNL     1       2.929   2.392  21.258  0.00  0.00    +0.000 C 
ATOM     26  C   UNL     1       3.103   2.176  19.745  0.00  0.00    +0.000 C 
ATOM     27  N   UNL     1       2.513   3.227  18.910  0.00  0.00    +0.000 N 
ATOM     28  C   UNL     1       2.987   3.629  17.666  0.00  0.00    +0.000 C 
ATOM     29  O   UNL     1       2.307   4.346  16.923  0.00  0.00    +0.000 OA
ATOM     30  C   UNL     1       1.196   3.706  19.331  0.00  0.00    +0.000 C 
BRANCH  28  31
ATOM     31  C   UNL     1       4.413   3.265  17.234  0.00  0.00    +0.000 C 
BRANCH  31  32
ATOM     32  N   UNL     1       5.232   4.420  16.795  0.00  0.00    +0.000 NA
ATOM     33  C   UNL     1       6.370   4.639  17.694  0.00  0.00    +0.000 C 
ATOM     34  C   UNL     1       5.733   4.140  15.442  0.00  0.00    +0.000 C 
ENDBRANCH  31  32
ENDBRANCH  28  31
ENDBRANCH  22  23
ENDBRANCH   3  22
TORSDOF 8
ENDMDL
MODEL 5
REMARK VINA RESULT:      -7.7      1.357      1.676
REMARK  Name = 
REMARK  11 active torsions:
REMARK  status: ('A' for Active; 'I' for Inactive)
REMARK    1  A    between atoms: C_1  and  O_2
REMARK    2  A    between atoms: O_2  and  C_3
REMARK    3  A    between atoms: C_3  and  C_4
REMARK    4  A    between atoms: C_4  and  N_5
REMARK    5  A    between atoms: C_7  and  C_8
REMARK    6  A    between atoms: N_10  and  C_11
REMARK    7  A    between atoms: C_11  and  C_12
REMARK    8  A    between atoms: C_17  and  C_19
REMARK    9  A    between atoms: C_19  and  N_20
REMARK   10  A    between atoms: N_20  and  C_21
REMARK   11  A    between atoms: N_20  and  C_22
REMARK                            x       y       z     vdW  Elec       q    Type
REMARK                         _______ _______ _______ _____ _____    ______ ____
ROOT
ATOM      1  C   UNL     1       0.857   9.103  21.004  0.00  0.00    +0.000 A 
ATOM      2  N   UNL     1       1.134   7.927  21.586  0.00  0.00    +0.000 NA
ATOM      3  N   UNL     1       1.705   7.208  20.593  0.00  0.00    +0.000 N 
ATOM      4  C   UNL     1       1.915   7.941  19.454  0.00  0.00    +0.000 A 
ATOM      5  N   UNL     1       2.584   7.553  18.353  0.00  0.00    +0.000 NA
ATOM      6  C   UNL     1       2.573   8.511  17.411  0.00  0.00    +0.000 A 
ATOM      7  N   UNL     1       1.946   9.702  17.448  0.00  0.00    +0.000 NA
ATOM      8  C   UNL     1       1.285  10.051  18.571  0.00  0.00    +0.000 A 
ATOM      9  N   UNL     1       0.632  11.276  18.539  0.00  0.00    +0.000 N 
ATOM     10  C   UNL     1       1.294   9.165  19.658  0.00  0.00    +0.000 A 
ATOM     11  H   UNL     1       0.857  11.766  17.678  0.00  0.00    +0.000 HD
ATOM     12  H   UNL     1       0.728  11.833  19.378  0.00  0.00    +0.000 HD
ENDROOT
BRANCH   1  15
ATOM     13  N   UNL     1      -1.208  11.343  22.932  0.00  0.00    +0.000 N 
ATOM     14  C   UNL     1      -0.827  10.060  22.659  0.00  0.00    +0.000 A 
ATOM     15  C   UNL     1       0.210  10.165  21.757  0.00  0.00    +0.000 A 
ATOM     16  C   UNL     1       0.447  11.545  21.637  0.00  0.00    +0.000 A 
ATOM     17  N   UNL     1      -0.375  12.266  22.405  0.00  0.00    +0.000 NA
BRANCH  13  18
ATOM     18  C   UNL     1      -2.488  11.761  23.460  0.00  0.00    +0.000 C 
BRANCH  18  19
ATOM     19  C   UNL     1      -3.350  12.547  22.486  0.00  0.00    +0.000 C 
BRANCH  19  21
ATOM     20  C   UNL     1      -5.344  13.453  23.386  0.00  0.00    +0.000 C 
ATOM     21  O   UNL     1      -4.720  12.307  22.827  0.00  0.00    +0.000 OA
ENDBRANCH  19  21
ENDBRANCH  18  19
ENDBRANCH  13  18
ENDBRANCH   1  15
BRANCH   3  22
ATOM     22  C   UNL     1       2.184   5.870  20.877  0.00  0.00    +0.000 C 
BRANCH  22  23
ATOM     23  C   UNL     1       1.272   4.700  20.430  0.00  0.00    +0.000 C 
ATOM     24  C   UNL     1       1.308   3.452  21.326  0.00  0.00    +0.000 C 
ATOM     25  C   UNL     1       2.691   2.794  21.362  0.00  0.00    +0.000 C 
ATOM     26  C   UNL     1       3.404   2.700  20.003  0.00  0.00    +0.000 C 
ATOM     27  N   UNL     1       3.109   3.805  19.085  0.00  0.00    +0.000 N 
ATOM     28  C   UNL     1       3.980   4.310  18.125  0.00  0.00    +0.000 C 
ATOM     29  O   UNL     1       3.582   5.074  17.238  0.00  0.00    +0.000 OA
ATOM     30  C   UNL     1       1.711   4.233  19.037  0.00  0.00    +0.000 C 
BRANCH  28  31
ATOM     31  C   UNL     1       5.479   4.000  18.211  0.00  0.00    +0.000 C 
BRANCH  31  32
ATOM     32  N   UNL     1       6.339   4.914  17.423  0.00  0.00    +0.000 NA
ATOM     33  C   UNL     1       6.280   6.284  17.943  0.00  0.00    +0.000 C 
ATOM     34  C   UNL     1       7.723   4.427  17.504  0.00  0.00    +0.000 C 
ENDBRANCH  31  32
ENDBRANCH  28  31
ENDBRANCH  22  23
ENDBRANCH   3  22
TORSDOF 8
ENDMDL
MODEL 6
REMARK VINA RESULT:      -7.7      1.003      1.270
REMARK  Name = 
REMARK  11 active torsions:
REMARK  status: ('A' for Active; 'I' for Inactive)
REMARK    1  A    between atoms: C_1  and  O_2
REMARK    2  A    between atoms: O_2  and  C_3
REMARK    3  A    between atoms: C_3  and  C_4
REMARK    4  A    between atoms: C_4  and  N_5
REMARK    5  A    between atoms: C_7  and  C_8
REMARK    6  A    between atoms: N_10  and  C_11
REMARK    7  A    between atoms: C_11  and  C_12
REMARK    8  A    between atoms: C_17  and  C_19
REMARK    9  A    between atoms: C_19  and  N_20
REMARK   10  A    between atoms: N_20  and  C_21
REMARK   11  A    between atoms: N_20  and  C_22
REMARK                            x       y       z     vdW  Elec       q    Type
REMARK                         _______ _______ _______ _____ _____    ______ ____
ROOT
ATOM      1  C   UNL     1       0.860   8.652  20.858  0.00  0.00    +0.000 A 
ATOM      2  N   UNL     1       1.138   7.461  21.407  0.00  0.00    +0.000 NA
ATOM      3  N   UNL     1       1.803   6.808  20.429  0.00  0.00    +0.000 N 
ATOM      4  C   UNL     1       2.067   7.598  19.340  0.00  0.00    +0.000 A 
ATOM      5  N   UNL     1       2.825   7.284  18.275  0.00  0.00    +0.000 NA
ATOM      6  C   UNL     1       2.846   8.283  17.377  0.00  0.00    +0.000 A 
ATOM      7  N   UNL     1       2.174   9.449  17.419  0.00  0.00    +0.000 NA
ATOM      8  C   UNL     1       1.423   9.724  18.505  0.00  0.00    +0.000 A 
ATOM      9  N   UNL     1       0.729  10.927  18.479  0.00  0.00    +0.000 N 
ATOM     10  C   UNL     1       1.388   8.791  19.551  0.00  0.00    +0.000 A 
ATOM     11  H   UNL     1       0.997  11.462  17.659  0.00  0.00    +0.000 HD
ATOM     12  H   UNL     1       0.745  11.448  19.346  0.00  0.00    +0.000 HD
ENDROOT
BRANCH   1  15
ATOM     13  N   UNL     1      -0.686  11.545  22.357  0.00  0.00    +0.000 N 
ATOM     14  C   UNL     1      -0.155  10.957  21.244  0.00  0.00    +0.000 A 
ATOM     15  C   UNL     1       0.122   9.657  21.607  0.00  0.00    +0.000 A 
ATOM     16  C   UNL     1      -0.376   9.532  22.915  0.00  0.00    +0.000 A 
ATOM     17  N   UNL     1      -0.930  10.666  23.353  0.00  0.00    +0.000 NA
BRANCH  13  18
ATOM     18  C   UNL     1      -0.738  12.964  22.632  0.00  0.00    +0.000 C 
BRANCH  18  19
ATOM     19  C   UNL     1      -0.017  13.834  21.616  0.00  0.00    +0.000 C 
BRANCH  19  21
ATOM     20  C   UNL     1       2.259  14.446  21.382  0.00  0.00    +0.000 C 
ATOM     21  O   UNL     1       1.142  14.379  22.257  0.00  0.00    +0.000 OA
ENDBRANCH  19  21
ENDBRANCH  18  19
ENDBRANCH  13  18
ENDBRANCH   1  15
BRANCH   3  22
ATOM     22  C   UNL     1       2.310   5.476  20.689  0.00  0.00    +0.000 C 
BRANCH  22  23
ATOM     23  C   UNL     1       1.260   4.337  20.758  0.00  0.00    +0.000 C 
ATOM     24  C   UNL     1       1.588   3.191  21.726  0.00  0.00    +0.000 C 
ATOM     25  C   UNL     1       2.863   2.437  21.333  0.00  0.00    +0.000 C 
ATOM     26  C   UNL     1       3.012   2.148  19.830  0.00  0.00    +0.000 C 
ATOM     27  N   UNL     1       2.431   3.171  18.955  0.00  0.00    +0.000 N 
ATOM     28  C   UNL     1       2.896   3.505  17.687  0.00  0.00    +0.000 C 
ATOM     29  O   UNL     1       2.219   4.202  16.920  0.00  0.00    +0.000 OA
ATOM     30  C   UNL     1       1.130   3.697  19.371  0.00  0.00    +0.000 C 
BRANCH  28  31
ATOM     31  C   UNL     1       4.307   3.093  17.254  0.00  0.00    +0.000 C 
BRANCH  31  32
ATOM     32  N   UNL     1       5.309   4.184  17.312  0.00  0.00    +0.000 NA
ATOM     33  C   UNL     1       5.012   5.235  16.334  0.00  0.00    +0.000 C 
ATOM     34  C   UNL     1       5.281   4.760  18.663  0.00  0.00    +0.000 C 
ENDBRANCH  31  32
ENDBRANCH  28  31
ENDBRANCH  22  23
ENDBRANCH   3  22
TORSDOF 8
ENDMDL
MODEL 7
REMARK VINA RESULT:      -7.6      1.021      1.375
REMARK  Name = 
REMARK  11 active torsions:
REMARK  status: ('A' for Active; 'I' for Inactive)
REMARK    1  A    between atoms: C_1  and  O_2
REMARK    2  A    between atoms: O_2  and  C_3
REMARK    3  A    between atoms: C_3  and  C_4
REMARK    4  A    between atoms: C_4  and  N_5
REMARK    5  A    between atoms: C_7  and  C_8
REMARK    6  A    between atoms: N_10  and  C_11
REMARK    7  A    between atoms: C_11  and  C_12
REMARK    8  A    between atoms: C_17  and  C_19
REMARK    9  A    between atoms: C_19  and  N_20
REMARK   10  A    between atoms: N_20  and  C_21
REMARK   11  A    between atoms: N_20  and  C_22
REMARK                            x       y       z     vdW  Elec       q    Type
REMARK                         _______ _______ _______ _____ _____    ______ ____
ROOT
ATOM      1  C   UNL     1       0.750   8.759  20.898  0.00  0.00    +0.000 A 
ATOM      2  N   UNL     1       1.015   7.570  21.457  0.00  0.00    +0.000 NA
ATOM      3  N   UNL     1       1.710   6.917  20.501  0.00  0.00    +0.000 N 
ATOM      4  C   UNL     1       2.004   7.705  19.419  0.00  0.00    +0.000 A 
ATOM      5  N   UNL     1       2.795   7.391  18.377  0.00  0.00    +0.000 NA
ATOM      6  C   UNL     1       2.839   8.387  17.478  0.00  0.00    +0.000 A 
ATOM      7  N   UNL     1       2.164   9.553  17.498  0.00  0.00    +0.000 NA
ATOM      8  C   UNL     1       1.380   9.828  18.561  0.00  0.00    +0.000 A 
ATOM      9  N   UNL     1       0.685  11.029  18.511  0.00  0.00    +0.000 N 
ATOM     10  C   UNL     1       1.317   8.896  19.607  0.00  0.00    +0.000 A 
ATOM     11  H   UNL     1       0.975  11.563  17.698  0.00  0.00    +0.000 HD
ATOM     12  H   UNL     1       0.674  11.552  19.378  0.00  0.00    +0.000 HD
ENDROOT
BRANCH   1  15
ATOM     13  N   UNL     1      -0.958  11.630  22.257  0.00  0.00    +0.000 N 
ATOM     14  C   UNL     1      -0.499  10.964  21.155  0.00  0.00    +0.000 A 
ATOM     15  C   UNL     1      -0.012   9.764  21.623  0.00  0.00    +0.000 A 
ATOM     16  C   UNL     1      -0.321   9.756  22.993  0.00  0.00    +0.000 A 
ATOM     17  N   UNL     1      -0.958  10.868  23.372  0.00  0.00    +0.000 NA
BRANCH  13  18
ATOM     18  C   UNL     1      -1.159  13.058  22.371  0.00  0.00    +0.000 C 
BRANCH  18  19
ATOM     19  C   UNL     1      -2.614  13.491  22.429  0.00  0.00    +0.000 C 
BRANCH  19  21
ATOM     20  C   UNL     1      -3.779  12.940  20.442  0.00  0.00    +0.000 C 
ATOM     21  O   UNL     1      -2.993  13.913  21.114  0.00  0.00    +0.000 OA
ENDBRANCH  19  21
ENDBRANCH  18  19
ENDBRANCH  13  18
ENDBRANCH   1  15
BRANCH   3  22
ATOM     22  C   UNL     1       2.213   5.586  20.779  0.00  0.00    +0.000 C 
BRANCH  22  23
ATOM     23  C   UNL     1       1.229   4.412  20.542  0.00  0.00    +0.000 C 
ATOM     24  C   UNL     1       1.393   3.210  21.484  0.00  0.00    +0.000 C 
ATOM     25  C   UNL     1       2.757   2.528  21.335  0.00  0.00    +0.000 C 
ATOM     26  C   UNL     1       3.244   2.354  19.887  0.00  0.00    +0.000 C 
ATOM     27  N   UNL     1       2.820   3.418  18.972  0.00  0.00    +0.000 N 
ATOM     28  C   UNL     1       3.532   3.858  17.861  0.00  0.00    +0.000 C 
ATOM     29  O   UNL     1       3.007   4.585  17.010  0.00  0.00    +0.000 OA
ATOM     30  C   UNL     1       1.435   3.869  19.123  0.00  0.00    +0.000 C 
BRANCH  28  31
ATOM     31  C   UNL     1       5.023   3.524  17.725  0.00  0.00    +0.000 C 
BRANCH  31  32
ATOM     32  N   UNL     1       5.931   4.667  17.980  0.00  0.00    +0.000 NA
ATOM     33  C   UNL     1       5.810   5.688  16.935  0.00  0.00    +0.000 C 
ATOM     34  C   UNL     1       5.574   5.259  19.276  0.00  0.00    +0.000 C 
ENDBRANCH  31  32
ENDBRANCH  28  31
ENDBRANCH  22  23
ENDBRANCH   3  22
TORSDOF 8
ENDMDL
MODEL 8
REMARK VINA RESULT:      -7.6      2.721      9.035
REMARK  Name = 
REMARK  11 active torsions:
REMARK  status: ('A' for Active; 'I' for Inactive)
REMARK    1  A    between atoms: C_1  and  O_2
REMARK    2  A    between atoms: O_2  and  C_3
REMARK    3  A    between atoms: C_3  and  C_4
REMARK    4  A    between atoms: C_4  and  N_5
REMARK    5  A    between atoms: C_7  and  C_8
REMARK    6  A    between atoms: N_10  and  C_11
REMARK    7  A    between atoms: C_11  and  C_12
REMARK    8  A    between atoms: C_17  and  C_19
REMARK    9  A    between atoms: C_19  and  N_20
REMARK   10  A    between atoms: N_20  and  C_21
REMARK   11  A    between atoms: N_20  and  C_22
REMARK                            x       y       z     vdW  Elec       q    Type
REMARK                         _______ _______ _______ _____ _____    ______ ____
ROOT
ATOM      1  C   UNL     1       3.553   5.759  18.702  0.00  0.00    +0.000 A 
ATOM      2  N   UNL     1       2.810   6.831  19.013  0.00  0.00    +0.000 NA
ATOM      3  N   UNL     1       2.009   6.385  20.005  0.00  0.00    +0.000 N 
ATOM      4  C   UNL     1       2.318   5.114  20.414  0.00  0.00    +0.000 A 
ATOM      5  N   UNL     1       1.801   4.451  21.464  0.00  0.00    +0.000 NA
ATOM      6  C   UNL     1       2.308   3.211  21.558  0.00  0.00    +0.000 A 
ATOM      7  N   UNL     1       3.171   2.603  20.722  0.00  0.00    +0.000 NA
ATOM      8  C   UNL     1       3.664   3.303  19.680  0.00  0.00    +0.000 A 
ATOM      9  N   UNL     1       4.524   2.614  18.835  0.00  0.00    +0.000 N 
ATOM     10  C   UNL     1       3.271   4.640  19.523  0.00  0.00    +0.000 A 
ATOM     11  H   UNL     1       4.723   1.695  19.218  0.00  0.00    +0.000 HD
ATOM     12  H   UNL     1       5.341   3.134  18.541  0.00  0.00    +0.000 HD
ENDROOT
BRANCH   1  15
ATOM     13  N   UNL     1       5.985   5.330  16.075  0.00  0.00    +0.000 N 
ATOM     14  C   UNL     1       4.860   4.875  16.702  0.00  0.00    +0.000 A 
ATOM     15  C   UNL     1       4.548   5.831  17.643  0.00  0.00    +0.000 A 
ATOM     16  C   UNL     1       5.474   6.865  17.432  0.00  0.00    +0.000 A 
ATOM     17  N   UNL     1       6.314   6.591  16.429  0.00  0.00    +0.000 NA
BRANCH  13  18
ATOM     18  C   UNL     1       6.936   4.529  15.336  0.00  0.00    +0.000 C 
BRANCH  18  19
ATOM     19  C   UNL     1       7.023   4.853  13.854  0.00  0.00    +0.000 C 
BRANCH  19  21
ATOM     20  C   UNL     1       8.394   5.978  12.284  0.00  0.00    +0.000 C 
ATOM     21  O   UNL     1       8.208   5.629  13.648  0.00  0.00    +0.000 OA
ENDBRANCH  19  21
ENDBRANCH  18  19
ENDBRANCH  13  18
ENDBRANCH   1  15
BRANCH   3  22
ATOM     22  C   UNL     1       1.083   7.307  20.633  0.00  0.00    +0.000 C 
BRANCH  22  23
ATOM     23  C   UNL     1       1.689   8.615  21.202  0.00  0.00    +0.000 C 
ATOM     24  C   UNL     1       1.080   9.108  22.523  0.00  0.00    +0.000 C 
ATOM     25  C   UNL     1      -0.404   9.466  22.388  0.00  0.00    +0.000 C 
ATOM     26  C   UNL     1      -0.773  10.244  21.114  0.00  0.00    +0.000 C 
ATOM     27  N   UNL     1       0.039   9.908  19.940  0.00  0.00    +0.000 N 
ATOM     28  C   UNL     1      -0.395   9.953  18.620  0.00  0.00    +0.000 C 
ATOM     29  O   UNL     1       0.407   9.888  17.680  0.00  0.00    +0.000 OA
ATOM     30  C   UNL     1       1.472   9.745  20.188  0.00  0.00    +0.000 C 
BRANCH  28  31
ATOM     31  C   UNL     1      -1.895   9.988  18.306  0.00  0.00    +0.000 C 
BRANCH  31  32
ATOM     32  N   UNL     1      -2.357  11.239  17.659  0.00  0.00    +0.000 NA
ATOM     33  C   UNL     1      -2.673  11.022  16.244  0.00  0.00    +0.000 C 
ATOM     34  C   UNL     1      -3.563  11.700  18.358  0.00  0.00    +0.000 C 
ENDBRANCH  31  32
ENDBRANCH  28  31
ENDBRANCH  22  23
ENDBRANCH   3  22
TORSDOF 8
ENDMDL
MODEL 9
REMARK VINA RESULT:      -7.5      2.726      8.216
REMARK  Name = 
REMARK  11 active torsions:
REMARK  status: ('A' for Active; 'I' for Inactive)
REMARK    1  A    between atoms: C_1  and  O_2
REMARK    2  A    between atoms: O_2  and  C_3
REMARK    3  A    between atoms: C_3  and  C_4
REMARK    4  A    between atoms: C_4  and  N_5
REMARK    5  A    between atoms: C_7  and  C_8
REMARK    6  A    between atoms: N_10  and  C_11
REMARK    7  A    between atoms: C_11  and  C_12
REMARK    8  A    between atoms: C_17  and  C_19
REMARK    9  A    between atoms: C_19  and  N_20
REMARK   10  A    between atoms: N_20  and  C_21
REMARK   11  A    between atoms: N_20  and  C_22
REMARK                            x       y       z     vdW  Elec       q    Type
REMARK                         _______ _______ _______ _____ _____    ______ ____
ROOT
ATOM      1  C   UNL     1       3.503   5.920  18.858  0.00  0.00    +0.000 A 
ATOM      2  N   UNL     1       2.862   6.967  19.395  0.00  0.00    +0.000 NA
ATOM      3  N   UNL     1       1.854   6.399  20.093  0.00  0.00    +0.000 N 
ATOM      4  C   UNL     1       1.926   5.030  20.119  0.00  0.00    +0.000 A 
ATOM      5  N   UNL     1       1.158   4.192  20.838  0.00  0.00    +0.000 NA
ATOM      6  C   UNL     1       1.480   2.910  20.602  0.00  0.00    +0.000 A 
ATOM      7  N   UNL     1       2.386   2.430  19.729  0.00  0.00    +0.000 NA
ATOM      8  C   UNL     1       3.134   3.305  19.026  0.00  0.00    +0.000 A 
ATOM      9  N   UNL     1       4.029   2.753  18.120  0.00  0.00    +0.000 N 
ATOM     10  C   UNL     1       2.947   4.677  19.248  0.00  0.00    +0.000 A 
ATOM     11  H   UNL     1       4.042   1.742  18.218  0.00  0.00    +0.000 HD
ATOM     12  H   UNL     1       4.944   3.186  18.105  0.00  0.00    +0.000 HD
ENDROOT
BRANCH   1  15
ATOM     13  N   UNL     1       6.643   6.651  17.242  0.00  0.00    +0.000 N 
ATOM     14  C   UNL     1       5.977   6.302  18.383  0.00  0.00    +0.000 A 
ATOM     15  C   UNL     1       4.664   6.122  18.005  0.00  0.00    +0.000 A 
ATOM     16  C   UNL     1       4.663   6.279  16.609  0.00  0.00    +0.000 A 
ATOM     17  N   UNL     1       5.884   6.538  16.131  0.00  0.00    +0.000 NA
BRANCH  13  18
ATOM     18  C   UNL     1       7.908   7.350  17.170  0.00  0.00    +0.000 C 
BRANCH  18  19
ATOM     19  C   UNL     1       7.874   8.777  17.693  0.00  0.00    +0.000 C 
BRANCH  19  21
ATOM     20  C   UNL     1       9.194  10.192  19.059  0.00  0.00    +0.000 C 
ATOM     21  O   UNL     1       8.789   8.857  18.792  0.00  0.00    +0.000 OA
ENDBRANCH  19  21
ENDBRANCH  18  19
ENDBRANCH  13  18
ENDBRANCH   1  15
BRANCH   3  22
ATOM     22  C   UNL     1       0.961   7.246  20.859  0.00  0.00    +0.000 C 
BRANCH  22  23
ATOM     23  C   UNL     1       1.568   8.552  21.431  0.00  0.00    +0.000 C 
ATOM     24  C   UNL     1       0.888   9.100  22.695  0.00  0.00    +0.000 C 
ATOM     25  C   UNL     1      -0.572   9.496  22.452  0.00  0.00    +0.000 C 
ATOM     26  C   UNL     1      -0.833  10.247  21.135  0.00  0.00    +0.000 C 
ATOM     27  N   UNL     1       0.044   9.853  20.028  0.00  0.00    +0.000 N 
ATOM     28  C   UNL     1      -0.300   9.872  18.680  0.00  0.00    +0.000 C 
ATOM     29  O   UNL     1       0.559   9.756  17.798  0.00  0.00    +0.000 OA
ATOM     30  C   UNL     1       1.453   9.657  20.374  0.00  0.00    +0.000 C 
BRANCH  28  31
ATOM     31  C   UNL     1      -1.775   9.940  18.267  0.00  0.00    +0.000 C 
BRANCH  31  32
ATOM     32  N   UNL     1      -2.194  11.248  17.709  0.00  0.00    +0.000 NA
ATOM     33  C   UNL     1      -2.719  11.103  16.347  0.00  0.00    +0.000 C 
ATOM     34  C   UNL     1      -3.244  11.801  18.574  0.00  0.00    +0.000 C 
ENDBRANCH  31  32
ENDBRANCH  28  31
ENDBRANCH  22  23
ENDBRANCH   3  22
TORSDOF 8
ENDMDL
