MODEL 1
REMARK VINA RESULT:      -7.8      0.000      0.000
REMARK  Name = 
REMARK  9 active torsions:
REMARK  status: ('A' for Active; 'I' for Inactive)
REMARK    1  A    between atoms: C_1  and  C_2
REMARK    2  A    between atoms: C_2  and  C_3
REMARK    3  A    between atoms: C_3  and  C_4
REMARK    4  A    between atoms: C_6  and  C_7
REMARK    5  A    between atoms: C_7  and  C_8
REMARK    6  A    between atoms: C_8  and  C_9
REMARK    7  A    between atoms: C_12  and  S_13
REMARK    8  A    between atoms: S_13  and  C_14
REMARK    9  A    between atoms: C_14  and  C_15
REMARK                            x       y       z     vdW  Elec       q    Type
REMARK                         _______ _______ _______ _____ _____    ______ ____
ROOT
ATOM      1  C   UNL     1       7.284   6.185  18.206  0.00  0.00    +0.000 A 
ATOM      2  C   UNL     1       6.996   6.164  16.733  0.00  0.00    +0.000 A 
ATOM      3  C   UNL     1       6.080   5.274  16.307  0.00  0.00    +0.000 A 
ATOM      4  N   UNL     1       5.485   4.427  17.251  0.00  0.00    +0.000 N 
ATOM      5  N   UNL     1       4.590   3.435  17.057  0.00  0.00    +0.000 NA
ATOM      6  C   UNL     1       4.359   3.009  18.296  0.00  0.00    +0.000 A 
ATOM      7  N   UNL     1       5.049   3.651  19.278  0.00  0.00    +0.000 NA
ATOM      8  C   UNL     1       5.781   4.527  18.616  0.00  0.00    +0.000 A 
ATOM      9  N   UNL     1       6.699   5.426  19.088  0.00  0.00    +0.000 NA
ENDROOT
BRANCH   1  10
ATOM     10  C   UNL     1       8.322   7.191  18.680  0.00  0.00    +0.000 C 
BRANCH  10  12
ATOM     11  C   UNL     1       8.879   9.648  18.711  0.00  0.00    +0.000 C 
ATOM     12  C   UNL     1       8.171   8.530  17.961  0.00  0.00    +0.000 C 
ENDBRANCH  10  12
ENDBRANCH   1  10
BRANCH   3  13
ATOM     13  C   UNL     1       5.689   5.151  14.855  0.00  0.00    +0.000 C 
BRANCH  13  14
ATOM     14  C   UNL     1       6.719   4.449  13.957  0.00  0.00    +0.000 C 
ATOM     15  C   UNL     1       6.098   3.579  12.876  0.00  0.00    +0.000 C 
ENDBRANCH  13  14
ENDBRANCH   3  13
BRANCH   6  16
ATOM     16  S   UNL     1       3.272   1.672  18.555  0.00  0.00    +0.000 S 
BRANCH  16  17
ATOM     17  C   UNL     1       1.663   2.498  18.500  0.00  0.00    +0.000 C 
BRANCH  17  18
ATOM     18  C   UNL     1       1.759   3.910  19.020  0.00  0.00    +0.000 A 
ATOM     19  C   UNL     1       1.687   4.203  20.387  0.00  0.00    +0.000 A 
ATOM     20  C   UNL     1       1.804   5.523  20.821  0.00  0.00    +0.000 A 
ATOM     21  C   UNL     1       1.993   6.512  19.872  0.00  0.00    +0.000 A 
ATOM     22  N   UNL     1       2.074   6.272  18.546  0.00  0.00    +0.000 NA
ATOM     23  C   UNL     1       1.964   4.981  18.154  0.00  0.00    +0.000 A 
ENDBRANCH  17  18
ENDBRANCH  16  17
ENDBRANCH   6  16
TORSDOF 7
ENDMDL
MODEL 2
REMARK VINA RESULT:      -7.4      0.720      1.101
REMARK  Name = 
REMARK  9 active torsions:
REMARK  status: ('A' for Active; 'I' for Inactive)
REMARK    1  A    between atoms: C_1  and  C_2
REMARK    2  A    between atoms: C_2  and  C_3
REMARK    3  A    between atoms: C_3  and  C_4
REMARK    4  A    between atoms: C_6  and  C_7
REMARK    5  A    between atoms: C_7  and  C_8
REMARK    6  A    between atoms: C_8  and  C_9
REMARK    7  A    between atoms: C_12  and  S_13
REMARK    8  A    between atoms: S_13  and  C_14
REMARK    9  A    between atoms: C_14  and  C_15
REMARK                            x       y       z     vdW  Elec       q    Type
REMARK                         _______ _______ _______ _____ _____    ______ ____
ROOT
ATOM      1  C   UNL     1       7.108   6.002  18.076  0.00  0.00    +0.000 A 
ATOM      2  C   UNL     1       6.963   5.695  16.614  0.00  0.00    +0.000 A 
ATOM      3  C   UNL     1       6.038   4.778  16.276  0.00  0.00    +0.000 A 
ATOM      4  N   UNL     1       5.301   4.167  17.297  0.00  0.00    +0.000 N 
ATOM      5  N   UNL     1       4.367   3.195  17.208  0.00  0.00    +0.000 NA
ATOM      6  C   UNL     1       3.990   3.040  18.474  0.00  0.00    +0.000 A 
ATOM      7  N   UNL     1       4.622   3.838  19.379  0.00  0.00    +0.000 NA
ATOM      8  C   UNL     1       5.469   4.528  18.640  0.00  0.00    +0.000 A 
ATOM      9  N   UNL     1       6.392   5.464  19.021  0.00  0.00    +0.000 NA
ENDROOT
BRANCH   1  10
ATOM     10  C   UNL     1       8.157   7.038  18.451  0.00  0.00    +0.000 C 
BRANCH  10  12
ATOM     11  C   UNL     1       8.603   9.517  18.409  0.00  0.00    +0.000 C 
ATOM     12  C   UNL     1       7.947   8.346  17.693  0.00  0.00    +0.000 C 
ENDBRANCH  10  12
ENDBRANCH   1  10
BRANCH   3  13
ATOM     13  C   UNL     1       5.783   4.380  14.843  0.00  0.00    +0.000 C 
BRANCH  13  14
ATOM     14  C   UNL     1       6.933   4.672  13.867  0.00  0.00    +0.000 C 
ATOM     15  C   UNL     1       6.796   3.964  12.528  0.00  0.00    +0.000 C 
ENDBRANCH  13  14
ENDBRANCH   3  13
BRANCH   6  16
ATOM     16  S   UNL     1       2.800   1.832  18.873  0.00  0.00    +0.000 S 
BRANCH  16  17
ATOM     17  C   UNL     1       1.275   2.806  18.854  0.00  0.00    +0.000 C 
BRANCH  17  18
ATOM     18  C   UNL     1       1.560   4.265  19.108  0.00  0.00    +0.000 A 
ATOM     19  C   UNL     1       1.844   5.156  18.067  0.00  0.00    +0.000 A 
ATOM     20  C   UNL     1       2.079   6.501  18.350  0.00  0.00    +0.000 A 
ATOM     21  C   UNL     1       2.021   6.915  19.669  0.00  0.00    +0.000 A 
ATOM     22  N   UNL     1       1.744   6.090  20.701  0.00  0.00    +0.000 NA
ATOM     23  C   UNL     1       1.514   4.791  20.396  0.00  0.00    +0.000 A 
ENDBRANCH  17  18
ENDBRANCH  16  17
ENDBRANCH   6  16
TORSDOF 7
ENDMDL
MODEL 3
REMARK VINA RESULT:      -7.4      4.431      6.590
REMARK  Name = 
REMARK  9 active torsions:
REMARK  status: ('A' for Active; 'I' for Inactive)
REMARK    1  A    between atoms: C_1  and  C_2
REMARK    2  A    between atoms: C_2  and  C_3
REMARK    3  A    between atoms: C_3  and  C_4
REMARK    4  A    between atoms: C_6  and  C_7
REMARK    5  A    between atoms: C_7  and  C_8
REMARK    6  A    between atoms: C_8  and  C_9
REMARK    7  A    between atoms: C_12  and  S_13
REMARK    8  A    between atoms: S_13  and  C_14
REMARK    9  A    between atoms: C_14  and  C_15
REMARK                            x       y       z     vdW  Elec       q    Type
REMARK                         _______ _______ _______ _____ _____    ______ ____
ROOT
ATOM      1  C   UNL     1       4.316   5.803  17.681  0.00  0.00    +0.000 A 
ATOM      2  C   UNL     1       3.630   5.205  18.874  0.00  0.00    +0.000 A 
ATOM      3  C   UNL     1       2.695   5.962  19.479  0.00  0.00    +0.000 A 
ATOM      4  N   UNL     1       2.447   7.245  18.974  0.00  0.00    +0.000 N 
ATOM      5  N   UNL     1       1.605   8.193  19.438  0.00  0.00    +0.000 NA
ATOM      6  C   UNL     1       1.760   9.174  18.552  0.00  0.00    +0.000 A 
ATOM      7  N   UNL     1       2.651   8.930  17.552  0.00  0.00    +0.000 NA
ATOM      8  C   UNL     1       3.106   7.724  17.835  0.00  0.00    +0.000 A 
ATOM      9  N   UNL     1       4.055   6.979  17.187  0.00  0.00    +0.000 NA
ENDROOT
BRANCH   1  10
ATOM     10  C   UNL     1       5.373   4.943  17.005  0.00  0.00    +0.000 C 
BRANCH  10  12
ATOM     11  C   UNL     1       7.341   6.197  17.951  0.00  0.00    +0.000 C 
ATOM     12  C   UNL     1       6.642   4.850  17.848  0.00  0.00    +0.000 C 
ENDBRANCH  10  12
ENDBRANCH   1  10
BRANCH   3  13
ATOM     13  C   UNL     1       1.923   5.482  20.683  0.00  0.00    +0.000 C 
BRANCH  13  14
ATOM     14  C   UNL     1       1.071   4.224  20.457  0.00  0.00    +0.000 C 
ATOM     15  C   UNL     1       1.482   3.041  21.319  0.00  0.00    +0.000 C 
ENDBRANCH  13  14
ENDBRANCH   3  13
BRANCH   6  16
ATOM     16  S   UNL     1       0.884  10.665  18.762  0.00  0.00    +0.000 S 
BRANCH  16  17
ATOM     17  C   UNL     1      -0.749  10.060  19.252  0.00  0.00    +0.000 C 
BRANCH  17  18
ATOM     18  C   UNL     1      -1.787  10.396  18.211  0.00  0.00    +0.000 A 
ATOM     19  C   UNL     1      -1.789   9.797  16.946  0.00  0.00    +0.000 A 
ATOM     20  C   UNL     1      -2.783  10.124  16.025  0.00  0.00    +0.000 A 
ATOM     21  C   UNL     1      -3.749  11.042  16.399  0.00  0.00    +0.000 A 
ATOM     22  N   UNL     1      -3.786  11.638  17.609  0.00  0.00    +0.000 NA
ATOM     23  C   UNL     1      -2.813  11.296  18.486  0.00  0.00    +0.000 A 
ENDBRANCH  17  18
ENDBRANCH  16  17
ENDBRANCH   6  16
TORSDOF 7
ENDMDL
MODEL 4
REMARK VINA RESULT:      -7.3      3.380      5.582
REMARK  Name = 
REMARK  9 active torsions:
REMARK  status: ('A' for Active; 'I' for Inactive)
REMARK    1  A    between atoms: C_1  and  C_2
REMARK    2  A    between atoms: C_2  and  C_3
REMARK    3  A    between atoms: C_3  and  C_4
REMARK    4  A    between atoms: C_6  and  C_7
REMARK    5  A    between atoms: C_7  and  C_8
REMARK    6  A    between atoms: C_8  and  C_9
REMARK    7  A    between atoms: C_12  and  S_13
REMARK    8  A    between atoms: S_13  and  C_14
REMARK    9  A    between atoms: C_14  and  C_15
REMARK                            x       y       z     vdW  Elec       q    Type
REMARK                         _______ _______ _______ _____ _____    ______ ____
ROOT
ATOM      1  C   UNL     1       5.400   4.790  16.705  0.00  0.00    +0.000 A 
ATOM      2  C   UNL     1       4.348   3.770  17.028  0.00  0.00    +0.000 A 
ATOM      3  C   UNL     1       3.190   4.233  17.533  0.00  0.00    +0.000 A 
ATOM      4  N   UNL     1       3.057   5.612  17.740  0.00  0.00    +0.000 N 
ATOM      5  N   UNL     1       2.022   6.295  18.275  0.00  0.00    +0.000 NA
ATOM      6  C   UNL     1       2.435   7.557  18.186  0.00  0.00    +0.000 A 
ATOM      7  N   UNL     1       3.668   7.737  17.639  0.00  0.00    +0.000 NA
ATOM      8  C   UNL     1       4.072   6.508  17.383  0.00  0.00    +0.000 A 
ATOM      9  N   UNL     1       5.260   6.075  16.857  0.00  0.00    +0.000 NA
ENDROOT
BRANCH   1  10
ATOM     10  C   UNL     1       6.708   4.258  16.136  0.00  0.00    +0.000 C 
BRANCH  10  12
ATOM     11  C   UNL     1       6.151   3.822  13.719  0.00  0.00    +0.000 C 
ATOM     12  C   UNL     1       6.913   4.708  14.692  0.00  0.00    +0.000 C 
ENDBRANCH  10  12
ENDBRANCH   1  10
BRANCH   3  13
ATOM     13  C   UNL     1       2.045   3.319  17.896  0.00  0.00    +0.000 C 
BRANCH  13  14
ATOM     14  C   UNL     1       2.041   2.818  19.348  0.00  0.00    +0.000 C 
ATOM     15  C   UNL     1       0.880   3.344  20.177  0.00  0.00    +0.000 C 
ENDBRANCH  13  14
ENDBRANCH   3  13
BRANCH   6  16
ATOM     16  S   UNL     1       1.426   8.835  18.807  0.00  0.00    +0.000 S 
BRANCH  16  17
ATOM     17  C   UNL     1       1.479   8.506  20.585  0.00  0.00    +0.000 C 
BRANCH  17  18
ATOM     18  C   UNL     1       0.666   9.521  21.349  0.00  0.00    +0.000 A 
ATOM     19  C   UNL     1      -0.207   9.149  22.377  0.00  0.00    +0.000 A 
ATOM     20  C   UNL     1      -0.920  10.127  23.069  0.00  0.00    +0.000 A 
ATOM     21  C   UNL     1      -0.737  11.451  22.712  0.00  0.00    +0.000 A 
ATOM     22  N   UNL     1       0.099  11.852  21.731  0.00  0.00    +0.000 NA
ATOM     23  C   UNL     1       0.784  10.882  21.080  0.00  0.00    +0.000 A 
ENDBRANCH  17  18
ENDBRANCH  16  17
ENDBRANCH   6  16
TORSDOF 7
ENDMDL
MODEL 5
REMARK VINA RESULT:      -7.3      4.446      6.740
REMARK  Name = 
REMARK  9 active torsions:
REMARK  status: ('A' for Active; 'I' for Inactive)
REMARK    1  A    between atoms: C_1  and  C_2
REMARK    2  A    between atoms: C_2  and  C_3
REMARK    3  A    between atoms: C_3  and  C_4
REMARK    4  A    between atoms: C_6  and  C_7
REMARK    5  A    between atoms: C_7  and  C_8
REMARK    6  A    between atoms: C_8  and  C_9
REMARK    7  A    between atoms: C_12  and  S_13
REMARK    8  A    between atoms: S_13  and  C_14
REMARK    9  A    between atoms: C_14  and  C_15
REMARK                            x       y       z     vdW  Elec       q    Type
REMARK                         _______ _______ _______ _____ _____    ______ ____
ROOT
ATOM      1  C   UNL     1       4.364   5.777  17.812  0.00  0.00    +0.000 A 
ATOM      2  C   UNL     1       3.619   5.212  18.985  0.00  0.00    +0.000 A 
ATOM      3  C   UNL     1       2.661   5.987  19.526  0.00  0.00    +0.000 A 
ATOM      4  N   UNL     1       2.446   7.258  18.980  0.00  0.00    +0.000 N 
ATOM      5  N   UNL     1       1.587   8.221  19.380  0.00  0.00    +0.000 NA
ATOM      6  C   UNL     1       1.790   9.180  18.480  0.00  0.00    +0.000 A 
ATOM      7  N   UNL     1       2.726   8.908  17.530  0.00  0.00    +0.000 NA
ATOM      8  C   UNL     1       3.160   7.707  17.862  0.00  0.00    +0.000 A 
ATOM      9  N   UNL     1       4.134   6.942  17.278  0.00  0.00    +0.000 NA
ENDROOT
BRANCH   1  10
ATOM     10  C   UNL     1       5.447   4.896  17.207  0.00  0.00    +0.000 C 
BRANCH  10  12
ATOM     11  C   UNL     1       5.975   4.428  14.789  0.00  0.00    +0.000 C 
ATOM     12  C   UNL     1       4.972   4.234  15.916  0.00  0.00    +0.000 C 
ENDBRANCH  10  12
ENDBRANCH   1  10
BRANCH   3  13
ATOM     13  C   UNL     1       1.830   5.540  20.704  0.00  0.00    +0.000 C 
BRANCH  13  14
ATOM     14  C   UNL     1       2.087   4.102  21.179  0.00  0.00    +0.000 C 
ATOM     15  C   UNL     1       1.080   3.092  20.651  0.00  0.00    +0.000 C 
ENDBRANCH  13  14
ENDBRANCH   3  13
BRANCH   6  16
ATOM     16  S   UNL     1       0.914  10.680  18.612  0.00  0.00    +0.000 S 
BRANCH  16  17
ATOM     17  C   UNL     1      -0.710  10.104  19.164  0.00  0.00    +0.000 C 
BRANCH  17  18
ATOM     18  C   UNL     1      -1.771  10.407  18.138  0.00  0.00    +0.000 A 
ATOM     19  C   UNL     1      -1.790   9.785  16.884  0.00  0.00    +0.000 A 
ATOM     20  C   UNL     1      -2.805  10.082  15.977  0.00  0.00    +0.000 A 
ATOM     21  C   UNL     1      -3.775  10.995  16.352  0.00  0.00    +0.000 A 
ATOM     22  N   UNL     1      -3.797  11.613  17.552  0.00  0.00    +0.000 NA
ATOM     23  C   UNL     1      -2.803  11.300  18.416  0.00  0.00    +0.000 A 
ENDBRANCH  17  18
ENDBRANCH  16  17
ENDBRANCH   6  16
TORSDOF 7
ENDMDL
MODEL 6
REMARK VINA RESULT:      -7.2      1.374      4.204
REMARK  Name = 
REMARK  9 active torsions:
REMARK  status: ('A' for Active; 'I' for Inactive)
REMARK    1  A    between atoms: C_1  and  C_2
REMARK    2  A    between atoms: C_2  and  C_3
REMARK    3  A    between atoms: C_3  and  C_4
REMARK    4  A    between atoms: C_6  and  C_7
REMARK    5  A    between atoms: C_7  and  C_8
REMARK    6  A    between atoms: C_8  and  C_9
REMARK    7  A    between atoms: C_12  and  S_13
REMARK    8  A    between atoms: S_13  and  C_14
REMARK    9  A    between atoms: C_14  and  C_15
REMARK                            x       y       z     vdW  Elec       q    Type
REMARK                         _______ _______ _______ _____ _____    ______ ____
ROOT
ATOM      1  C   UNL     1       6.459   4.587  15.309  0.00  0.00    +0.000 A 
ATOM      2  C   UNL     1       7.263   5.608  16.061  0.00  0.00    +0.000 A 
ATOM      3  C   UNL     1       6.968   5.772  17.363  0.00  0.00    +0.000 A 
ATOM      4  N   UNL     1       5.933   5.006  17.914  0.00  0.00    +0.000 N 
ATOM      5  N   UNL     1       5.430   5.032  19.167  0.00  0.00    +0.000 NA
ATOM      6  C   UNL     1       4.503   4.078  19.125  0.00  0.00    +0.000 A 
ATOM      7  N   UNL     1       4.365   3.443  17.929  0.00  0.00    +0.000 NA
ATOM      8  C   UNL     1       5.247   4.048  17.158  0.00  0.00    +0.000 A 
ATOM      9  N   UNL     1       5.526   3.845  15.832  0.00  0.00    +0.000 NA
ENDROOT
BRANCH   1  10
ATOM     10  C   UNL     1       6.797   4.409  13.836  0.00  0.00    +0.000 C 
BRANCH  10  12
ATOM     11  C   UNL     1       6.261   3.028  11.799  0.00  0.00    +0.000 C 
ATOM     12  C   UNL     1       5.737   3.579  13.117  0.00  0.00    +0.000 C 
ENDBRANCH  10  12
ENDBRANCH   1  10
BRANCH   3  13
ATOM     13  C   UNL     1       7.702   6.758  18.239  0.00  0.00    +0.000 C 
BRANCH  13  14
ATOM     14  C   UNL     1       7.855   8.169  17.651  0.00  0.00    +0.000 C 
ATOM     15  C   UNL     1       8.607   9.132  18.555  0.00  0.00    +0.000 C 
ENDBRANCH  13  14
ENDBRANCH   3  13
BRANCH   6  16
ATOM     16  S   UNL     1       3.532   3.764  20.537  0.00  0.00    +0.000 S 
BRANCH  16  17
ATOM     17  C   UNL     1       1.907   4.346  19.995  0.00  0.00    +0.000 C 
BRANCH  17  18
ATOM     18  C   UNL     1       1.942   5.815  19.656  0.00  0.00    +0.000 A 
ATOM     19  C   UNL     1       2.210   6.271  18.361  0.00  0.00    +0.000 A 
ATOM     20  C   UNL     1       2.210   7.639  18.093  0.00  0.00    +0.000 A 
ATOM     21  C   UNL     1       1.938   8.512  19.132  0.00  0.00    +0.000 A 
ATOM     22  N   UNL     1       1.669   8.114  20.393  0.00  0.00    +0.000 NA
ATOM     23  C   UNL     1       1.669   6.780  20.623  0.00  0.00    +0.000 A 
ENDBRANCH  17  18
ENDBRANCH  16  17
ENDBRANCH   6  16
TORSDOF 7
ENDMDL
MODEL 7
REMARK VINA RESULT:      -7.2      2.073      6.073
REMARK  Name = 
REMARK  9 active torsions:
REMARK  status: ('A' for Active; 'I' for Inactive)
REMARK    1  A    between atoms: C_1  and  C_2
REMARK    2  A    between atoms: C_2  and  C_3
REMARK    3  A    between atoms: C_3  and  C_4
REMARK    4  A    between atoms: C_6  and  C_7
REMARK    5  A    between atoms: C_7  and  C_8
REMARK    6  A    between atoms: C_8  and  C_9
REMARK    7  A    between atoms: C_12  and  S_13
REMARK    8  A    between atoms: S_13  and  C_14
REMARK    9  A    between atoms: C_14  and  C_15
REMARK                            x       y       z     vdW  Elec       q    Type
REMARK                         _______ _______ _______ _____ _____    ______ ____
ROOT
ATOM      1  C   UNL     1       2.051   7.774  19.460  0.00  0.00    +0.000 A 
ATOM      2  C   UNL     1       1.906   6.575  20.351  0.00  0.00    +0.000 A 
ATOM      3  C   UNL     1       2.506   5.442  19.944  0.00  0.00    +0.000 A 
ATOM      4  N   UNL     1       3.196   5.453  18.725  0.00  0.00    +0.000 N 
ATOM      5  N   UNL     1       3.825   4.438  18.094  0.00  0.00    +0.000 NA
ATOM      6  C   UNL     1       4.323   5.035  17.014  0.00  0.00    +0.000 A 
ATOM      7  N   UNL     1       4.051   6.364  16.897  0.00  0.00    +0.000 NA
ATOM      8  C   UNL     1       3.316   6.621  17.962  0.00  0.00    +0.000 A 
ATOM      9  N   UNL     1       2.728   7.796  18.349  0.00  0.00    +0.000 NA
ENDROOT
BRANCH   1  10
ATOM     10  C   UNL     1       1.367   9.051  19.926  0.00  0.00    +0.000 C 
BRANCH  10  12
ATOM     11  C   UNL     1      -0.106  10.923  19.107  0.00  0.00    +0.000 C 
ATOM     12  C   UNL     1       1.012   9.956  18.749  0.00  0.00    +0.000 C 
ENDBRANCH  10  12
ENDBRANCH   1  10
BRANCH   3  13
ATOM     13  C   UNL     1       2.448   4.164  20.745  0.00  0.00    +0.000 C 
BRANCH  13  14
ATOM     14  C   UNL     1       1.091   3.444  20.731  0.00  0.00    +0.000 C 
ATOM     15  C   UNL     1       0.760   2.783  19.402  0.00  0.00    +0.000 C 
ENDBRANCH  13  14
ENDBRANCH   3  13
BRANCH   6  16
ATOM     16  S   UNL     1       5.204   4.093  15.843  0.00  0.00    +0.000 S 
BRANCH  16  17
ATOM     17  C   UNL     1       6.674   5.117  15.587  0.00  0.00    +0.000 C 
BRANCH  17  18
ATOM     18  C   UNL     1       7.247   5.581  16.902  0.00  0.00    +0.000 A 
ATOM     19  C   UNL     1       7.457   6.936  17.183  0.00  0.00    +0.000 A 
ATOM     20  C   UNL     1       7.969   7.316  18.422  0.00  0.00    +0.000 A 
ATOM     21  C   UNL     1       8.255   6.327  19.347  0.00  0.00    +0.000 A 
ATOM     22  N   UNL     1       8.061   5.012  19.119  0.00  0.00    +0.000 NA
ATOM     23  C   UNL     1       7.557   4.671  17.910  0.00  0.00    +0.000 A 
ENDBRANCH  17  18
ENDBRANCH  16  17
ENDBRANCH   6  16
TORSDOF 7
ENDMDL
MODEL 8
REMARK VINA RESULT:      -7.1      4.212      6.396
REMARK  Name = 
REMARK  9 active torsions:
REMARK  status: ('A' for Active; 'I' for Inactive)
REMARK    1  A    between atoms: C_1  and  C_2
REMARK    2  A    between atoms: C_2  and  C_3
REMARK    3  A    between atoms: C_3  and  C_4
REMARK    4  A    between atoms: C_6  and  C_7
REMARK    5  A    between atoms: C_7  and  C_8
REMARK    6  A    between atoms: C_8  and  C_9
REMARK    7  A    between atoms: C_12  and  S_13
REMARK    8  A    between atoms: S_13  and  C_14
REMARK    9  A    between atoms: C_14  and  C_15
REMARK                            x       y       z     vdW  Elec       q    Type
REMARK                         _______ _______ _______ _____ _____    ______ ____
ROOT
ATOM      1  C   UNL     1       4.413   5.299  17.677  0.00  0.00    +0.000 A 
ATOM      2  C   UNL     1       3.665   4.805  18.880  0.00  0.00    +0.000 A 
ATOM      3  C   UNL     1       2.781   5.654  19.436  0.00  0.00    +0.000 A 
ATOM      4  N   UNL     1       2.639   6.929  18.874  0.00  0.00    +0.000 N 
ATOM      5  N   UNL     1       1.863   7.957  19.283  0.00  0.00    +0.000 NA
ATOM      6  C   UNL     1       2.106   8.885  18.361  0.00  0.00    +0.000 A 
ATOM      7  N   UNL     1       2.992   8.533  17.389  0.00  0.00    +0.000 NA
ATOM      8  C   UNL     1       3.350   7.310  17.729  0.00  0.00    +0.000 A 
ATOM      9  N   UNL     1       4.250   6.469  17.130  0.00  0.00    +0.000 NA
ENDROOT
BRANCH   1  10
ATOM     10  C   UNL     1       5.413   4.334  17.057  0.00  0.00    +0.000 C 
BRANCH  10  12
ATOM     11  C   UNL     1       7.489   5.191  18.195  0.00  0.00    +0.000 C 
ATOM     12  C   UNL     1       6.778   4.989  16.866  0.00  0.00    +0.000 C 
ENDBRANCH  10  12
ENDBRANCH   1  10
BRANCH   3  13
ATOM     13  C   UNL     1       1.956   5.285  20.644  0.00  0.00    +0.000 C 
BRANCH  13  14
ATOM     14  C   UNL     1       1.116   4.007  20.498  0.00  0.00    +0.000 C 
ATOM     15  C   UNL     1       1.514   2.898  21.459  0.00  0.00    +0.000 C 
ENDBRANCH  13  14
ENDBRANCH   3  13
BRANCH   6  16
ATOM     16  S   UNL     1       1.342  10.445  18.493  0.00  0.00    +0.000 S 
BRANCH  16  17
ATOM     17  C   UNL     1      -0.214  10.018  19.311  0.00  0.00    +0.000 C 
BRANCH  17  18
ATOM     18  C   UNL     1      -1.397  10.378  18.448  0.00  0.00    +0.000 A 
ATOM     19  C   UNL     1      -2.344  11.328  18.846  0.00  0.00    +0.000 A 
ATOM     20  C   UNL     1      -3.408  11.642  18.002  0.00  0.00    +0.000 A 
ATOM     21  C   UNL     1      -3.492  10.996  16.781  0.00  0.00    +0.000 A 
ATOM     22  N   UNL     1      -2.598  10.079  16.357  0.00  0.00    +0.000 NA
ATOM     23  C   UNL     1      -1.571   9.798  17.194  0.00  0.00    +0.000 A 
ENDBRANCH  17  18
ENDBRANCH  16  17
ENDBRANCH   6  16
TORSDOF 7
ENDMDL
MODEL 9
REMARK VINA RESULT:      -7.1      4.410      6.677
REMARK  Name = 
REMARK  9 active torsions:
REMARK  status: ('A' for Active; 'I' for Inactive)
REMARK    1  A    between atoms: C_1  and  C_2
REMARK    2  A    between atoms: C_2  and  C_3
REMARK    3  A    between atoms: C_3  and  C_4
REMARK    4  A    between atoms: C_6  and  C_7
REMARK    5  A    between atoms: C_7  and  C_8
REMARK    6  A    between atoms: C_8  and  C_9
REMARK    7  A    between atoms: C_12  and  S_13
REMARK    8  A    between atoms: S_13  and  C_14
REMARK    9  A    between atoms: C_14  and  C_15
REMARK                            x       y       z     vdW  Elec       q    Type
REMARK                         _______ _______ _______ _____ _____    ______ ____
ROOT
ATOM      1  C   UNL     1       4.363   5.795  17.804  0.00  0.00    +0.000 A 
ATOM      2  C   UNL     1       3.639   5.239  18.994  0.00  0.00    +0.000 A 
ATOM      3  C   UNL     1       2.683   6.014  19.539  0.00  0.00    +0.000 A 
ATOM      4  N   UNL     1       2.450   7.277  18.979  0.00  0.00    +0.000 N 
ATOM      5  N   UNL     1       1.590   8.239  19.379  0.00  0.00    +0.000 NA
ATOM      6  C   UNL     1       1.773   9.187  18.464  0.00  0.00    +0.000 A 
ATOM      7  N   UNL     1       2.698   8.909  17.504  0.00  0.00    +0.000 NA
ATOM      8  C   UNL     1       3.145   7.716  17.845  0.00  0.00    +0.000 A 
ATOM      9  N   UNL     1       4.116   6.951  17.258  0.00  0.00    +0.000 NA
ENDROOT
BRANCH   1  10
ATOM     10  C   UNL     1       5.443   4.913  17.195  0.00  0.00    +0.000 C 
BRANCH  10  12
ATOM     11  C   UNL     1       5.917   4.798  14.724  0.00  0.00    +0.000 C 
ATOM     12  C   UNL     1       5.005   4.339  15.850  0.00  0.00    +0.000 C 
ENDBRANCH  10  12
ENDBRANCH   1  10
BRANCH   3  13
ATOM     13  C   UNL     1       1.873   5.577  20.734  0.00  0.00    +0.000 C 
BRANCH  13  14
ATOM     14  C   UNL     1       1.936   4.076  21.055  0.00  0.00    +0.000 C 
ATOM     15  C   UNL     1       0.949   3.236  20.261  0.00  0.00    +0.000 C 
ENDBRANCH  13  14
ENDBRANCH   3  13
BRANCH   6  16
ATOM     16  S   UNL     1       0.888  10.682  18.589  0.00  0.00    +0.000 S 
BRANCH  16  17
ATOM     17  C   UNL     1      -0.720  10.102  19.185  0.00  0.00    +0.000 C 
BRANCH  17  18
ATOM     18  C   UNL     1      -1.808  10.400  18.186  0.00  0.00    +0.000 A 
ATOM     19  C   UNL     1      -2.854  11.286  18.470  0.00  0.00    +0.000 A 
ATOM     20  C   UNL     1      -3.825  11.545  17.505  0.00  0.00    +0.000 A 
ATOM     21  C   UNL     1      -3.719  10.912  16.279  0.00  0.00    +0.000 A 
ATOM     22  N   UNL     1      -2.725  10.056  15.962  0.00  0.00    +0.000 NA
ATOM     23  C   UNL     1      -1.792   9.827  16.916  0.00  0.00    +0.000 A 
ENDBRANCH  17  18
ENDBRANCH  16  17
ENDBRANCH   6  16
TORSDOF 7
ENDMDL
