MODEL 1
REMARK VINA RESULT:      -8.7      0.000      0.000
REMARK  Name = 
REMARK  7 active torsions:
REMARK  status: ('A' for Active; 'I' for Inactive)
REMARK    1  A    between atoms: C_1  and  N_2
REMARK    2  A    between atoms: N_6  and  C_7
REMARK    3  A    between atoms: C_10  and  C_11
REMARK    4  A    between atoms: C_24  and  O_25
REMARK    5  A    between atoms: O_25  and  C_26
REMARK    6  A    between atoms: C_27  and  O_28
REMARK    7  A    between atoms: O_28  and  C_29
REMARK                            x       y       z     vdW  Elec       q    Type
REMARK                         _______ _______ _______ _____ _____    ______ ____
ROOT
ATOM      1  C   UNL     1       0.277   3.141  19.232  0.00  0.00    +0.000 C 
ATOM      2  N   UNL     1       1.573   2.646  18.832  0.00  0.00    +0.000 N 
ATOM      3  C   UNL     1       2.479   3.635  18.472  0.00  0.00    +0.000 A 
ATOM      4  N   UNL     1       2.434   4.836  19.048  0.00  0.00    +0.000 NA
ATOM      5  C   UNL     1       3.372   5.740  18.709  0.00  0.00    +0.000 A 
ATOM      6  N   UNL     1       3.323   7.011  19.332  0.00  0.00    +0.000 N 
ATOM      7  C   UNL     1       4.385   5.461  17.773  0.00  0.00    +0.000 A 
ATOM      8  C   UNL     1       5.451   6.328  17.376  0.00  0.00    +0.000 A 
ATOM      9  C   UNL     1       6.400   5.946  16.408  0.00  0.00    +0.000 A 
ATOM     10  C   UNL     1       6.271   4.695  15.804  0.00  0.00    +0.000 A 
ATOM     11  C   UNL     1       5.218   3.857  16.219  0.00  0.00    +0.000 A 
ATOM     12  C   UNL     1       4.294   4.200  17.194  0.00  0.00    +0.000 A 
ATOM     13  N   UNL     1       3.365   3.298  17.535  0.00  0.00    +0.000 NA
ATOM     14  H   UNL     1       1.579   1.959  18.085  0.00  0.00    +0.000 HD
ATOM     15  H   UNL     1       4.142   7.161  19.906  0.00  0.00    +0.000 HD
ENDROOT
BRANCH   6  16
ATOM     16  C   UNL     1       2.174   7.715  19.746  0.00  0.00    +0.000 A 
ATOM     17  C   UNL     1       1.675   7.550  21.045  0.00  0.00    +0.000 A 
ATOM     18  C   UNL     1       0.663   8.385  21.550  0.00  0.00    +0.000 A 
ATOM     19  C   UNL     1       0.140   9.426  20.772  0.00  0.00    +0.000 A 
ATOM     20  C   UNL     1       0.591   9.540  19.450  0.00  0.00    +0.000 A 
ATOM     21  C   UNL     1       1.584   8.694  18.942  0.00  0.00    +0.000 A 
BRANCH  19  22
ATOM     22  C   UNL     1      -0.755  10.474  21.297  0.00  0.00    +0.000 A 
ATOM     23  N   UNL     1      -1.342  11.363  20.521  0.00  0.00    +0.000 NA
ATOM     24  C   UNL     1      -2.041  12.290  21.270  0.00  0.00    +0.000 A 
ATOM     25  C   UNL     1      -2.737  13.399  20.753  0.00  0.00    +0.000 A 
ATOM     26  C   UNL     1      -3.408  14.266  21.624  0.00  0.00    +0.000 A 
ATOM     27  C   UNL     1      -3.395  14.024  22.994  0.00  0.00    +0.000 A 
ATOM     28  C   UNL     1      -2.719  12.921  23.527  0.00  0.00    +0.000 A 
ATOM     29  C   UNL     1      -2.033  12.071  22.643  0.00  0.00    +0.000 A 
ATOM     30  S   UNL     1      -1.097  10.659  22.975  0.00  0.00    +0.000 S 
ENDBRANCH  19  22
ENDBRANCH   6  16
BRANCH   9  31
ATOM     31  O   UNL     1       7.520   6.732  16.332  0.00  0.00    +0.000 OA
ATOM     32  C   UNL     1       7.737   7.610  17.432  0.00  0.00    +0.000 C 
ENDBRANCH   9  31
BRANCH  10  33
ATOM     33  O   UNL     1       7.052   4.054  14.888  0.00  0.00    +0.000 OA
ATOM     34  C   UNL     1       6.693   4.009  13.524  0.00  0.00    +0.000 C 
ENDBRANCH  10  33
TORSDOF 4
ENDMDL
MODEL 2
REMARK VINA RESULT:      -8.7      4.825     10.939
REMARK  Name = 
REMARK  7 active torsions:
REMARK  status: ('A' for Active; 'I' for Inactive)
REMARK    1  A    between atoms: C_1  and  N_2
REMARK    2  A    between atoms: N_6  and  C_7
REMARK    3  A    between atoms: C_10  and  C_11
REMARK    4  A    between atoms: C_24  and  O_25
REMARK    5  A    between atoms: O_25  and  C_26
REMARK    6  A    between atoms: C_27  and  O_28
REMARK    7  A    between atoms: O_28  and  C_29
REMARK                            x       y       z     vdW  Elec       q    Type
REMARK                         _______ _______ _______ _____ _____    ______ ____
ROOT
ATOM      1  C   UNL     1      -2.677  10.125  15.530  0.00  0.00    +0.000 C 
ATOM      2  N   UNL     1      -3.602  11.131  15.995  0.00  0.00    +0.000 N 
ATOM      3  C   UNL     1      -3.472  11.454  17.339  0.00  0.00    +0.000 A 
ATOM      4  N   UNL     1      -2.283  11.394  17.937  0.00  0.00    +0.000 NA
ATOM      5  C   UNL     1      -2.198  11.776  19.225  0.00  0.00    +0.000 A 
ATOM      6  N   UNL     1      -0.929  11.718  19.852  0.00  0.00    +0.000 N 
ATOM      7  C   UNL     1      -3.315  12.227  19.954  0.00  0.00    +0.000 A 
ATOM      8  C   UNL     1      -3.328  12.696  21.304  0.00  0.00    +0.000 A 
ATOM      9  C   UNL     1      -4.517  13.103  21.939  0.00  0.00    +0.000 A 
ATOM     10  C   UNL     1      -5.716  13.019  21.230  0.00  0.00    +0.000 A 
ATOM     11  C   UNL     1      -5.675  12.562  19.898  0.00  0.00    +0.000 A 
ATOM     12  C   UNL     1      -4.510  12.187  19.244  0.00  0.00    +0.000 A 
ATOM     13  N   UNL     1      -4.594  11.814  17.961  0.00  0.00    +0.000 NA
ATOM     14  H   UNL     1      -4.586  10.943  15.834  0.00  0.00    +0.000 HD
ATOM     15  H   UNL     1      -0.612  12.644  20.108  0.00  0.00    +0.000 HD
ENDROOT
BRANCH   6  16
ATOM     16  C   UNL     1       0.101  10.787  19.608  0.00  0.00    +0.000 A 
ATOM     17  C   UNL     1       0.214   9.635  20.398  0.00  0.00    +0.000 A 
ATOM     18  C   UNL     1       1.096   8.597  20.052  0.00  0.00    +0.000 A 
ATOM     19  C   UNL     1       1.873   8.675  18.890  0.00  0.00    +0.000 A 
ATOM     20  C   UNL     1       1.811   9.860  18.145  0.00  0.00    +0.000 A 
ATOM     21  C   UNL     1       0.947  10.902  18.501  0.00  0.00    +0.000 A 
BRANCH  19  22
ATOM     22  C   UNL     1       2.651   7.547  18.344  0.00  0.00    +0.000 A 
ATOM     23  N   UNL     1       3.639   7.712  17.488  0.00  0.00    +0.000 NA
ATOM     24  C   UNL     1       4.130   6.495  17.057  0.00  0.00    +0.000 A 
ATOM     25  C   UNL     1       5.151   6.317  16.105  0.00  0.00    +0.000 A 
ATOM     26  C   UNL     1       5.558   5.025  15.755  0.00  0.00    +0.000 A 
ATOM     27  C   UNL     1       4.963   3.920  16.355  0.00  0.00    +0.000 A 
ATOM     28  C   UNL     1       3.954   4.075  17.312  0.00  0.00    +0.000 A 
ATOM     29  C   UNL     1       3.541   5.378  17.639  0.00  0.00    +0.000 A 
ATOM     30  S   UNL     1       2.326   5.904  18.746  0.00  0.00    +0.000 S 
ENDBRANCH  19  22
ENDBRANCH   6  16
BRANCH   9  31
ATOM     31  O   UNL     1      -4.357  13.797  23.110  0.00  0.00    +0.000 OA
ATOM     32  C   UNL     1      -3.890  13.038  24.222  0.00  0.00    +0.000 C 
ENDBRANCH   9  31
BRANCH  10  33
ATOM     33  O   UNL     1      -6.987  13.378  21.566  0.00  0.00    +0.000 OA
ATOM     34  C   UNL     1      -7.916  12.428  22.040  0.00  0.00    +0.000 C 
ENDBRANCH  10  33
TORSDOF 4
ENDMDL
MODEL 3
REMARK VINA RESULT:      -8.5      0.742      1.118
REMARK  Name = 
REMARK  7 active torsions:
REMARK  status: ('A' for Active; 'I' for Inactive)
REMARK    1  A    between atoms: C_1  and  N_2
REMARK    2  A    between atoms: N_6  and  C_7
REMARK    3  A    between atoms: C_10  and  C_11
REMARK    4  A    between atoms: C_24  and  O_25
REMARK    5  A    between atoms: O_25  and  C_26
REMARK    6  A    between atoms: C_27  and  O_28
REMARK    7  A    between atoms: O_28  and  C_29
REMARK                            x       y       z     vdW  Elec       q    Type
REMARK                         _______ _______ _______ _____ _____    ______ ____
ROOT
ATOM      1  C   UNL     1       0.145   3.280  19.332  0.00  0.00    +0.000 C 
ATOM      2  N   UNL     1       1.436   2.754  18.956  0.00  0.00    +0.000 N 
ATOM      3  C   UNL     1       2.354   3.716  18.556  0.00  0.00    +0.000 A 
ATOM      4  N   UNL     1       2.321   4.942  19.080  0.00  0.00    +0.000 NA
ATOM      5  C   UNL     1       3.270   5.820  18.704  0.00  0.00    +0.000 A 
ATOM      6  N   UNL     1       3.233   7.117  19.270  0.00  0.00    +0.000 N 
ATOM      7  C   UNL     1       4.281   5.490  17.782  0.00  0.00    +0.000 A 
ATOM      8  C   UNL     1       5.357   6.327  17.350  0.00  0.00    +0.000 A 
ATOM      9  C   UNL     1       6.303   5.893  16.401  0.00  0.00    +0.000 A 
ATOM     10  C   UNL     1       6.161   4.618  15.853  0.00  0.00    +0.000 A 
ATOM     11  C   UNL     1       5.098   3.810  16.301  0.00  0.00    +0.000 A 
ATOM     12  C   UNL     1       4.176   4.205  17.259  0.00  0.00    +0.000 A 
ATOM     13  N   UNL     1       3.237   3.330  17.636  0.00  0.00    +0.000 NA
ATOM     14  H   UNL     1       1.436   2.036  18.241  0.00  0.00    +0.000 HD
ATOM     15  H   UNL     1       4.053   7.283  19.840  0.00  0.00    +0.000 HD
ENDROOT
BRANCH   6  16
ATOM     16  C   UNL     1       2.092   7.851  19.651  0.00  0.00    +0.000 A 
ATOM     17  C   UNL     1       1.610   7.775  20.965  0.00  0.00    +0.000 A 
ATOM     18  C   UNL     1       0.607   8.646  21.426  0.00  0.00    +0.000 A 
ATOM     19  C   UNL     1       0.076   9.634  20.587  0.00  0.00    +0.000 A 
ATOM     20  C   UNL     1       0.509   9.656  19.254  0.00  0.00    +0.000 A 
ATOM     21  C   UNL     1       1.493   8.775  18.791  0.00  0.00    +0.000 A 
BRANCH  19  22
ATOM     22  C   UNL     1      -0.810  10.717  21.051  0.00  0.00    +0.000 A 
ATOM     23  N   UNL     1      -1.166  10.854  22.313  0.00  0.00    +0.000 NA
ATOM     24  C   UNL     1      -2.077  11.882  22.462  0.00  0.00    +0.000 A 
ATOM     25  C   UNL     1      -2.694  12.257  23.671  0.00  0.00    +0.000 A 
ATOM     26  C   UNL     1      -3.603  13.321  23.686  0.00  0.00    +0.000 A 
ATOM     27  C   UNL     1      -3.887  14.012  22.513  0.00  0.00    +0.000 A 
ATOM     28  C   UNL     1      -3.277  13.662  21.303  0.00  0.00    +0.000 A 
ATOM     29  C   UNL     1      -2.381  12.579  21.299  0.00  0.00    +0.000 A 
ATOM     30  S   UNL     1      -1.491  11.890  19.989  0.00  0.00    +0.000 S 
ENDBRANCH  19  22
ENDBRANCH   6  16
BRANCH   9  31
ATOM     31  O   UNL     1       7.432   6.662  16.294  0.00  0.00    +0.000 OA
ATOM     32  C   UNL     1       7.715   7.507  17.406  0.00  0.00    +0.000 C 
ENDBRANCH   9  31
BRANCH  10  33
ATOM     33  O   UNL     1       6.936   3.930  14.966  0.00  0.00    +0.000 OA
ATOM     34  C   UNL     1       6.727   4.035  13.575  0.00  0.00    +0.000 C 
ENDBRANCH  10  33
TORSDOF 4
ENDMDL
MODEL 4
REMARK VINA RESULT:      -8.3      4.557     11.130
REMARK  Name = 
REMARK  7 active torsions:
REMARK  status: ('A' for Active; 'I' for Inactive)
REMARK    1  A    between atoms: C_1  and  N_2
REMARK    2  A    between atoms: N_6  and  C_7
REMARK    3  A    between atoms: C_10  and  C_11
REMARK    4  A    between atoms: C_24  and  O_25
REMARK    5  A    between atoms: O_25  and  C_26
REMARK    6  A    between atoms: C_27  and  O_28
REMARK    7  A    between atoms: O_28  and  C_29
REMARK                            x       y       z     vdW  Elec       q    Type
REMARK                         _______ _______ _______ _____ _____    ______ ____
ROOT
ATOM      1  C   UNL     1      -4.150  10.930  17.881  0.00  0.00    +0.000 C 
ATOM      2  N   UNL     1      -4.420  12.159  18.590  0.00  0.00    +0.000 N 
ATOM      3  C   UNL     1      -3.547  12.421  19.637  0.00  0.00    +0.000 A 
ATOM      4  N   UNL     1      -2.278  12.015  19.578  0.00  0.00    +0.000 NA
ATOM      5  C   UNL     1      -1.456  12.346  20.591  0.00  0.00    +0.000 A 
ATOM      6  N   UNL     1      -0.109  11.918  20.518  0.00  0.00    +0.000 N 
ATOM      7  C   UNL     1      -1.890  13.097  21.700  0.00  0.00    +0.000 A 
ATOM      8  C   UNL     1      -1.094  13.541  22.802  0.00  0.00    +0.000 A 
ATOM      9  C   UNL     1      -1.645  14.272  23.872  0.00  0.00    +0.000 A 
ATOM     10  C   UNL     1      -3.014  14.544  23.859  0.00  0.00    +0.000 A 
ATOM     11  C   UNL     1      -3.774  14.104  22.759  0.00  0.00    +0.000 A 
ATOM     12  C   UNL     1      -3.245  13.412  21.679  0.00  0.00    +0.000 A 
ATOM     13  N   UNL     1      -4.061  13.087  20.670  0.00  0.00    +0.000 NA
ATOM     14  H   UNL     1      -5.358  12.266  18.959  0.00  0.00    +0.000 HD
ATOM     15  H   UNL     1       0.517  12.711  20.451  0.00  0.00    +0.000 HD
ENDROOT
BRANCH   6  16
ATOM     16  C   UNL     1       0.380  10.730  19.937  0.00  0.00    +0.000 A 
ATOM     17  C   UNL     1       0.684  10.687  18.570  0.00  0.00    +0.000 A 
ATOM     18  C   UNL     1       1.361   9.590  18.008  0.00  0.00    +0.000 A 
ATOM     19  C   UNL     1       1.772   8.517  18.808  0.00  0.00    +0.000 A 
ATOM     20  C   UNL     1       1.401   8.532  20.159  0.00  0.00    +0.000 A 
ATOM     21  C   UNL     1       0.709   9.616  20.713  0.00  0.00    +0.000 A 
BRANCH  19  22
ATOM     22  C   UNL     1       2.670   7.443  18.343  0.00  0.00    +0.000 A 
ATOM     23  N   UNL     1       3.631   7.649  17.464  0.00  0.00    +0.000 NA
ATOM     24  C   UNL     1       4.255   6.464  17.125  0.00  0.00    +0.000 A 
ATOM     25  C   UNL     1       5.286   6.326  16.177  0.00  0.00    +0.000 A 
ATOM     26  C   UNL     1       5.836   5.064  15.926  0.00  0.00    +0.000 A 
ATOM     27  C   UNL     1       5.371   3.951  16.620  0.00  0.00    +0.000 A 
ATOM     28  C   UNL     1       4.355   4.068  17.574  0.00  0.00    +0.000 A 
ATOM     29  C   UNL     1       3.799   5.338  17.802  0.00  0.00    +0.000 A 
ATOM     30  S   UNL     1       2.535   5.811  18.879  0.00  0.00    +0.000 S 
ENDBRANCH  19  22
ENDBRANCH   6  16
BRANCH   9  31
ATOM     31  O   UNL     1      -0.742  14.882  24.703  0.00  0.00    +0.000 OA
ATOM     32  C   UNL     1      -0.457  16.247  24.414  0.00  0.00    +0.000 C 
ENDBRANCH   9  31
BRANCH  10  33
ATOM     33  O   UNL     1      -3.797  15.255  24.720  0.00  0.00    +0.000 OA
ATOM     34  C   UNL     1      -4.852  16.066  24.251  0.00  0.00    +0.000 C 
ENDBRANCH  10  33
TORSDOF 4
ENDMDL
MODEL 5
REMARK VINA RESULT:      -8.3      4.738     11.038
REMARK  Name = 
REMARK  7 active torsions:
REMARK  status: ('A' for Active; 'I' for Inactive)
REMARK    1  A    between atoms: C_1  and  N_2
REMARK    2  A    between atoms: N_6  and  C_7
REMARK    3  A    between atoms: C_10  and  C_11
REMARK    4  A    between atoms: C_24  and  O_25
REMARK    5  A    between atoms: O_25  and  C_26
REMARK    6  A    between atoms: C_27  and  O_28
REMARK    7  A    between atoms: O_28  and  C_29
REMARK                            x       y       z     vdW  Elec       q    Type
REMARK                         _______ _______ _______ _____ _____    ______ ____
ROOT
ATOM      1  C   UNL     1      -2.473  10.788  16.974  0.00  0.00    +0.000 C 
ATOM      2  N   UNL     1      -3.220  11.872  17.565  0.00  0.00    +0.000 N 
ATOM      3  C   UNL     1      -3.043  12.010  18.936  0.00  0.00    +0.000 A 
ATOM      4  N   UNL     1      -1.882  11.685  19.504  0.00  0.00    +0.000 NA
ATOM      5  C   UNL     1      -1.740  11.895  20.827  0.00  0.00    +0.000 A 
ATOM      6  N   UNL     1      -0.501  11.555  21.422  0.00  0.00    +0.000 N 
ATOM      7  C   UNL     1      -2.769  12.436  21.620  0.00  0.00    +0.000 A 
ATOM      8  C   UNL     1      -2.709  12.740  23.015  0.00  0.00    +0.000 A 
ATOM      9  C   UNL     1      -3.817  13.262  23.712  0.00  0.00    +0.000 A 
ATOM     10  C   UNL     1      -5.010  13.460  23.016  0.00  0.00    +0.000 A 
ATOM     11  C   UNL     1      -5.040  13.161  21.641  0.00  0.00    +0.000 A 
ATOM     12  C   UNL     1      -3.952  12.678  20.929  0.00  0.00    +0.000 A 
ATOM     13  N   UNL     1      -4.092  12.475  19.613  0.00  0.00    +0.000 NA
ATOM     14  H   UNL     1      -4.220  11.869  17.400  0.00  0.00    +0.000 HD
ATOM     15  H   UNL     1      -0.035  12.380  21.778  0.00  0.00    +0.000 HD
ENDROOT
BRANCH   6  16
ATOM     16  C   UNL     1       0.362  10.502  21.056  0.00  0.00    +0.000 A 
ATOM     17  C   UNL     1       0.688   9.503  21.983  0.00  0.00    +0.000 A 
ATOM     18  C   UNL     1       1.374   8.340  21.590  0.00  0.00    +0.000 A 
ATOM     19  C   UNL     1       1.731   8.137  20.251  0.00  0.00    +0.000 A 
ATOM     20  C   UNL     1       1.468   9.173  19.344  0.00  0.00    +0.000 A 
ATOM     21  C   UNL     1       0.803  10.339  19.740  0.00  0.00    +0.000 A 
BRANCH  19  22
ATOM     22  C   UNL     1       2.249   6.862  19.724  0.00  0.00    +0.000 A 
ATOM     23  N   UNL     1       3.009   6.792  18.649  0.00  0.00    +0.000 NA
ATOM     24  C   UNL     1       3.271   5.478  18.311  0.00  0.00    +0.000 A 
ATOM     25  C   UNL     1       4.009   5.055  17.190  0.00  0.00    +0.000 A 
ATOM     26  C   UNL     1       4.203   3.688  16.961  0.00  0.00    +0.000 A 
ATOM     27  C   UNL     1       3.678   2.752  17.846  0.00  0.00    +0.000 A 
ATOM     28  C   UNL     1       2.951   3.151  18.972  0.00  0.00    +0.000 A 
ATOM     29  C   UNL     1       2.747   4.526  19.178  0.00  0.00    +0.000 A 
ATOM     30  S   UNL     1       1.889   5.336  20.439  0.00  0.00    +0.000 S 
ENDBRANCH  19  22
ENDBRANCH   6  16
BRANCH   9  31
ATOM     31  O   UNL     1      -3.548  13.778  24.952  0.00  0.00    +0.000 OA
ATOM     32  C   UNL     1      -2.770  14.971  24.973  0.00  0.00    +0.000 C 
ENDBRANCH   9  31
BRANCH  10  33
ATOM     33  O   UNL     1      -6.206  13.983  23.412  0.00  0.00    +0.000 OA
ATOM     34  C   UNL     1      -6.368  15.369  23.615  0.00  0.00    +0.000 C 
ENDBRANCH  10  33
TORSDOF 4
ENDMDL
MODEL 6
REMARK VINA RESULT:      -8.3      4.801     10.970
REMARK  Name = 
REMARK  7 active torsions:
REMARK  status: ('A' for Active; 'I' for Inactive)
REMARK    1  A    between atoms: C_1  and  N_2
REMARK    2  A    between atoms: N_6  and  C_7
REMARK    3  A    between atoms: C_10  and  C_11
REMARK    4  A    between atoms: C_24  and  O_25
REMARK    5  A    between atoms: O_25  and  C_26
REMARK    6  A    between atoms: C_27  and  O_28
REMARK    7  A    between atoms: O_28  and  C_29
REMARK                            x       y       z     vdW  Elec       q    Type
REMARK                         _______ _______ _______ _____ _____    ______ ____
ROOT
ATOM      1  C   UNL     1      -2.698  10.343  15.603  0.00  0.00    +0.000 C 
ATOM      2  N   UNL     1      -3.579  11.351  16.144  0.00  0.00    +0.000 N 
ATOM      3  C   UNL     1      -3.406  11.595  17.500  0.00  0.00    +0.000 A 
ATOM      4  N   UNL     1      -2.205  11.465  18.064  0.00  0.00    +0.000 NA
ATOM      5  C   UNL     1      -2.076  11.772  19.368  0.00  0.00    +0.000 A 
ATOM      6  N   UNL     1      -0.796  11.639  19.957  0.00  0.00    +0.000 N 
ATOM      7  C   UNL     1      -3.160  12.217  20.148  0.00  0.00    +0.000 A 
ATOM      8  C   UNL     1      -3.125  12.612  21.522  0.00  0.00    +0.000 A 
ATOM      9  C   UNL     1      -4.285  13.021  22.209  0.00  0.00    +0.000 A 
ATOM     10  C   UNL     1      -5.502  13.014  21.527  0.00  0.00    +0.000 A 
ATOM     11  C   UNL     1      -5.508  12.630  20.172  0.00  0.00    +0.000 A 
ATOM     12  C   UNL     1      -4.373  12.255  19.468  0.00  0.00    +0.000 A 
ATOM     13  N   UNL     1      -4.500  11.955  18.170  0.00  0.00    +0.000 NA
ATOM     14  H   UNL     1      -4.571  11.203  15.999  0.00  0.00    +0.000 HD
ATOM     15  H   UNL     1      -0.442  12.540  20.255  0.00  0.00    +0.000 HD
ENDROOT
BRANCH   6  16
ATOM     16  C   UNL     1       0.197  10.692  19.637  0.00  0.00    +0.000 A 
ATOM     17  C   UNL     1       0.465   9.628  20.510  0.00  0.00    +0.000 A 
ATOM     18  C   UNL     1       1.297   8.562  20.125  0.00  0.00    +0.000 A 
ATOM     19  C   UNL     1       1.865   8.522  18.846  0.00  0.00    +0.000 A 
ATOM     20  C   UNL     1       1.653   9.623  18.005  0.00  0.00    +0.000 A 
ATOM     21  C   UNL     1       0.840  10.694  18.397  0.00  0.00    +0.000 A 
BRANCH  19  22
ATOM     22  C   UNL     1       2.561   7.345  18.293  0.00  0.00    +0.000 A 
ATOM     23  N   UNL     1       2.148   6.111  18.500  0.00  0.00    +0.000 NA
ATOM     24  C   UNL     1       3.032   5.196  17.961  0.00  0.00    +0.000 A 
ATOM     25  C   UNL     1       2.913   3.796  18.050  0.00  0.00    +0.000 A 
ATOM     26  C   UNL     1       3.881   2.977  17.457  0.00  0.00    +0.000 A 
ATOM     27  C   UNL     1       4.950   3.546  16.772  0.00  0.00    +0.000 A 
ATOM     28  C   UNL     1       5.081   4.934  16.662  0.00  0.00    +0.000 A 
ATOM     29  C   UNL     1       4.113   5.744  17.279  0.00  0.00    +0.000 A 
ATOM     30  S   UNL     1       3.997   7.466  17.349  0.00  0.00    +0.000 S 
ENDBRANCH  19  22
ENDBRANCH   6  16
BRANCH   9  31
ATOM     31  O   UNL     1      -4.074  13.644  23.411  0.00  0.00    +0.000 OA
ATOM     32  C   UNL     1      -4.235  12.829  24.568  0.00  0.00    +0.000 C 
ENDBRANCH   9  31
BRANCH  10  33
ATOM     33  O   UNL     1      -6.753  13.394  21.915  0.00  0.00    +0.000 OA
ATOM     34  C   UNL     1      -7.754  13.696  20.968  0.00  0.00    +0.000 C 
ENDBRANCH  10  33
TORSDOF 4
ENDMDL
MODEL 7
REMARK VINA RESULT:      -8.2      4.866     11.094
REMARK  Name = 
REMARK  7 active torsions:
REMARK  status: ('A' for Active; 'I' for Inactive)
REMARK    1  A    between atoms: C_1  and  N_2
REMARK    2  A    between atoms: N_6  and  C_7
REMARK    3  A    between atoms: C_10  and  C_11
REMARK    4  A    between atoms: C_24  and  O_25
REMARK    5  A    between atoms: O_25  and  C_26
REMARK    6  A    between atoms: C_27  and  O_28
REMARK    7  A    between atoms: O_28  and  C_29
REMARK                            x       y       z     vdW  Elec       q    Type
REMARK                         _______ _______ _______ _____ _____    ______ ____
ROOT
ATOM      1  C   UNL     1      -2.638  10.798  17.022  0.00  0.00    +0.000 C 
ATOM      2  N   UNL     1      -3.371  11.893  17.612  0.00  0.00    +0.000 N 
ATOM      3  C   UNL     1      -3.164  12.052  18.976  0.00  0.00    +0.000 A 
ATOM      4  N   UNL     1      -1.992  11.735  19.524  0.00  0.00    +0.000 NA
ATOM      5  C   UNL     1      -1.821  11.965  20.840  0.00  0.00    +0.000 A 
ATOM      6  N   UNL     1      -0.570  11.633  21.414  0.00  0.00    +0.000 N 
ATOM      7  C   UNL     1      -2.832  12.521  21.646  0.00  0.00    +0.000 A 
ATOM      8  C   UNL     1      -2.741  12.847  23.035  0.00  0.00    +0.000 A 
ATOM      9  C   UNL     1      -3.832  13.382  23.747  0.00  0.00    +0.000 A 
ATOM     10  C   UNL     1      -5.040  13.571  23.074  0.00  0.00    +0.000 A 
ATOM     11  C   UNL     1      -5.101  13.250  21.704  0.00  0.00    +0.000 A 
ATOM     12  C   UNL     1      -4.029  12.754  20.977  0.00  0.00    +0.000 A 
ATOM     13  N   UNL     1      -4.197  12.531  19.668  0.00  0.00    +0.000 NA
ATOM     14  H   UNL     1      -4.375  11.889  17.468  0.00  0.00    +0.000 HD
ATOM     15  H   UNL     1      -0.095  12.462  21.746  0.00  0.00    +0.000 HD
ENDROOT
BRANCH   6  16
ATOM     16  C   UNL     1       0.284  10.572  21.046  0.00  0.00    +0.000 A 
ATOM     17  C   UNL     1       0.553   9.537  21.952  0.00  0.00    +0.000 A 
ATOM     18  C   UNL     1       1.227   8.371  21.547  0.00  0.00    +0.000 A 
ATOM     19  C   UNL     1       1.630   8.203  20.217  0.00  0.00    +0.000 A 
ATOM     20  C   UNL     1       1.424   9.272  19.334  0.00  0.00    +0.000 A 
ATOM     21  C   UNL     1       0.770  10.440  19.743  0.00  0.00    +0.000 A 
BRANCH  19  22
ATOM     22  C   UNL     1       2.140   6.933  19.668  0.00  0.00    +0.000 A 
ATOM     23  N   UNL     1       2.067   5.792  20.325  0.00  0.00    +0.000 NA
ATOM     24  C   UNL     1       2.706   4.781  19.635  0.00  0.00    +0.000 A 
ATOM     25  C   UNL     1       2.855   3.454  20.083  0.00  0.00    +0.000 A 
ATOM     26  C   UNL     1       3.528   2.522  19.284  0.00  0.00    +0.000 A 
ATOM     27  C   UNL     1       4.036   2.904  18.047  0.00  0.00    +0.000 A 
ATOM     28  C   UNL     1       3.890   4.213  17.578  0.00  0.00    +0.000 A 
ATOM     29  C   UNL     1       3.231   5.144  18.400  0.00  0.00    +0.000 A 
ATOM     30  S   UNL     1       2.908   6.818  18.130  0.00  0.00    +0.000 S 
ENDBRANCH  19  22
ENDBRANCH   6  16
BRANCH   9  31
ATOM     31  O   UNL     1      -3.536  13.918  24.973  0.00  0.00    +0.000 OA
ATOM     32  C   UNL     1      -2.563  14.958  24.977  0.00  0.00    +0.000 C 
ENDBRANCH   9  31
BRANCH  10  33
ATOM     33  O   UNL     1      -6.226  14.103  23.487  0.00  0.00    +0.000 OA
ATOM     34  C   UNL     1      -7.233  13.294  24.055  0.00  0.00    +0.000 C 
ENDBRANCH  10  33
TORSDOF 4
ENDMDL
MODEL 8
REMARK VINA RESULT:      -8.1      4.714     11.180
REMARK  Name = 
REMARK  7 active torsions:
REMARK  status: ('A' for Active; 'I' for Inactive)
REMARK    1  A    between atoms: C_1  and  N_2
REMARK    2  A    between atoms: N_6  and  C_7
REMARK    3  A    between atoms: C_10  and  C_11
REMARK    4  A    between atoms: C_24  and  O_25
REMARK    5  A    between atoms: O_25  and  C_26
REMARK    6  A    between atoms: C_27  and  O_28
REMARK    7  A    between atoms: O_28  and  C_29
REMARK                            x       y       z     vdW  Elec       q    Type
REMARK                         _______ _______ _______ _____ _____    ______ ____
ROOT
ATOM      1  C   UNL     1       2.703  13.563  19.622  0.00  0.00    +0.000 C 
ATOM      2  N   UNL     1       2.026  14.300  20.662  0.00  0.00    +0.000 N 
ATOM      3  C   UNL     1       0.946  13.635  21.226  0.00  0.00    +0.000 A 
ATOM      4  N   UNL     1       0.943  12.305  21.318  0.00  0.00    +0.000 NA
ATOM      5  C   UNL     1      -0.099  11.710  21.929  0.00  0.00    +0.000 A 
ATOM      6  N   UNL     1      -0.091  10.298  22.029  0.00  0.00    +0.000 N 
ATOM      7  C   UNL     1      -1.177  12.441  22.464  0.00  0.00    +0.000 A 
ATOM      8  C   UNL     1      -2.305  11.917  23.168  0.00  0.00    +0.000 A 
ATOM      9  C   UNL     1      -3.339  12.748  23.641  0.00  0.00    +0.000 A 
ATOM     10  C   UNL     1      -3.263  14.118  23.387  0.00  0.00    +0.000 A 
ATOM     11  C   UNL     1      -2.137  14.610  22.699  0.00  0.00    +0.000 A 
ATOM     12  C   UNL     1      -1.093  13.814  22.254  0.00  0.00    +0.000 A 
ATOM     13  N   UNL     1      -0.054  14.405  21.653  0.00  0.00    +0.000 NA
ATOM     14  H   UNL     1       1.699  15.227  20.413  0.00  0.00    +0.000 HD
ATOM     15  H   UNL     1      -0.039  10.008  22.997  0.00  0.00    +0.000 HD
ENDROOT
BRANCH   6  16
ATOM     16  C   UNL     1       0.450   9.379  21.107  0.00  0.00    +0.000 A 
ATOM     17  C   UNL     1       0.742   9.783  19.798  0.00  0.00    +0.000 A 
ATOM     18  C   UNL     1       1.468   8.954  18.924  0.00  0.00    +0.000 A 
ATOM     19  C   UNL     1       1.941   7.706  19.348  0.00  0.00    +0.000 A 
ATOM     20  C   UNL     1       1.583   7.278  20.634  0.00  0.00    +0.000 A 
ATOM     21  C   UNL     1       0.843   8.096  21.496  0.00  0.00    +0.000 A 
BRANCH  19  22
ATOM     22  C   UNL     1       2.887   6.880  18.576  0.00  0.00    +0.000 A 
ATOM     23  N   UNL     1       3.627   7.368  17.600  0.00  0.00    +0.000 NA
ATOM     24  C   UNL     1       4.347   6.369  16.975  0.00  0.00    +0.000 A 
ATOM     25  C   UNL     1       5.193   6.544  15.865  0.00  0.00    +0.000 A 
ATOM     26  C   UNL     1       5.868   5.444  15.324  0.00  0.00    +0.000 A 
ATOM     27  C   UNL     1       5.711   4.183  15.891  0.00  0.00    +0.000 A 
ATOM     28  C   UNL     1       4.884   3.989  17.002  0.00  0.00    +0.000 A 
ATOM     29  C   UNL     1       4.196   5.099  17.521  0.00  0.00    +0.000 A 
ATOM     30  S   UNL     1       3.098   5.193  18.850  0.00  0.00    +0.000 S 
ENDBRANCH  19  22
ENDBRANCH   6  16
BRANCH   9  31
ATOM     31  O   UNL     1      -4.199  12.173  24.540  0.00  0.00    +0.000 OA
ATOM     32  C   UNL     1      -5.585  12.412  24.313  0.00  0.00    +0.000 C 
ENDBRANCH   9  31
BRANCH  10  33
ATOM     33  O   UNL     1      -4.078  15.148  23.757  0.00  0.00    +0.000 OA
ATOM     34  C   UNL     1      -4.897  15.807  22.816  0.00  0.00    +0.000 C 
ENDBRANCH  10  33
TORSDOF 4
ENDMDL
MODEL 9
REMARK VINA RESULT:      -8.0      4.631     11.063
REMARK  Name = 
REMARK  7 active torsions:
REMARK  status: ('A' for Active; 'I' for Inactive)
REMARK    1  A    between atoms: C_1  and  N_2
REMARK    2  A    between atoms: N_6  and  C_7
REMARK    3  A    between atoms: C_10  and  C_11
REMARK    4  A    between atoms: C_24  and  O_25
REMARK    5  A    between atoms: O_25  and  C_26
REMARK    6  A    between atoms: C_27  and  O_28
REMARK    7  A    between atoms: O_28  and  C_29
REMARK                            x       y       z     vdW  Elec       q    Type
REMARK                         _______ _______ _______ _____ _____    ______ ____
ROOT
ATOM      1  C   UNL     1      -3.763  10.625  16.725  0.00  0.00    +0.000 C 
ATOM      2  N   UNL     1      -4.254  11.784  17.433  0.00  0.00    +0.000 N 
ATOM      3  C   UNL     1      -3.677  11.980  18.680  0.00  0.00    +0.000 A 
ATOM      4  N   UNL     1      -2.417  11.611  18.910  0.00  0.00    +0.000 NA
ATOM      5  C   UNL     1      -1.885  11.879  20.117  0.00  0.00    +0.000 A 
ATOM      6  N   UNL     1      -0.543  11.492  20.351  0.00  0.00    +0.000 N 
ATOM      7  C   UNL     1      -2.611  12.526  21.135  0.00  0.00    +0.000 A 
ATOM      8  C   UNL     1      -2.131  12.897  22.430  0.00  0.00    +0.000 A 
ATOM      9  C   UNL     1      -2.961  13.523  23.380  0.00  0.00    +0.000 A 
ATOM     10  C   UNL     1      -4.295  13.761  23.047  0.00  0.00    +0.000 A 
ATOM     11  C   UNL     1      -4.741  13.394  21.762  0.00  0.00    +0.000 A 
ATOM     12  C   UNL     1      -3.932  12.807  20.801  0.00  0.00    +0.000 A 
ATOM     13  N   UNL     1      -4.459  12.546  19.599  0.00  0.00    +0.000 NA
ATOM     14  H   UNL     1      -5.258  11.836  17.563  0.00  0.00    +0.000 HD
ATOM     15  H   UNL     1       0.044  12.303  20.500  0.00  0.00    +0.000 HD
ENDROOT
BRANCH   6  16
ATOM     16  C   UNL     1       0.126  10.368  19.823  0.00  0.00    +0.000 A 
ATOM     17  C   UNL     1       0.486  10.332  18.470  0.00  0.00    +0.000 A 
ATOM     18  C   UNL     1       1.328   9.325  17.966  0.00  0.00    +0.000 A 
ATOM     19  C   UNL     1       1.851   8.340  18.812  0.00  0.00    +0.000 A 
ATOM     20  C   UNL     1       1.428   8.338  20.148  0.00  0.00    +0.000 A 
ATOM     21  C   UNL     1       0.574   9.330  20.644  0.00  0.00    +0.000 A 
BRANCH  19  22
ATOM     22  C   UNL     1       2.905   7.389  18.412  0.00  0.00    +0.000 A 
ATOM     23  N   UNL     1       3.662   7.571  17.349  0.00  0.00    +0.000 NA
ATOM     24  C   UNL     1       4.495   6.489  17.142  0.00  0.00    +0.000 A 
ATOM     25  C   UNL     1       5.392   6.342  16.067  0.00  0.00    +0.000 A 
ATOM     26  C   UNL     1       6.184   5.191  15.975  0.00  0.00    +0.000 A 
ATOM     27  C   UNL     1       6.092   4.202  16.949  0.00  0.00    +0.000 A 
ATOM     28  C   UNL     1       5.216   4.333  18.031  0.00  0.00    +0.000 A 
ATOM     29  C   UNL     1       4.413   5.484  18.100  0.00  0.00    +0.000 A 
ATOM     30  S   UNL     1       3.230   5.934  19.276  0.00  0.00    +0.000 S 
ENDBRANCH  19  22
ENDBRANCH   6  16
BRANCH   9  31
ATOM     31  O   UNL     1      -2.318  14.085  24.452  0.00  0.00    +0.000 OA
ATOM     32  C   UNL     1      -1.186  14.892  24.143  0.00  0.00    +0.000 C 
ENDBRANCH   9  31
BRANCH  10  33
ATOM     33  O   UNL     1      -5.297  14.380  23.735  0.00  0.00    +0.000 OA
ATOM     34  C   UNL     1      -6.616  13.881  23.714  0.00  0.00    +0.000 C 
ENDBRANCH  10  33
TORSDOF 4
ENDMDL
