MODEL 1
REMARK VINA RESULT:      -7.2      0.000      0.000
REMARK  Name = 
REMARK  7 active torsions:
REMARK  status: ('A' for Active; 'I' for Inactive)
REMARK    1  A    between atoms: C_1  and  O_2
REMARK    2  A    between atoms: O_2  and  C_3
REMARK    3  A    between atoms: C_3  and  C_4
REMARK    4  A    between atoms: C_4  and  N_5
REMARK    5  A    between atoms: N_5  and  C_6
REMARK    6  A    between atoms: N_13  and  C_14
REMARK    7  A    between atoms: C_18  and  C_19
REMARK                            x       y       z     vdW  Elec       q    Type
REMARK                         _______ _______ _______ _____ _____    ______ ____
ROOT
ATOM      1  N   UNL     1       3.541   3.376  20.483  0.00  0.00    +0.000 N 
ATOM      2  C   UNL     1       4.156   2.128  20.908  0.00  0.00    +0.000 C 
ATOM      3  C   UNL     1       4.134   4.226  19.550  0.00  0.00    +0.000 C 
ATOM      4  O   UNL     1       3.803   5.407  19.453  0.00  0.00    +0.000 OA
ATOM      5  N   UNL     1       5.066   3.614  18.743  0.00  0.00    +0.000 N 
ATOM      6  C   UNL     1       5.768   4.307  17.783  0.00  0.00    +0.000 A 
ATOM      7  C   UNL     1       6.323   5.597  17.874  0.00  0.00    +0.000 A 
ATOM      8  C   UNL     1       6.913   5.815  16.654  0.00  0.00    +0.000 A 
ATOM      9  N   UNL     1       6.600   4.728  15.867  0.00  0.00    +0.000 N 
ATOM     10  N   UNL     1       6.026   3.740  16.603  0.00  0.00    +0.000 NA
ATOM     11  H   UNL     1       4.862   2.666  18.470  0.00  0.00    +0.000 HD
ENDROOT
BRANCH   9  12
ATOM     12  C   UNL     1       6.761   4.607  14.455  0.00  0.00    +0.000 A 
ATOM     13  C   UNL     1       7.809   5.259  13.794  0.00  0.00    +0.000 A 
ATOM     14  C   UNL     1       7.909   5.200  12.403  0.00  0.00    +0.000 A 
ATOM     15  C   UNL     1       6.955   4.508  11.661  0.00  0.00    +0.000 A 
ATOM     16  C   UNL     1       5.893   3.851  12.297  0.00  0.00    +0.000 A 
ATOM     17  C   UNL     1       5.816   3.883  13.701  0.00  0.00    +0.000 A 
BRANCH  16  18
ATOM     18  C   UNL     1       4.830   3.142  11.493  0.00  0.00    +0.000 C 
ATOM     19  F   UNL     1       5.200   1.887  11.099  0.00  0.00    +0.000 F 
ATOM     20  F   UNL     1       3.665   2.984  12.177  0.00  0.00    +0.000 F 
ATOM     21  F   UNL     1       4.509   3.805  10.348  0.00  0.00    +0.000 F 
ENDBRANCH  16  18
ENDBRANCH   9  12
BRANCH   1  22
ATOM     22  C   UNL     1       2.382   3.868  21.239  0.00  0.00    +0.000 C 
BRANCH  22  23
ATOM     23  C   UNL     1       1.080   3.118  20.925  0.00  0.00    +0.000 C 
BRANCH  23  25
ATOM     24  C   UNL     1       0.847   2.295  18.732  0.00  0.00    +0.000 C 
ATOM     25  O   UNL     1       0.640   3.407  19.592  0.00  0.00    +0.000 OA
ENDBRANCH  23  25
ENDBRANCH  22  23
ENDBRANCH   1  22
TORSDOF 5
ENDMDL
MODEL 2
REMARK VINA RESULT:      -7.1      6.941      8.910
REMARK  Name = 
REMARK  7 active torsions:
REMARK  status: ('A' for Active; 'I' for Inactive)
REMARK    1  A    between atoms: C_1  and  O_2
REMARK    2  A    between atoms: O_2  and  C_3
REMARK    3  A    between atoms: C_3  and  C_4
REMARK    4  A    between atoms: C_4  and  N_5
REMARK    5  A    between atoms: N_5  and  C_6
REMARK    6  A    between atoms: N_13  and  C_14
REMARK    7  A    between atoms: C_18  and  C_19
REMARK                            x       y       z     vdW  Elec       q    Type
REMARK                         _______ _______ _______ _____ _____    ______ ____
ROOT
ATOM      1  N   UNL     1       3.863   5.408  18.365  0.00  0.00    +0.000 N 
ATOM      2  C   UNL     1       4.956   6.103  17.702  0.00  0.00    +0.000 C 
ATOM      3  C   UNL     1       2.876   6.076  19.089  0.00  0.00    +0.000 C 
ATOM      4  O   UNL     1       2.177   5.492  19.914  0.00  0.00    +0.000 OA
ATOM      5  N   UNL     1       2.741   7.407  18.760  0.00  0.00    +0.000 N 
ATOM      6  C   UNL     1       1.834   8.226  19.392  0.00  0.00    +0.000 A 
ATOM      7  C   UNL     1       1.509   8.271  20.760  0.00  0.00    +0.000 A 
ATOM      8  C   UNL     1       0.556   9.254  20.866  0.00  0.00    +0.000 A 
ATOM      9  N   UNL     1       0.274   9.666  19.581  0.00  0.00    +0.000 N 
ATOM     10  N   UNL     1       1.160   9.142  18.694  0.00  0.00    +0.000 NA
ATOM     11  H   UNL     1       2.866   7.637  17.787  0.00  0.00    +0.000 HD
ENDROOT
BRANCH   9  12
ATOM     12  C   UNL     1      -0.820  10.474  19.154  0.00  0.00    +0.000 A 
ATOM     13  C   UNL     1      -1.347  11.468  19.986  0.00  0.00    +0.000 A 
ATOM     14  C   UNL     1      -2.469  12.197  19.589  0.00  0.00    +0.000 A 
ATOM     15  C   UNL     1      -3.085  11.926  18.370  0.00  0.00    +0.000 A 
ATOM     16  C   UNL     1      -2.582  10.933  17.520  0.00  0.00    +0.000 A 
ATOM     17  C   UNL     1      -1.429  10.225  17.907  0.00  0.00    +0.000 A 
BRANCH  16  18
ATOM     18  C   UNL     1      -3.275  10.603  16.220  0.00  0.00    +0.000 C 
ATOM     19  F   UNL     1      -4.587  10.984  16.197  0.00  0.00    +0.000 F 
ATOM     20  F   UNL     1      -2.699  11.203  15.144  0.00  0.00    +0.000 F 
ATOM     21  F   UNL     1      -3.279   9.268  15.952  0.00  0.00    +0.000 F 
ENDBRANCH  16  18
ENDBRANCH   9  12
BRANCH   1  22
ATOM     22  C   UNL     1       3.941   3.946  18.475  0.00  0.00    +0.000 C 
BRANCH  22  23
ATOM     23  C   UNL     1       3.258   3.205  17.317  0.00  0.00    +0.000 C 
BRANCH  23  25
ATOM     24  C   UNL     1       1.454   2.373  18.580  0.00  0.00    +0.000 C 
ATOM     25  O   UNL     1       1.836   3.200  17.490  0.00  0.00    +0.000 OA
ENDBRANCH  23  25
ENDBRANCH  22  23
ENDBRANCH   1  22
TORSDOF 5
ENDMDL
MODEL 3
REMARK VINA RESULT:      -7.0      6.996      8.421
REMARK  Name = 
REMARK  7 active torsions:
REMARK  status: ('A' for Active; 'I' for Inactive)
REMARK    1  A    between atoms: C_1  and  O_2
REMARK    2  A    between atoms: O_2  and  C_3
REMARK    3  A    between atoms: C_3  and  C_4
REMARK    4  A    between atoms: C_4  and  N_5
REMARK    5  A    between atoms: N_5  and  C_6
REMARK    6  A    between atoms: N_13  and  C_14
REMARK    7  A    between atoms: C_18  and  C_19
REMARK                            x       y       z     vdW  Elec       q    Type
REMARK                         _______ _______ _______ _____ _____    ______ ____
ROOT
ATOM      1  N   UNL     1      -1.213  11.585  21.125  0.00  0.00    +0.000 N 
ATOM      2  C   UNL     1      -0.536  11.853  22.386  0.00  0.00    +0.000 C 
ATOM      3  C   UNL     1      -0.596  10.919  20.067  0.00  0.00    +0.000 C 
ATOM      4  O   UNL     1      -1.026  10.999  18.918  0.00  0.00    +0.000 OA
ATOM      5  N   UNL     1       0.485  10.151  20.440  0.00  0.00    +0.000 N 
ATOM      6  C   UNL     1       1.229   9.445  19.522  0.00  0.00    +0.000 A 
ATOM      7  C   UNL     1       1.639   9.852  18.239  0.00  0.00    +0.000 A 
ATOM      8  C   UNL     1       2.352   8.788  17.742  0.00  0.00    +0.000 A 
ATOM      9  N   UNL     1       2.246   7.776  18.672  0.00  0.00    +0.000 N 
ATOM     10  N   UNL     1       1.684   8.228  19.824  0.00  0.00    +0.000 NA
ATOM     11  H   UNL     1       0.409   9.681  21.327  0.00  0.00    +0.000 HD
ENDROOT
BRANCH   9  12
ATOM     12  C   UNL     1       2.591   6.404  18.499  0.00  0.00    +0.000 A 
ATOM     13  C   UNL     1       3.593   6.023  17.599  0.00  0.00    +0.000 A 
ATOM     14  C   UNL     1       3.866   4.673  17.378  0.00  0.00    +0.000 A 
ATOM     15  C   UNL     1       3.129   3.692  18.038  0.00  0.00    +0.000 A 
ATOM     16  C   UNL     1       2.117   4.045  18.940  0.00  0.00    +0.000 A 
ATOM     17  C   UNL     1       1.869   5.408  19.186  0.00  0.00    +0.000 A 
BRANCH  16  18
ATOM     18  C   UNL     1       1.282   2.986  19.619  0.00  0.00    +0.000 C 
ATOM     19  F   UNL     1       0.579   3.459  20.690  0.00  0.00    +0.000 F 
ATOM     20  F   UNL     1       0.360   2.426  18.791  0.00  0.00    +0.000 F 
ATOM     21  F   UNL     1       2.032   1.956  20.101  0.00  0.00    +0.000 F 
ENDBRANCH  16  18
ENDBRANCH   9  12
BRANCH   1  22
ATOM     22  C   UNL     1      -2.499  12.250  20.877  0.00  0.00    +0.000 C 
BRANCH  22  23
ATOM     23  C   UNL     1      -3.175  12.775  22.151  0.00  0.00    +0.000 C 
BRANCH  23  25
ATOM     24  C   UNL     1      -5.303  12.636  21.153  0.00  0.00    +0.000 C 
ATOM     25  O   UNL     1      -4.506  12.257  22.267  0.00  0.00    +0.000 OA
ENDBRANCH  23  25
ENDBRANCH  22  23
ENDBRANCH   1  22
TORSDOF 5
ENDMDL
MODEL 4
REMARK VINA RESULT:      -7.0      6.921      8.538
REMARK  Name = 
REMARK  7 active torsions:
REMARK  status: ('A' for Active; 'I' for Inactive)
REMARK    1  A    between atoms: C_1  and  O_2
REMARK    2  A    between atoms: O_2  and  C_3
REMARK    3  A    between atoms: C_3  and  C_4
REMARK    4  A    between atoms: C_4  and  N_5
REMARK    5  A    between atoms: N_5  and  C_6
REMARK    6  A    between atoms: N_13  and  C_14
REMARK    7  A    between atoms: C_18  and  C_19
REMARK                            x       y       z     vdW  Elec       q    Type
REMARK                         _______ _______ _______ _____ _____    ______ ____
ROOT
ATOM      1  N   UNL     1      -1.297  11.547  20.083  0.00  0.00    +0.000 N 
ATOM      2  C   UNL     1      -0.768  12.162  21.291  0.00  0.00    +0.000 C 
ATOM      3  C   UNL     1      -0.550  10.671  19.297  0.00  0.00    +0.000 C 
ATOM      4  O   UNL     1      -0.857  10.433  18.130  0.00  0.00    +0.000 OA
ATOM      5  N   UNL     1       0.506  10.084  19.956  0.00  0.00    +0.000 N 
ATOM      6  C   UNL     1       1.365   9.212  19.327  0.00  0.00    +0.000 A 
ATOM      7  C   UNL     1       1.899   9.303  18.028  0.00  0.00    +0.000 A 
ATOM      8  C   UNL     1       2.692   8.190  17.893  0.00  0.00    +0.000 A 
ATOM      9  N   UNL     1       2.517   7.442  19.037  0.00  0.00    +0.000 N 
ATOM     10  N   UNL     1       1.822   8.138  19.975  0.00  0.00    +0.000 NA
ATOM     11  H   UNL     1       0.350   9.850  20.923  0.00  0.00    +0.000 HD
ENDROOT
BRANCH   9  12
ATOM     12  C   UNL     1       2.919   6.092  19.257  0.00  0.00    +0.000 A 
ATOM     13  C   UNL     1       4.237   5.687  19.015  0.00  0.00    +0.000 A 
ATOM     14  C   UNL     1       4.599   4.346  19.156  0.00  0.00    +0.000 A 
ATOM     15  C   UNL     1       3.646   3.398  19.520  0.00  0.00    +0.000 A 
ATOM     16  C   UNL     1       2.319   3.775  19.764  0.00  0.00    +0.000 A 
ATOM     17  C   UNL     1       1.966   5.133  19.655  0.00  0.00    +0.000 A 
BRANCH  16  18
ATOM     18  C   UNL     1       1.273   2.743  20.110  0.00  0.00    +0.000 C 
ATOM     19  F   UNL     1       0.984   2.696  21.444  0.00  0.00    +0.000 F 
ATOM     20  F   UNL     1       0.085   2.962  19.484  0.00  0.00    +0.000 F 
ATOM     21  F   UNL     1       1.651   1.480  19.773  0.00  0.00    +0.000 F 
ENDBRANCH  16  18
ENDBRANCH   9  12
BRANCH   1  22
ATOM     22  C   UNL     1      -2.568  12.054  19.550  0.00  0.00    +0.000 C 
BRANCH  22  23
ATOM     23  C   UNL     1      -3.382  12.864  20.568  0.00  0.00    +0.000 C 
BRANCH  23  25
ATOM     24  C   UNL     1      -5.094  12.228  19.082  0.00  0.00    +0.000 C 
ATOM     25  O   UNL     1      -4.783  12.602  20.417  0.00  0.00    +0.000 OA
ENDBRANCH  23  25
ENDBRANCH  22  23
ENDBRANCH   1  22
TORSDOF 5
ENDMDL
MODEL 5
REMARK VINA RESULT:      -7.0      6.700      8.147
REMARK  Name = 
REMARK  7 active torsions:
REMARK  status: ('A' for Active; 'I' for Inactive)
REMARK    1  A    between atoms: C_1  and  O_2
REMARK    2  A    between atoms: O_2  and  C_3
REMARK    3  A    between atoms: C_3  and  C_4
REMARK    4  A    between atoms: C_4  and  N_5
REMARK    5  A    between atoms: N_5  and  C_6
REMARK    6  A    between atoms: N_13  and  C_14
REMARK    7  A    between atoms: C_18  and  C_19
REMARK                            x       y       z     vdW  Elec       q    Type
REMARK                         _______ _______ _______ _____ _____    ______ ____
ROOT
ATOM      1  N   UNL     1      -0.816  11.288  20.545  0.00  0.00    +0.000 N 
ATOM      2  C   UNL     1      -0.263  11.483  21.876  0.00  0.00    +0.000 C 
ATOM      3  C   UNL     1      -0.143  10.587  19.546  0.00  0.00    +0.000 C 
ATOM      4  O   UNL     1      -0.436  10.716  18.359  0.00  0.00    +0.000 OA
ATOM      5  N   UNL     1       0.825   9.727  20.016  0.00  0.00    +0.000 N 
ATOM      6  C   UNL     1       1.605   8.974  19.170  0.00  0.00    +0.000 A 
ATOM      7  C   UNL     1       2.186   9.361  17.948  0.00  0.00    +0.000 A 
ATOM      8  C   UNL     1       2.860   8.248  17.508  0.00  0.00    +0.000 A 
ATOM      9  N   UNL     1       2.571   7.237  18.399  0.00  0.00    +0.000 N 
ATOM     10  N   UNL     1       1.925   7.719  19.493  0.00  0.00    +0.000 NA
ATOM     11  H   UNL     1       0.614   9.254  20.880  0.00  0.00    +0.000 HD
ENDROOT
BRANCH   9  12
ATOM     12  C   UNL     1       2.821   5.843  18.235  0.00  0.00    +0.000 A 
ATOM     13  C   UNL     1       3.841   5.391  17.391  0.00  0.00    +0.000 A 
ATOM     14  C   UNL     1       4.023   4.024  17.175  0.00  0.00    +0.000 A 
ATOM     15  C   UNL     1       3.177   3.100  17.784  0.00  0.00    +0.000 A 
ATOM     16  C   UNL     1       2.145   3.525  18.631  0.00  0.00    +0.000 A 
ATOM     17  C   UNL     1       1.987   4.902  18.873  0.00  0.00    +0.000 A 
BRANCH  16  18
ATOM     18  C   UNL     1       1.196   2.530  19.253  0.00  0.00    +0.000 C 
ATOM     19  F   UNL     1       0.133   2.225  18.451  0.00  0.00    +0.000 F 
ATOM     20  F   UNL     1       1.790   1.342  19.545  0.00  0.00    +0.000 F 
ATOM     21  F   UNL     1       0.656   2.979  20.419  0.00  0.00    +0.000 F 
ENDBRANCH  16  18
ENDBRANCH   9  12
BRANCH   1  22
ATOM     22  C   UNL     1      -2.009  12.060  20.173  0.00  0.00    +0.000 C 
BRANCH  22  23
ATOM     23  C   UNL     1      -1.807  13.580  20.248  0.00  0.00    +0.000 C 
BRANCH  23  25
ATOM     24  C   UNL     1      -0.496  15.365  19.450  0.00  0.00    +0.000 C 
ATOM     25  O   UNL     1      -0.889  14.017  19.238  0.00  0.00    +0.000 OA
ENDBRANCH  23  25
ENDBRANCH  22  23
ENDBRANCH   1  22
TORSDOF 5
ENDMDL
MODEL 6
REMARK VINA RESULT:      -6.9      7.037      8.587
REMARK  Name = 
REMARK  7 active torsions:
REMARK  status: ('A' for Active; 'I' for Inactive)
REMARK    1  A    between atoms: C_1  and  O_2
REMARK    2  A    between atoms: O_2  and  C_3
REMARK    3  A    between atoms: C_3  and  C_4
REMARK    4  A    between atoms: C_4  and  N_5
REMARK    5  A    between atoms: N_5  and  C_6
REMARK    6  A    between atoms: N_13  and  C_14
REMARK    7  A    between atoms: C_18  and  C_19
REMARK                            x       y       z     vdW  Elec       q    Type
REMARK                         _______ _______ _______ _____ _____    ______ ____
ROOT
ATOM      1  N   UNL     1      -0.993  11.486  20.266  0.00  0.00    +0.000 N 
ATOM      2  C   UNL     1      -0.407  11.928  21.522  0.00  0.00    +0.000 C 
ATOM      3  C   UNL     1      -0.321  10.650  19.375  0.00  0.00    +0.000 C 
ATOM      4  O   UNL     1      -0.657  10.563  18.196  0.00  0.00    +0.000 OA
ATOM      5  N   UNL     1       0.699   9.923  19.947  0.00  0.00    +0.000 N 
ATOM      6  C   UNL     1       1.485   9.066  19.212  0.00  0.00    +0.000 A 
ATOM      7  C   UNL     1       2.009   9.259  17.920  0.00  0.00    +0.000 A 
ATOM      8  C   UNL     1       2.718   8.115  17.651  0.00  0.00    +0.000 A 
ATOM      9  N   UNL     1       2.503   7.261  18.712  0.00  0.00    +0.000 N 
ATOM     10  N   UNL     1       1.871   7.899  19.732  0.00  0.00    +0.000 NA
ATOM     11  H   UNL     1       0.537   9.596  20.887  0.00  0.00    +0.000 HD
ENDROOT
BRANCH   9  12
ATOM     12  C   UNL     1       2.810   5.870  18.778  0.00  0.00    +0.000 A 
ATOM     13  C   UNL     1       3.273   5.183  17.650  0.00  0.00    +0.000 A 
ATOM     14  C   UNL     1       3.492   3.806  17.705  0.00  0.00    +0.000 A 
ATOM     15  C   UNL     1       3.233   3.101  18.879  0.00  0.00    +0.000 A 
ATOM     16  C   UNL     1       2.763   3.764  20.021  0.00  0.00    +0.000 A 
ATOM     17  C   UNL     1       2.578   5.158  19.971  0.00  0.00    +0.000 A 
BRANCH  16  18
ATOM     18  C   UNL     1       2.433   2.997  21.279  0.00  0.00    +0.000 C 
ATOM     19  F   UNL     1       1.301   2.241  21.167  0.00  0.00    +0.000 F 
ATOM     20  F   UNL     1       3.417   2.133  21.646  0.00  0.00    +0.000 F 
ATOM     21  F   UNL     1       2.225   3.811  22.350  0.00  0.00    +0.000 F 
ENDBRANCH  16  18
ENDBRANCH   9  12
BRANCH   1  22
ATOM     22  C   UNL     1      -2.231  12.136  19.815  0.00  0.00    +0.000 C 
BRANCH  22  23
ATOM     23  C   UNL     1      -3.091  12.684  20.962  0.00  0.00    +0.000 C 
BRANCH  23  25
ATOM     24  C   UNL     1      -4.826  12.320  19.412  0.00  0.00    +0.000 C 
ATOM     25  O   UNL     1      -4.354  13.146  20.468  0.00  0.00    +0.000 OA
ENDBRANCH  23  25
ENDBRANCH  22  23
ENDBRANCH   1  22
TORSDOF 5
ENDMDL
MODEL 7
REMARK VINA RESULT:      -6.9      5.002      6.229
REMARK  Name = 
REMARK  7 active torsions:
REMARK  status: ('A' for Active; 'I' for Inactive)
REMARK    1  A    between atoms: C_1  and  O_2
REMARK    2  A    between atoms: O_2  and  C_3
REMARK    3  A    between atoms: C_3  and  C_4
REMARK    4  A    between atoms: C_4  and  N_5
REMARK    5  A    between atoms: N_5  and  C_6
REMARK    6  A    between atoms: N_13  and  C_14
REMARK    7  A    between atoms: C_18  and  C_19
REMARK                            x       y       z     vdW  Elec       q    Type
REMARK                         _______ _______ _______ _____ _____    ______ ____
ROOT
ATOM      1  N   UNL     1       0.392  10.226  20.408  0.00  0.00    +0.000 N 
ATOM      2  C   UNL     1      -0.367  10.485  19.194  0.00  0.00    +0.000 C 
ATOM      3  C   UNL     1       1.137   9.063  20.595  0.00  0.00    +0.000 C 
ATOM      4  O   UNL     1       1.481   8.692  21.715  0.00  0.00    +0.000 OA
ATOM      5  N   UNL     1       1.475   8.418  19.426  0.00  0.00    +0.000 N 
ATOM      6  C   UNL     1       2.188   7.241  19.423  0.00  0.00    +0.000 A 
ATOM      7  C   UNL     1       2.050   6.139  20.288  0.00  0.00    +0.000 A 
ATOM      8  C   UNL     1       2.990   5.234  19.860  0.00  0.00    +0.000 A 
ATOM      9  N   UNL     1       3.707   5.855  18.861  0.00  0.00    +0.000 N 
ATOM     10  N   UNL     1       3.121   7.026  18.494  0.00  0.00    +0.000 NA
ATOM     11  H   UNL     1       1.693   9.009  18.641  0.00  0.00    +0.000 HD
ENDROOT
BRANCH   9  12
ATOM     12  C   UNL     1       4.941   5.428  18.288  0.00  0.00    +0.000 A 
ATOM     13  C   UNL     1       6.113   5.393  19.051  0.00  0.00    +0.000 A 
ATOM     14  C   UNL     1       7.330   5.051  18.459  0.00  0.00    +0.000 A 
ATOM     15  C   UNL     1       7.389   4.760  17.098  0.00  0.00    +0.000 A 
ATOM     16  C   UNL     1       6.232   4.793  16.309  0.00  0.00    +0.000 A 
ATOM     17  C   UNL     1       5.002   5.104  16.918  0.00  0.00    +0.000 A 
BRANCH  16  18
ATOM     18  C   UNL     1       6.300   4.528  14.825  0.00  0.00    +0.000 C 
ATOM     19  F   UNL     1       5.226   5.019  14.140  0.00  0.00    +0.000 F 
ATOM     20  F   UNL     1       7.395   5.081  14.237  0.00  0.00    +0.000 F 
ATOM     21  F   UNL     1       6.344   3.199  14.530  0.00  0.00    +0.000 F 
ENDBRANCH  16  18
ENDBRANCH   9  12
BRANCH   1  22
ATOM     22  C   UNL     1       0.169  11.106  21.563  0.00  0.00    +0.000 C 
BRANCH  22  23
ATOM     23  C   UNL     1      -0.642  12.365  21.228  0.00  0.00    +0.000 C 
BRANCH  23  25
ATOM     24  C   UNL     1      -1.885  11.615  23.082  0.00  0.00    +0.000 C 
ATOM     25  O   UNL     1      -1.935  12.310  21.844  0.00  0.00    +0.000 OA
ENDBRANCH  23  25
ENDBRANCH  22  23
ENDBRANCH   1  22
TORSDOF 5
ENDMDL
MODEL 8
REMARK VINA RESULT:      -6.9      6.969      9.150
REMARK  Name = 
REMARK  7 active torsions:
REMARK  status: ('A' for Active; 'I' for Inactive)
REMARK    1  A    between atoms: C_1  and  O_2
REMARK    2  A    between atoms: O_2  and  C_3
REMARK    3  A    between atoms: C_3  and  C_4
REMARK    4  A    between atoms: C_4  and  N_5
REMARK    5  A    between atoms: N_5  and  C_6
REMARK    6  A    between atoms: N_13  and  C_14
REMARK    7  A    between atoms: C_18  and  C_19
REMARK                            x       y       z     vdW  Elec       q    Type
REMARK                         _______ _______ _______ _____ _____    ______ ____
ROOT
ATOM      1  N   UNL     1       4.369   5.840  17.205  0.00  0.00    +0.000 N 
ATOM      2  C   UNL     1       5.420   6.717  16.711  0.00  0.00    +0.000 C 
ATOM      3  C   UNL     1       3.339   6.291  18.029  0.00  0.00    +0.000 C 
ATOM      4  O   UNL     1       2.673   5.515  18.711  0.00  0.00    +0.000 OA
ATOM      5  N   UNL     1       3.122   7.650  17.967  0.00  0.00    +0.000 N 
ATOM      6  C   UNL     1       2.162   8.272  18.731  0.00  0.00    +0.000 A 
ATOM      7  C   UNL     1       1.828   8.025  20.076  0.00  0.00    +0.000 A 
ATOM      8  C   UNL     1       0.815   8.909  20.357  0.00  0.00    +0.000 A 
ATOM      9  N   UNL     1       0.514   9.549  19.174  0.00  0.00    +0.000 N 
ATOM     10  N   UNL     1       1.436   9.266  18.216  0.00  0.00    +0.000 NA
ATOM     11  H   UNL     1       3.237   8.076  17.061  0.00  0.00    +0.000 HD
ENDROOT
BRANCH   9  12
ATOM     12  C   UNL     1      -0.626  10.358  18.895  0.00  0.00    +0.000 A 
ATOM     13  C   UNL     1      -1.085  11.298  19.825  0.00  0.00    +0.000 A 
ATOM     14  C   UNL     1      -2.249  12.026  19.575  0.00  0.00    +0.000 A 
ATOM     15  C   UNL     1      -2.975  11.808  18.406  0.00  0.00    +0.000 A 
ATOM     16  C   UNL     1      -2.540  10.869  17.460  0.00  0.00    +0.000 A 
ATOM     17  C   UNL     1      -1.347  10.163  17.700  0.00  0.00    +0.000 A 
BRANCH  16  18
ATOM     18  C   UNL     1      -3.350  10.594  16.216  0.00  0.00    +0.000 C 
ATOM     19  F   UNL     1      -4.692  10.771  16.397  0.00  0.00    +0.000 F 
ATOM     20  F   UNL     1      -3.010  11.400  15.174  0.00  0.00    +0.000 F 
ATOM     21  F   UNL     1      -3.207   9.317  15.768  0.00  0.00    +0.000 F 
ENDBRANCH  16  18
ENDBRANCH   9  12
BRANCH   1  22
ATOM     22  C   UNL     1       4.537   4.392  17.027  0.00  0.00    +0.000 C 
BRANCH  22  23
ATOM     23  C   UNL     1       5.694   4.019  16.090  0.00  0.00    +0.000 C 
BRANCH  23  25
ATOM     24  C   UNL     1       6.346   3.980  13.828  0.00  0.00    +0.000 C 
ATOM     25  O   UNL     1       5.247   3.974  14.730  0.00  0.00    +0.000 OA
ENDBRANCH  23  25
ENDBRANCH  22  23
ENDBRANCH   1  22
TORSDOF 5
ENDMDL
MODEL 9
REMARK VINA RESULT:      -6.9      6.993      8.977
REMARK  Name = 
REMARK  7 active torsions:
REMARK  status: ('A' for Active; 'I' for Inactive)
REMARK    1  A    between atoms: C_1  and  O_2
REMARK    2  A    between atoms: O_2  and  C_3
REMARK    3  A    between atoms: C_3  and  C_4
REMARK    4  A    between atoms: C_4  and  N_5
REMARK    5  A    between atoms: N_5  and  C_6
REMARK    6  A    between atoms: N_13  and  C_14
REMARK    7  A    between atoms: C_18  and  C_19
REMARK                            x       y       z     vdW  Elec       q    Type
REMARK                         _______ _______ _______ _____ _____    ______ ____
ROOT
ATOM      1  N   UNL     1       4.019   5.616  17.927  0.00  0.00    +0.000 N 
ATOM      2  C   UNL     1       5.099   6.387  17.331  0.00  0.00    +0.000 C 
ATOM      3  C   UNL     1       3.009   6.201  18.690  0.00  0.00    +0.000 C 
ATOM      4  O   UNL     1       2.318   5.538  19.461  0.00  0.00    +0.000 OA
ATOM      5  N   UNL     1       2.842   7.549  18.462  0.00  0.00    +0.000 N 
ATOM      6  C   UNL     1       1.908   8.293  19.145  0.00  0.00    +0.000 A 
ATOM      7  C   UNL     1       1.571   8.225  20.510  0.00  0.00    +0.000 A 
ATOM      8  C   UNL     1       0.591   9.172  20.681  0.00  0.00    +0.000 A 
ATOM      9  N   UNL     1       0.309   9.675  19.428  0.00  0.00    +0.000 N 
ATOM     10  N   UNL     1       1.216   9.243  18.513  0.00  0.00    +0.000 NA
ATOM     11  H   UNL     1       2.968   7.856  17.511  0.00  0.00    +0.000 HD
ENDROOT
BRANCH   9  12
ATOM     12  C   UNL     1      -0.802  10.484  19.052  0.00  0.00    +0.000 A 
ATOM     13  C   UNL     1      -1.294  11.473  19.912  0.00  0.00    +0.000 A 
ATOM     14  C   UNL     1      -2.432  12.204  19.568  0.00  0.00    +0.000 A 
ATOM     15  C   UNL     1      -3.099  11.941  18.374  0.00  0.00    +0.000 A 
ATOM     16  C   UNL     1      -2.632  10.953  17.497  0.00  0.00    +0.000 A 
ATOM     17  C   UNL     1      -1.464  10.243  17.831  0.00  0.00    +0.000 A 
BRANCH  16  18
ATOM     18  C   UNL     1      -3.380  10.630  16.226  0.00  0.00    +0.000 C 
ATOM     19  F   UNL     1      -4.706  10.950  16.286  0.00  0.00    +0.000 F 
ATOM     20  F   UNL     1      -2.891  11.288  15.141  0.00  0.00    +0.000 F 
ATOM     21  F   UNL     1      -3.338   9.305  15.915  0.00  0.00    +0.000 F 
ENDBRANCH  16  18
ENDBRANCH   9  12
BRANCH   1  22
ATOM     22  C   UNL     1       4.134   4.151  17.927  0.00  0.00    +0.000 C 
BRANCH  22  23
ATOM     23  C   UNL     1       4.908   3.595  19.129  0.00  0.00    +0.000 C 
BRANCH  23  25
ATOM     24  C   UNL     1       3.589   1.685  18.733  0.00  0.00    +0.000 C 
ATOM     25  O   UNL     1       4.197   2.501  19.724  0.00  0.00    +0.000 OA
ENDBRANCH  23  25
ENDBRANCH  22  23
ENDBRANCH   1  22
TORSDOF 5
ENDMDL
