MODEL 1
REMARK VINA RESULT:      -6.9      0.000      0.000
REMARK  Name = 
REMARK  4 active torsions:
REMARK  status: ('A' for Active; 'I' for Inactive)
REMARK    1  A    between atoms: C_1  and  C_2
REMARK    2  A    between atoms: C_5  and  C_6
REMARK    3  A    between atoms: C_6  and  N_7
REMARK    4  A    between atoms: C_8  and  C_10
REMARK                            x       y       z     vdW  Elec       q    Type
REMARK                         _______ _______ _______ _____ _____    ______ ____
ROOT
ATOM      1  N   UNL     1       5.793   3.719  18.523  0.00  0.00    +0.000 N 
ATOM      2  C   UNL     1       4.637   3.976  19.239  0.00  0.00    +0.000 C 
ATOM      3  O   UNL     1       4.226   5.130  19.376  0.00  0.00    +0.000 OA
ATOM      4  H   UNL     1       6.218   2.795  18.503  0.00  0.00    +0.000 HD
ENDROOT
BRANCH   2   5
ATOM      5  C   UNL     1       3.926   2.760  19.848  0.00  0.00    +0.000 C 
ATOM      6  C   UNL     1       2.657   3.068  20.682  0.00  0.00    +0.000 C 
ATOM      7  C   UNL     1       1.467   3.534  19.839  0.00  0.00    +0.000 C 
ATOM      8  C   UNL     1       1.174   2.572  18.692  0.00  0.00    +0.000 C 
ATOM      9  C   UNL     1       2.424   2.287  17.865  0.00  0.00    +0.000 C 
ATOM     10  C   UNL     1       3.566   1.768  18.738  0.00  0.00    +0.000 C 
ENDBRANCH   2   5
BRANCH   1  11
ATOM     11  C   UNL     1       6.517   4.814  17.886  0.00  0.00    +0.000 C 
BRANCH  11  16
ATOM     12  C   UNL     1       8.023   5.472  13.203  0.00  0.00    +0.000 C 
ATOM     13  C   UNL     1       7.129   4.935  14.260  0.00  0.00    +0.000 A 
ATOM     14  C   UNL     1       6.012   4.143  14.071  0.00  0.00    +0.000 A 
ATOM     15  S   UNL     1       5.304   3.763  15.588  0.00  0.00    +0.000 S 
ATOM     16  C   UNL     1       6.526   4.686  16.384  0.00  0.00    +0.000 A 
ATOM     17  N   UNL     1       7.417   5.242  15.580  0.00  0.00    +0.000 NA
ENDBRANCH  11  16
ENDBRANCH   1  11
TORSDOF 3
ENDMDL
MODEL 2
REMARK VINA RESULT:      -6.8      1.221      1.327
REMARK  Name = 
REMARK  4 active torsions:
REMARK  status: ('A' for Active; 'I' for Inactive)
REMARK    1  A    between atoms: C_1  and  C_2
REMARK    2  A    between atoms: C_5  and  C_6
REMARK    3  A    between atoms: C_6  and  N_7
REMARK    4  A    between atoms: C_8  and  C_10
REMARK                            x       y       z     vdW  Elec       q    Type
REMARK                         _______ _______ _______ _____ _____    ______ ____
ROOT
ATOM      1  N   UNL     1       5.512   3.556  19.107  0.00  0.00    +0.000 N 
ATOM      2  C   UNL     1       4.255   3.769  19.644  0.00  0.00    +0.000 C 
ATOM      3  O   UNL     1       3.797   4.909  19.738  0.00  0.00    +0.000 OA
ATOM      4  H   UNL     1       5.960   2.643  19.134  0.00  0.00    +0.000 HD
ENDROOT
BRANCH   2   5
ATOM      5  C   UNL     1       3.493   2.522  20.113  0.00  0.00    +0.000 C 
ATOM      6  C   UNL     1       2.258   2.784  21.012  0.00  0.00    +0.000 C 
ATOM      7  C   UNL     1       1.078   3.412  20.265  0.00  0.00    +0.000 C 
ATOM      8  C   UNL     1       0.713   2.619  19.015  0.00  0.00    +0.000 C 
ATOM      9  C   UNL     1       1.930   2.379  18.126  0.00  0.00    +0.000 C 
ATOM     10  C   UNL     1       3.060   1.698  18.897  0.00  0.00    +0.000 C 
ENDBRANCH   2   5
BRANCH   1  11
ATOM     11  C   UNL     1       6.295   4.683  18.609  0.00  0.00    +0.000 C 
BRANCH  11  16
ATOM     12  C   UNL     1       6.205   3.899  13.709  0.00  0.00    +0.000 C 
ATOM     13  C   UNL     1       5.957   4.683  14.946  0.00  0.00    +0.000 A 
ATOM     14  C   UNL     1       5.389   5.941  15.024  0.00  0.00    +0.000 A 
ATOM     15  S   UNL     1       5.300   6.439  16.664  0.00  0.00    +0.000 S 
ATOM     16  C   UNL     1       6.030   4.952  17.149  0.00  0.00    +0.000 A 
ATOM     17  N   UNL     1       6.321   4.125  16.160  0.00  0.00    +0.000 NA
ENDBRANCH  11  16
ENDBRANCH   1  11
TORSDOF 3
ENDMDL
MODEL 3
REMARK VINA RESULT:      -6.7      1.064      1.095
REMARK  Name = 
REMARK  4 active torsions:
REMARK  status: ('A' for Active; 'I' for Inactive)
REMARK    1  A    between atoms: C_1  and  C_2
REMARK    2  A    between atoms: C_5  and  C_6
REMARK    3  A    between atoms: C_6  and  N_7
REMARK    4  A    between atoms: C_8  and  C_10
REMARK                            x       y       z     vdW  Elec       q    Type
REMARK                         _______ _______ _______ _____ _____    ______ ____
ROOT
ATOM      1  N   UNL     1       6.286   4.006  18.214  0.00  0.00    +0.000 N 
ATOM      2  C   UNL     1       5.203   4.693  18.732  0.00  0.00    +0.000 C 
ATOM      3  O   UNL     1       5.092   5.910  18.567  0.00  0.00    +0.000 OA
ATOM      4  H   UNL     1       6.463   3.031  18.442  0.00  0.00    +0.000 HD
ENDROOT
BRANCH   2   5
ATOM      5  C   UNL     1       4.178   3.861  19.515  0.00  0.00    +0.000 C 
ATOM      6  C   UNL     1       3.001   4.653  20.137  0.00  0.00    +0.000 C 
ATOM      7  C   UNL     1       2.005   5.186  19.103  0.00  0.00    +0.000 C 
ATOM      8  C   UNL     1       1.518   4.085  18.167  0.00  0.00    +0.000 C 
ATOM      9  C   UNL     1       2.683   3.321  17.544  0.00  0.00    +0.000 C 
ATOM     10  C   UNL     1       3.618   2.757  18.614  0.00  0.00    +0.000 C 
ENDBRANCH   2   5
BRANCH   1  11
ATOM     11  C   UNL     1       7.295   4.714  17.431  0.00  0.00    +0.000 C 
BRANCH  11  16
ATOM     12  C   UNL     1       7.878   5.511  12.567  0.00  0.00    +0.000 C 
ATOM     13  C   UNL     1       7.238   4.895  13.757  0.00  0.00    +0.000 A 
ATOM     14  C   UNL     1       6.179   4.006  13.755  0.00  0.00    +0.000 A 
ATOM     15  S   UNL     1       5.788   3.562  15.366  0.00  0.00    +0.000 S 
ATOM     16  C   UNL     1       7.047   4.590  15.949  0.00  0.00    +0.000 A 
ATOM     17  N   UNL     1       7.728   5.224  15.010  0.00  0.00    +0.000 NA
ENDBRANCH  11  16
ENDBRANCH   1  11
TORSDOF 3
ENDMDL
MODEL 4
REMARK VINA RESULT:      -6.6      1.271      1.612
REMARK  Name = 
REMARK  4 active torsions:
REMARK  status: ('A' for Active; 'I' for Inactive)
REMARK    1  A    between atoms: C_1  and  C_2
REMARK    2  A    between atoms: C_5  and  C_6
REMARK    3  A    between atoms: C_6  and  N_7
REMARK    4  A    between atoms: C_8  and  C_10
REMARK                            x       y       z     vdW  Elec       q    Type
REMARK                         _______ _______ _______ _____ _____    ______ ____
ROOT
ATOM      1  N   UNL     1       5.426   5.467  18.223  0.00  0.00    +0.000 N 
ATOM      2  C   UNL     1       4.840   4.631  19.157  0.00  0.00    +0.000 C 
ATOM      3  O   UNL     1       5.411   3.602  19.526  0.00  0.00    +0.000 OA
ATOM      4  H   UNL     1       4.922   6.250  17.812  0.00  0.00    +0.000 HD
ENDROOT
BRANCH   2   5
ATOM      5  C   UNL     1       3.460   5.052  19.680  0.00  0.00    +0.000 C 
ATOM      6  C   UNL     1       2.471   5.593  18.616  0.00  0.00    +0.000 C 
ATOM      7  C   UNL     1       1.949   4.516  17.660  0.00  0.00    +0.000 C 
ATOM      8  C   UNL     1       1.376   3.321  18.414  0.00  0.00    +0.000 C 
ATOM      9  C   UNL     1       2.361   2.783  19.448  0.00  0.00    +0.000 C 
ATOM     10  C   UNL     1       2.809   3.878  20.416  0.00  0.00    +0.000 C 
ENDBRANCH   2   5
BRANCH   1  11
ATOM     11  C   UNL     1       6.751   5.157  17.694  0.00  0.00    +0.000 C 
BRANCH  11  16
ATOM     12  C   UNL     1       8.000   5.396  12.897  0.00  0.00    +0.000 C 
ATOM     13  C   UNL     1       7.204   4.909  14.052  0.00  0.00    +0.000 A 
ATOM     14  C   UNL     1       6.159   4.005  14.009  0.00  0.00    +0.000 A 
ATOM     15  S   UNL     1       5.550   3.743  15.592  0.00  0.00    +0.000 S 
ATOM     16  C   UNL     1       6.712   4.857  16.217  0.00  0.00    +0.000 A 
ATOM     17  N   UNL     1       7.514   5.392  15.313  0.00  0.00    +0.000 NA
ENDBRANCH  11  16
ENDBRANCH   1  11
TORSDOF 3
ENDMDL
MODEL 5
REMARK VINA RESULT:      -6.5      2.231      3.122
REMARK  Name = 
REMARK  4 active torsions:
REMARK  status: ('A' for Active; 'I' for Inactive)
REMARK    1  A    between atoms: C_1  and  C_2
REMARK    2  A    between atoms: C_5  and  C_6
REMARK    3  A    between atoms: C_6  and  N_7
REMARK    4  A    between atoms: C_8  and  C_10
REMARK                            x       y       z     vdW  Elec       q    Type
REMARK                         _______ _______ _______ _____ _____    ______ ____
ROOT
ATOM      1  N   UNL     1       4.182   4.070  16.898  0.00  0.00    +0.000 N 
ATOM      2  C   UNL     1       2.957   4.013  17.538  0.00  0.00    +0.000 C 
ATOM      3  O   UNL     1       2.279   5.031  17.691  0.00  0.00    +0.000 OA
ATOM      4  H   UNL     1       4.812   3.272  16.871  0.00  0.00    +0.000 HD
ENDROOT
BRANCH   2   5
ATOM      5  C   UNL     1       2.515   2.633  18.044  0.00  0.00    +0.000 C 
ATOM      6  C   UNL     1       3.455   1.959  19.074  0.00  0.00    +0.000 C 
ATOM      7  C   UNL     1       3.444   2.635  20.449  0.00  0.00    +0.000 C 
ATOM      8  C   UNL     1       2.028   2.794  20.990  0.00  0.00    +0.000 C 
ATOM      9  C   UNL     1       1.112   3.473  19.976  0.00  0.00    +0.000 C 
ATOM     10  C   UNL     1       1.108   2.732  18.640  0.00  0.00    +0.000 C 
ENDBRANCH   2   5
BRANCH   1  11
ATOM     11  C   UNL     1       4.667   5.338  16.359  0.00  0.00    +0.000 C 
BRANCH  11  16
ATOM     12  C   UNL     1       8.181   8.525  17.817  0.00  0.00    +0.000 C 
ATOM     13  C   UNL     1       7.437   7.240  17.856  0.00  0.00    +0.000 A 
ATOM     14  C   UNL     1       7.689   6.167  18.691  0.00  0.00    +0.000 A 
ATOM     15  S   UNL     1       6.566   4.908  18.376  0.00  0.00    +0.000 S 
ATOM     16  C   UNL     1       5.834   5.875  17.148  0.00  0.00    +0.000 A 
ATOM     17  N   UNL     1       6.379   7.067  16.978  0.00  0.00    +0.000 NA
ENDBRANCH  11  16
ENDBRANCH   1  11
TORSDOF 3
ENDMDL
MODEL 6
REMARK VINA RESULT:      -6.5      2.444      3.382
REMARK  Name = 
REMARK  4 active torsions:
REMARK  status: ('A' for Active; 'I' for Inactive)
REMARK    1  A    between atoms: C_1  and  C_2
REMARK    2  A    between atoms: C_5  and  C_6
REMARK    3  A    between atoms: C_6  and  N_7
REMARK    4  A    between atoms: C_8  and  C_10
REMARK                            x       y       z     vdW  Elec       q    Type
REMARK                         _______ _______ _______ _____ _____    ______ ____
ROOT
ATOM      1  N   UNL     1       3.868   5.239  17.085  0.00  0.00    +0.000 N 
ATOM      2  C   UNL     1       3.207   4.116  17.550  0.00  0.00    +0.000 C 
ATOM      3  O   UNL     1       3.703   2.995  17.420  0.00  0.00    +0.000 OA
ATOM      4  H   UNL     1       3.425   6.155  17.069  0.00  0.00    +0.000 HD
ENDROOT
BRANCH   2   5
ATOM      5  C   UNL     1       1.843   4.353  18.214  0.00  0.00    +0.000 C 
ATOM      6  C   UNL     1       1.080   3.080  18.660  0.00  0.00    +0.000 C 
ATOM      7  C   UNL     1       1.714   2.375  19.863  0.00  0.00    +0.000 C 
ATOM      8  C   UNL     1       1.947   3.335  21.024  0.00  0.00    +0.000 C 
ATOM      9  C   UNL     1       2.714   4.578  20.581  0.00  0.00    +0.000 C 
ATOM     10  C   UNL     1       2.014   5.282  19.419  0.00  0.00    +0.000 C 
ENDBRANCH   2   5
BRANCH   1  11
ATOM     11  C   UNL     1       5.184   5.109  16.466  0.00  0.00    +0.000 C 
BRANCH  11  16
ATOM     12  C   UNL     1       8.122   8.920  17.682  0.00  0.00    +0.000 C 
ATOM     13  C   UNL     1       7.592   7.539  17.819  0.00  0.00    +0.000 A 
ATOM     14  C   UNL     1       7.998   6.588  18.736  0.00  0.00    +0.000 A 
ATOM     15  S   UNL     1       7.095   5.145  18.517  0.00  0.00    +0.000 S 
ATOM     16  C   UNL     1       6.238   5.885  17.214  0.00  0.00    +0.000 A 
ATOM     17  N   UNL     1       6.589   7.133  16.954  0.00  0.00    +0.000 NA
ENDBRANCH  11  16
ENDBRANCH   1  11
TORSDOF 3
ENDMDL
MODEL 7
REMARK VINA RESULT:      -6.4      2.391      3.406
REMARK  Name = 
REMARK  4 active torsions:
REMARK  status: ('A' for Active; 'I' for Inactive)
REMARK    1  A    between atoms: C_1  and  C_2
REMARK    2  A    between atoms: C_5  and  C_6
REMARK    3  A    between atoms: C_6  and  N_7
REMARK    4  A    between atoms: C_8  and  C_10
REMARK                            x       y       z     vdW  Elec       q    Type
REMARK                         _______ _______ _______ _____ _____    ______ ____
ROOT
ATOM      1  N   UNL     1       3.713   3.994  16.941  0.00  0.00    +0.000 N 
ATOM      2  C   UNL     1       2.935   3.030  17.558  0.00  0.00    +0.000 C 
ATOM      3  O   UNL     1       3.390   1.908  17.789  0.00  0.00    +0.000 OA
ATOM      4  H   UNL     1       3.324   4.880  16.629  0.00  0.00    +0.000 HD
ENDROOT
BRANCH   2   5
ATOM      5  C   UNL     1       1.500   3.439  17.916  0.00  0.00    +0.000 C 
ATOM      6  C   UNL     1       0.770   2.522  18.930  0.00  0.00    +0.000 C 
ATOM      7  C   UNL     1       1.318   2.626  20.356  0.00  0.00    +0.000 C 
ATOM      8  C   UNL     1       1.375   4.072  20.836  0.00  0.00    +0.000 C 
ATOM      9  C   UNL     1       2.110   4.966  19.841  0.00  0.00    +0.000 C 
ATOM     10  C   UNL     1       1.492   4.875  18.446  0.00  0.00    +0.000 C 
ENDBRANCH   2   5
BRANCH   1  11
ATOM     11  C   UNL     1       5.100   3.700  16.592  0.00  0.00    +0.000 C 
BRANCH  11  16
ATOM     12  C   UNL     1       8.215   5.670  19.916  0.00  0.00    +0.000 C 
ATOM     13  C   UNL     1       7.458   5.645  18.638  0.00  0.00    +0.000 A 
ATOM     14  C   UNL     1       7.465   6.620  17.657  0.00  0.00    +0.000 A 
ATOM     15  S   UNL     1       6.443   6.150  16.362  0.00  0.00    +0.000 S 
ATOM     16  C   UNL     1       6.057   4.692  17.202  0.00  0.00    +0.000 A 
ATOM     17  N   UNL     1       6.653   4.550  18.374  0.00  0.00    +0.000 NA
ENDBRANCH  11  16
ENDBRANCH   1  11
TORSDOF 3
ENDMDL
MODEL 8
REMARK VINA RESULT:      -6.3      1.481      1.846
REMARK  Name = 
REMARK  4 active torsions:
REMARK  status: ('A' for Active; 'I' for Inactive)
REMARK    1  A    between atoms: C_1  and  C_2
REMARK    2  A    between atoms: C_5  and  C_6
REMARK    3  A    between atoms: C_6  and  N_7
REMARK    4  A    between atoms: C_8  and  C_10
REMARK                            x       y       z     vdW  Elec       q    Type
REMARK                         _______ _______ _______ _____ _____    ______ ____
ROOT
ATOM      1  N   UNL     1       3.716   4.148  17.732  0.00  0.00    +0.000 N 
ATOM      2  C   UNL     1       4.264   3.594  18.875  0.00  0.00    +0.000 C 
ATOM      3  O   UNL     1       5.271   4.084  19.391  0.00  0.00    +0.000 OA
ATOM      4  H   UNL     1       2.965   3.690  17.220  0.00  0.00    +0.000 HD
ENDROOT
BRANCH   2   5
ATOM      5  C   UNL     1       3.559   2.353  19.438  0.00  0.00    +0.000 C 
ATOM      6  C   UNL     1       3.314   2.351  20.968  0.00  0.00    +0.000 C 
ATOM      7  C   UNL     1       2.246   3.351  21.419  0.00  0.00    +0.000 C 
ATOM      8  C   UNL     1       0.948   3.185  20.636  0.00  0.00    +0.000 C 
ATOM      9  C   UNL     1       1.194   3.204  19.130  0.00  0.00    +0.000 C 
ATOM     10  C   UNL     1       2.222   2.151  18.717  0.00  0.00    +0.000 C 
ENDBRANCH   2   5
BRANCH   1  11
ATOM     11  C   UNL     1       4.306   5.347  17.145  0.00  0.00    +0.000 C 
BRANCH  11  16
ATOM     12  C   UNL     1       6.022   3.564  12.843  0.00  0.00    +0.000 C 
ATOM     13  C   UNL     1       6.148   4.239  14.160  0.00  0.00    +0.000 A 
ATOM     14  C   UNL     1       7.309   4.740  14.721  0.00  0.00    +0.000 A 
ATOM     15  S   UNL     1       6.962   5.437  16.251  0.00  0.00    +0.000 S 
ATOM     16  C   UNL     1       5.299   5.015  16.060  0.00  0.00    +0.000 A 
ATOM     17  N   UNL     1       5.007   4.398  14.928  0.00  0.00    +0.000 NA
ENDBRANCH  11  16
ENDBRANCH   1  11
TORSDOF 3
ENDMDL
MODEL 9
REMARK VINA RESULT:      -6.3      2.462      5.793
REMARK  Name = 
REMARK  4 active torsions:
REMARK  status: ('A' for Active; 'I' for Inactive)
REMARK    1  A    between atoms: C_1  and  C_2
REMARK    2  A    between atoms: C_5  and  C_6
REMARK    3  A    between atoms: C_6  and  N_7
REMARK    4  A    between atoms: C_8  and  C_10
REMARK                            x       y       z     vdW  Elec       q    Type
REMARK                         _______ _______ _______ _____ _____    ______ ____
ROOT
ATOM      1  N   UNL     1       5.466   3.666  18.466  0.00  0.00    +0.000 N 
ATOM      2  C   UNL     1       6.475   4.588  18.680  0.00  0.00    +0.000 C 
ATOM      3  O   UNL     1       6.746   4.972  19.819  0.00  0.00    +0.000 OA
ATOM      4  H   UNL     1       5.142   3.430  17.531  0.00  0.00    +0.000 HD
ENDROOT
BRANCH   2   5
ATOM      5  C   UNL     1       7.209   5.097  17.431  0.00  0.00    +0.000 C 
ATOM      6  C   UNL     1       6.765   4.471  16.085  0.00  0.00    +0.000 C 
ATOM      7  C   UNL     1       5.371   4.913  15.633  0.00  0.00    +0.000 C 
ATOM      8  C   UNL     1       5.233   6.432  15.626  0.00  0.00    +0.000 C 
ATOM      9  C   UNL     1       5.656   7.040  16.961  0.00  0.00    +0.000 C 
ATOM     10  C   UNL     1       7.074   6.620  17.343  0.00  0.00    +0.000 C 
ENDBRANCH   2   5
BRANCH   1  11
ATOM     11  C   UNL     1       4.735   3.107  19.600  0.00  0.00    +0.000 C 
BRANCH  11  16
ATOM     12  C   UNL     1       1.783   7.033  20.312  0.00  0.00    +0.000 C 
ATOM     13  C   UNL     1       2.088   5.581  20.234  0.00  0.00    +0.000 A 
ATOM     14  C   UNL     1       1.201   4.541  20.444  0.00  0.00    +0.000 A 
ATOM     15  S   UNL     1       2.006   3.039  20.238  0.00  0.00    +0.000 S 
ATOM     16  C   UNL     1       3.474   3.879  19.894  0.00  0.00    +0.000 A 
ATOM     17  N   UNL     1       3.382   5.198  19.922  0.00  0.00    +0.000 NA
ENDBRANCH  11  16
ENDBRANCH   1  11
TORSDOF 3
ENDMDL
