MODEL 1
REMARK VINA RESULT:      -7.1      0.000      0.000
REMARK  Name = 
REMARK  6 active torsions:
REMARK  status: ('A' for Active; 'I' for Inactive)
REMARK    1  A    between atoms: C_1  and  C_2
REMARK    2  A    between atoms: C_2  and  C_3
REMARK    3  A    between atoms: C_3  and  C_4
REMARK    4  A    between atoms: C_4  and  SE_5
REMARK    5  A    between atoms: C_13  and  C_14
REMARK    6  A    between atoms: O_15  and  C_16
REMARK                            x       y       z     vdW  Elec       q    Type
REMARK                         _______ _______ _______ _____ _____    ______ ____
ROOT
ATOM      1 SE   UNL     1       4.422   4.435  18.103  0.00  0.00    +0.000 Se
ATOM      2 CL   UNL     1       3.146   3.262  16.709  0.00  0.00    +0.000 Cl
ATOM      3  C   UNL     1       3.457   3.832  19.543  0.00  0.00    +0.000 A 
ATOM      4  C   UNL     1       3.626   2.707  20.350  0.00  0.00    +0.000 A 
ATOM      5  C   UNL     1       2.694   2.484  21.369  0.00  0.00    +0.000 A 
ATOM      6  C   UNL     1       1.613   3.361  21.540  0.00  0.00    +0.000 A 
ATOM      7  C   UNL     1       1.460   4.475  20.699  0.00  0.00    +0.000 A 
ATOM      8  C   UNL     1       2.410   4.730  19.693  0.00  0.00    +0.000 A 
ATOM      9  C   UNL     1       2.324   5.935  18.713  0.00  0.00    +0.000 C 
ATOM     10  C   UNL     1       2.167   7.248  19.522  0.00  0.00    +0.000 C 
ATOM     11  O   UNL     1       3.398   5.923  17.716  0.00  0.00    +0.000 OA
ATOM     12  C   UNL     1       4.144   7.110  17.540  0.00  0.00    +0.000 C 
ENDROOT
BRANCH   1  13
ATOM     13  C   UNL     1       5.913   5.197  19.182  0.00  0.00    +0.000 C 
BRANCH  13  14
ATOM     14  C   UNL     1       7.143   5.416  18.269  0.00  0.00    +0.000 C 
BRANCH  14  16
ATOM     15  C   UNL     1       7.725   7.767  17.588  0.00  0.00    +0.000 C 
ATOM     16  C   UNL     1       7.997   6.648  18.604  0.00  0.00    +0.000 C 
ENDBRANCH  14  16
ENDBRANCH  13  14
ENDBRANCH   1  13
TORSDOF 3
ENDMDL
MODEL 2
REMARK VINA RESULT:      -6.7      0.872      1.116
REMARK  Name = 
REMARK  6 active torsions:
REMARK  status: ('A' for Active; 'I' for Inactive)
REMARK    1  A    between atoms: C_1  and  C_2
REMARK    2  A    between atoms: C_2  and  C_3
REMARK    3  A    between atoms: C_3  and  C_4
REMARK    4  A    between atoms: C_4  and  SE_5
REMARK    5  A    between atoms: C_13  and  C_14
REMARK    6  A    between atoms: O_15  and  C_16
REMARK                            x       y       z     vdW  Elec       q    Type
REMARK                         _______ _______ _______ _____ _____    ______ ____
ROOT
ATOM      1 SE   UNL     1       4.253   4.339  17.962  0.00  0.00    +0.000 Se
ATOM      2 CL   UNL     1       2.768   3.225  16.736  0.00  0.00    +0.000 Cl
ATOM      3  C   UNL     1       3.458   3.753  19.509  0.00  0.00    +0.000 A 
ATOM      4  C   UNL     1       3.690   2.614  20.281  0.00  0.00    +0.000 A 
ATOM      5  C   UNL     1       2.888   2.411  21.410  0.00  0.00    +0.000 A 
ATOM      6  C   UNL     1       1.870   3.323  21.723  0.00  0.00    +0.000 A 
ATOM      7  C   UNL     1       1.650   4.450  20.917  0.00  0.00    +0.000 A 
ATOM      8  C   UNL     1       2.472   4.684  19.798  0.00  0.00    +0.000 A 
ATOM      9  C   UNL     1       2.303   5.902  18.846  0.00  0.00    +0.000 C 
ATOM     10  C   UNL     1       2.298   7.211  19.678  0.00  0.00    +0.000 C 
ATOM     11  O   UNL     1       3.240   5.865  17.719  0.00  0.00    +0.000 OA
ATOM     12  C   UNL     1       3.999   7.027  17.458  0.00  0.00    +0.000 C 
ENDROOT
BRANCH   1  13
ATOM     13  C   UNL     1       5.895   5.038  18.846  0.00  0.00    +0.000 C 
BRANCH  13  14
ATOM     14  C   UNL     1       7.118   4.764  17.939  0.00  0.00    +0.000 C 
BRANCH  14  16
ATOM     15  C   UNL     1       7.008   4.874  15.427  0.00  0.00    +0.000 C 
ATOM     16  C   UNL     1       7.242   5.681  16.712  0.00  0.00    +0.000 C 
ENDBRANCH  14  16
ENDBRANCH  13  14
ENDBRANCH   1  13
TORSDOF 3
ENDMDL
MODEL 3
REMARK VINA RESULT:      -6.7      3.205      4.259
REMARK  Name = 
REMARK  6 active torsions:
REMARK  status: ('A' for Active; 'I' for Inactive)
REMARK    1  A    between atoms: C_1  and  C_2
REMARK    2  A    between atoms: C_2  and  C_3
REMARK    3  A    between atoms: C_3  and  C_4
REMARK    4  A    between atoms: C_4  and  SE_5
REMARK    5  A    between atoms: C_13  and  C_14
REMARK    6  A    between atoms: O_15  and  C_16
REMARK                            x       y       z     vdW  Elec       q    Type
REMARK                         _______ _______ _______ _____ _____    ______ ____
ROOT
ATOM      1 SE   UNL     1       5.082   6.018  16.428  0.00  0.00    +0.000 Se
ATOM      2 CL   UNL     1       3.437   7.253  17.273  0.00  0.00    +0.000 Cl
ATOM      3  C   UNL     1       4.521   4.558  17.389  0.00  0.00    +0.000 A 
ATOM      4  C   UNL     1       3.612   3.549  17.069  0.00  0.00    +0.000 A 
ATOM      5  C   UNL     1       3.353   2.569  18.034  0.00  0.00    +0.000 A 
ATOM      6  C   UNL     1       3.976   2.633  19.288  0.00  0.00    +0.000 A 
ATOM      7  C   UNL     1       4.872   3.671  19.586  0.00  0.00    +0.000 A 
ATOM      8  C   UNL     1       5.168   4.644  18.612  0.00  0.00    +0.000 A 
ATOM      9  C   UNL     1       6.144   5.831  18.850  0.00  0.00    +0.000 C 
ATOM     10  C   UNL     1       7.502   5.289  19.366  0.00  0.00    +0.000 C 
ATOM     11  O   UNL     1       6.214   6.737  17.700  0.00  0.00    +0.000 OA
ATOM     12  C   UNL     1       7.494   7.078  17.210  0.00  0.00    +0.000 C 
ENDROOT
BRANCH   1  13
ATOM     13  C   UNL     1       6.331   5.002  15.255  0.00  0.00    +0.000 C 
BRANCH  13  14
ATOM     14  C   UNL     1       5.534   4.370  14.089  0.00  0.00    +0.000 C 
BRANCH  14  16
ATOM     15  C   UNL     1       5.483   3.092  11.922  0.00  0.00    +0.000 C 
ATOM     16  C   UNL     1       6.387   3.780  12.956  0.00  0.00    +0.000 C 
ENDBRANCH  14  16
ENDBRANCH  13  14
ENDBRANCH   1  13
TORSDOF 3
ENDMDL
MODEL 4
REMARK VINA RESULT:      -6.6      2.747      4.302
REMARK  Name = 
REMARK  6 active torsions:
REMARK  status: ('A' for Active; 'I' for Inactive)
REMARK    1  A    between atoms: C_1  and  C_2
REMARK    2  A    between atoms: C_2  and  C_3
REMARK    3  A    between atoms: C_3  and  C_4
REMARK    4  A    between atoms: C_4  and  SE_5
REMARK    5  A    between atoms: C_13  and  C_14
REMARK    6  A    between atoms: O_15  and  C_16
REMARK                            x       y       z     vdW  Elec       q    Type
REMARK                         _______ _______ _______ _____ _____    ______ ____
ROOT
ATOM      1 SE   UNL     1       5.328   4.550  18.156  0.00  0.00    +0.000 Se
ATOM      2 CL   UNL     1       6.667   5.566  19.613  0.00  0.00    +0.000 Cl
ATOM      3  C   UNL     1       4.193   5.993  18.147  0.00  0.00    +0.000 A 
ATOM      4  C   UNL     1       4.177   7.138  17.350  0.00  0.00    +0.000 A 
ATOM      5  C   UNL     1       3.193   8.100  17.603  0.00  0.00    +0.000 A 
ATOM      6  C   UNL     1       2.279   7.914  18.650  0.00  0.00    +0.000 A 
ATOM      7  C   UNL     1       2.333   6.760  19.446  0.00  0.00    +0.000 A 
ATOM      8  C   UNL     1       3.295   5.768  19.180  0.00  0.00    +0.000 A 
ATOM      9  C   UNL     1       3.433   4.458  20.007  0.00  0.00    +0.000 C 
ATOM     10  C   UNL     1       2.060   3.742  20.075  0.00  0.00    +0.000 C 
ATOM     11  O   UNL     1       4.562   3.634  19.566  0.00  0.00    +0.000 OA
ATOM     12  C   UNL     1       4.316   2.269  19.304  0.00  0.00    +0.000 C 
ENDROOT
BRANCH   1  13
ATOM     13  C   UNL     1       4.518   3.664  16.567  0.00  0.00    +0.000 C 
BRANCH  13  14
ATOM     14  C   UNL     1       5.617   3.414  15.506  0.00  0.00    +0.000 C 
BRANCH  14  16
ATOM     15  C   UNL     1       6.118   3.703  13.057  0.00  0.00    +0.000 C 
ATOM     16  C   UNL     1       5.633   4.407  14.334  0.00  0.00    +0.000 C 
ENDBRANCH  14  16
ENDBRANCH  13  14
ENDBRANCH   1  13
TORSDOF 3
ENDMDL
MODEL 5
REMARK VINA RESULT:      -6.6      2.313      5.263
REMARK  Name = 
REMARK  6 active torsions:
REMARK  status: ('A' for Active; 'I' for Inactive)
REMARK    1  A    between atoms: C_1  and  C_2
REMARK    2  A    between atoms: C_2  and  C_3
REMARK    3  A    between atoms: C_3  and  C_4
REMARK    4  A    between atoms: C_4  and  SE_5
REMARK    5  A    between atoms: C_13  and  C_14
REMARK    6  A    between atoms: O_15  and  C_16
REMARK                            x       y       z     vdW  Elec       q    Type
REMARK                         _______ _______ _______ _____ _____    ______ ____
ROOT
ATOM      1 SE   UNL     1       4.033   4.397  18.813  0.00  0.00    +0.000 Se
ATOM      2 CL   UNL     1       6.061   4.718  19.668  0.00  0.00    +0.000 Cl
ATOM      3  C   UNL     1       4.674   4.667  17.114  0.00  0.00    +0.000 A 
ATOM      4  C   UNL     1       5.199   3.771  16.182  0.00  0.00    +0.000 A 
ATOM      5  C   UNL     1       5.649   4.282  14.960  0.00  0.00    +0.000 A 
ATOM      6  C   UNL     1       5.592   5.661  14.710  0.00  0.00    +0.000 A 
ATOM      7  C   UNL     1       5.075   6.539  15.675  0.00  0.00    +0.000 A 
ATOM      8  C   UNL     1       4.587   6.033  16.895  0.00  0.00    +0.000 A 
ATOM      9  C   UNL     1       3.999   6.927  18.024  0.00  0.00    +0.000 C 
ATOM     10  C   UNL     1       2.885   7.833  17.438  0.00  0.00    +0.000 C 
ATOM     11  O   UNL     1       3.634   6.155  19.215  0.00  0.00    +0.000 OA
ATOM     12  C   UNL     1       2.342   6.348  19.752  0.00  0.00    +0.000 C 
ENDROOT
BRANCH   1  13
ATOM     13  C   UNL     1       2.271   3.669  18.235  0.00  0.00    +0.000 C 
BRANCH  13  14
ATOM     14  C   UNL     1       1.865   2.511  19.178  0.00  0.00    +0.000 C 
BRANCH  14  16
ATOM     15  C   UNL     1       1.788   2.866  21.668  0.00  0.00    +0.000 C 
ATOM     16  C   UNL     1       0.976   2.914  20.365  0.00  0.00    +0.000 C 
ENDBRANCH  14  16
ENDBRANCH  13  14
ENDBRANCH   1  13
TORSDOF 3
ENDMDL
MODEL 6
REMARK VINA RESULT:      -6.1      2.937      4.482
REMARK  Name = 
REMARK  6 active torsions:
REMARK  status: ('A' for Active; 'I' for Inactive)
REMARK    1  A    between atoms: C_1  and  C_2
REMARK    2  A    between atoms: C_2  and  C_3
REMARK    3  A    between atoms: C_3  and  C_4
REMARK    4  A    between atoms: C_4  and  SE_5
REMARK    5  A    between atoms: C_13  and  C_14
REMARK    6  A    between atoms: O_15  and  C_16
REMARK                            x       y       z     vdW  Elec       q    Type
REMARK                         _______ _______ _______ _____ _____    ______ ____
ROOT
ATOM      1 SE   UNL     1       5.232   4.457  17.529  0.00  0.00    +0.000 Se
ATOM      2 CL   UNL     1       6.148   4.943  19.497  0.00  0.00    +0.000 Cl
ATOM      3  C   UNL     1       4.158   5.942  17.629  0.00  0.00    +0.000 A 
ATOM      4  C   UNL     1       4.367   7.252  17.198  0.00  0.00    +0.000 A 
ATOM      5  C   UNL     1       3.364   8.194  17.447  0.00  0.00    +0.000 A 
ATOM      6  C   UNL     1       2.202   7.820  18.138  0.00  0.00    +0.000 A 
ATOM      7  C   UNL     1       2.029   6.497  18.575  0.00  0.00    +0.000 A 
ATOM      8  C   UNL     1       3.015   5.532  18.300  0.00  0.00    +0.000 A 
ATOM      9  C   UNL     1       2.913   4.045  18.745  0.00  0.00    +0.000 C 
ATOM     10  C   UNL     1       1.562   3.454  18.266  0.00  0.00    +0.000 C 
ATOM     11  O   UNL     1       4.109   3.273  18.395  0.00  0.00    +0.000 OA
ATOM     12  C   UNL     1       3.924   2.048  17.717  0.00  0.00    +0.000 C 
ENDROOT
BRANCH   1  13
ATOM     13  C   UNL     1       4.862   4.086  15.608  0.00  0.00    +0.000 C 
BRANCH  13  14
ATOM     14  C   UNL     1       6.043   4.604  14.752  0.00  0.00    +0.000 C 
BRANCH  14  16
ATOM     15  C   UNL     1       5.039   3.666  12.645  0.00  0.00    +0.000 C 
ATOM     16  C   UNL     1       6.325   3.803  13.472  0.00  0.00    +0.000 C 
ENDBRANCH  14  16
ENDBRANCH  13  14
ENDBRANCH   1  13
TORSDOF 3
ENDMDL
MODEL 7
REMARK VINA RESULT:      -5.8      2.099      5.226
REMARK  Name = 
REMARK  6 active torsions:
REMARK  status: ('A' for Active; 'I' for Inactive)
REMARK    1  A    between atoms: C_1  and  C_2
REMARK    2  A    between atoms: C_2  and  C_3
REMARK    3  A    between atoms: C_3  and  C_4
REMARK    4  A    between atoms: C_4  and  SE_5
REMARK    5  A    between atoms: C_13  and  C_14
REMARK    6  A    between atoms: O_15  and  C_16
REMARK                            x       y       z     vdW  Elec       q    Type
REMARK                         _______ _______ _______ _____ _____    ______ ____
ROOT
ATOM      1 SE   UNL     1       4.277   6.446  16.794  0.00  0.00    +0.000 Se
ATOM      2 CL   UNL     1       5.226   5.663  14.940  0.00  0.00    +0.000 Cl
ATOM      3  C   UNL     1       5.909   6.526  17.631  0.00  0.00    +0.000 A 
ATOM      4  C   UNL     1       6.855   7.550  17.693  0.00  0.00    +0.000 A 
ATOM      5  C   UNL     1       8.044   7.304  18.389  0.00  0.00    +0.000 A 
ATOM      6  C   UNL     1       8.271   6.050  18.974  0.00  0.00    +0.000 A 
ATOM      7  C   UNL     1       7.307   5.034  18.878  0.00  0.00    +0.000 A 
ATOM      8  C   UNL     1       6.092   5.280  18.211  0.00  0.00    +0.000 A 
ATOM      9  C   UNL     1       4.967   4.217  18.052  0.00  0.00    +0.000 C 
ATOM     10  C   UNL     1       4.604   3.637  19.443  0.00  0.00    +0.000 C 
ATOM     11  O   UNL     1       3.843   4.710  17.251  0.00  0.00    +0.000 OA
ATOM     12  C   UNL     1       2.543   4.559  17.782  0.00  0.00    +0.000 C 
ENDROOT
BRANCH   1  13
ATOM     13  C   UNL     1       3.309   7.516  18.166  0.00  0.00    +0.000 C 
BRANCH  13  14
ATOM     14  C   UNL     1       2.102   8.222  17.504  0.00  0.00    +0.000 C 
BRANCH  14  16
ATOM     15  C   UNL     1       0.904   9.710  19.142  0.00  0.00    +0.000 C 
ATOM     16  C   UNL     1       1.868   9.675  17.947  0.00  0.00    +0.000 C 
ENDBRANCH  14  16
ENDBRANCH  13  14
ENDBRANCH   1  13
TORSDOF 3
ENDMDL
MODEL 8
REMARK VINA RESULT:      -5.7      1.133      1.275
REMARK  Name = 
REMARK  6 active torsions:
REMARK  status: ('A' for Active; 'I' for Inactive)
REMARK    1  A    between atoms: C_1  and  C_2
REMARK    2  A    between atoms: C_2  and  C_3
REMARK    3  A    between atoms: C_3  and  C_4
REMARK    4  A    between atoms: C_4  and  SE_5
REMARK    5  A    between atoms: C_13  and  C_14
REMARK    6  A    between atoms: O_15  and  C_16
REMARK                            x       y       z     vdW  Elec       q    Type
REMARK                         _______ _______ _______ _____ _____    ______ ____
ROOT
ATOM      1 SE   UNL     1       3.648   4.958  17.787  0.00  0.00    +0.000 Se
ATOM      2 CL   UNL     1       2.105   3.754  16.732  0.00  0.00    +0.000 Cl
ATOM      3  C   UNL     1       3.432   3.957  19.310  0.00  0.00    +0.000 A 
ATOM      4  C   UNL     1       4.067   2.789  19.734  0.00  0.00    +0.000 A 
ATOM      5  C   UNL     1       3.659   2.223  20.947  0.00  0.00    +0.000 A 
ATOM      6  C   UNL     1       2.622   2.811  21.685  0.00  0.00    +0.000 A 
ATOM      7  C   UNL     1       1.991   3.976  21.223  0.00  0.00    +0.000 A 
ATOM      8  C   UNL     1       2.415   4.575  20.022  0.00  0.00    +0.000 A 
ATOM      9  C   UNL     1       1.775   5.863  19.430  0.00  0.00    +0.000 C 
ATOM     10  C   UNL     1       1.767   6.978  20.507  0.00  0.00    +0.000 C 
ATOM     11  O   UNL     1       2.354   6.230  18.134  0.00  0.00    +0.000 OA
ATOM     12  C   UNL     1       2.791   7.562  17.964  0.00  0.00    +0.000 C 
ENDROOT
BRANCH   1  13
ATOM     13  C   UNL     1       5.320   5.858  18.390  0.00  0.00    +0.000 C 
BRANCH  13  14
ATOM     14  C   UNL     1       6.458   5.541  17.392  0.00  0.00    +0.000 C 
BRANCH  14  16
ATOM     15  C   UNL     1       8.156   5.606  19.248  0.00  0.00    +0.000 C 
ATOM     16  C   UNL     1       7.687   4.846  17.998  0.00  0.00    +0.000 C 
ENDBRANCH  14  16
ENDBRANCH  13  14
ENDBRANCH   1  13
TORSDOF 3
ENDMDL
MODEL 9
REMARK VINA RESULT:      -5.6      6.790      9.252
REMARK  Name = 
REMARK  6 active torsions:
REMARK  status: ('A' for Active; 'I' for Inactive)
REMARK    1  A    between atoms: C_1  and  C_2
REMARK    2  A    between atoms: C_2  and  C_3
REMARK    3  A    between atoms: C_3  and  C_4
REMARK    4  A    between atoms: C_4  and  SE_5
REMARK    5  A    between atoms: C_13  and  C_14
REMARK    6  A    between atoms: O_15  and  C_16
REMARK                            x       y       z     vdW  Elec       q    Type
REMARK                         _______ _______ _______ _____ _____    ______ ____
ROOT
ATOM      1 SE   UNL     1      -0.892  11.756  18.725  0.00  0.00    +0.000 Se
ATOM      2 CL   UNL     1       0.111  13.738  18.836  0.00  0.00    +0.000 Cl
ATOM      3  C   UNL     1      -1.631  12.003  20.387  0.00  0.00    +0.000 A 
ATOM      4  C   UNL     1      -2.840  12.584  20.773  0.00  0.00    +0.000 A 
ATOM      5  C   UNL     1      -3.122  12.665  22.141  0.00  0.00    +0.000 A 
ATOM      6  C   UNL     1      -2.192  12.199  23.081  0.00  0.00    +0.000 A 
ATOM      7  C   UNL     1      -0.976  11.637  22.662  0.00  0.00    +0.000 A 
ATOM      8  C   UNL     1      -0.695  11.517  21.288  0.00  0.00    +0.000 A 
ATOM      9  C   UNL     1       0.624  10.911  20.729  0.00  0.00    +0.000 C 
ATOM     10  C   UNL     1       0.857   9.512  21.356  0.00  0.00    +0.000 C 
ATOM     11  O   UNL     1       0.692  10.974  19.266  0.00  0.00    +0.000 OA
ATOM     12  C   UNL     1       1.019   9.789  18.572  0.00  0.00    +0.000 C 
ENDROOT
BRANCH   1  13
ATOM     13  C   UNL     1      -2.018  10.183  18.251  0.00  0.00    +0.000 C 
BRANCH  13  14
ATOM     14  C   UNL     1      -2.049  10.024  16.713  0.00  0.00    +0.000 C 
BRANCH  14  16
ATOM     15  C   UNL     1      -3.294  10.165  14.530  0.00  0.00    +0.000 C 
ATOM     16  C   UNL     1      -3.353  10.472  16.034  0.00  0.00    +0.000 C 
ENDBRANCH  14  16
ENDBRANCH  13  14
ENDBRANCH   1  13
TORSDOF 3
ENDMDL
