MODEL 1
REMARK VINA RESULT:      -8.7      0.000      0.000
REMARK  Name = 
REMARK  9 active torsions:
REMARK  status: ('A' for Active; 'I' for Inactive)
REMARK    1  A    between atoms: C_1  and  O_2
REMARK    2  A    between atoms: O_2  and  C_3
REMARK    3  A    between atoms: C_9  and  O_10
REMARK    4  A    between atoms: O_10  and  C_11
REMARK    5  A    between atoms: C_14  and  N_15
REMARK    6  A    between atoms: N_18  and  C_19
REMARK    7  A    between atoms: C_23  and  C_24
REMARK    8  A    between atoms: C_30  and  O_31
REMARK    9  A    between atoms: O_31  and  C_32
REMARK                            x       y       z     vdW  Elec       q    Type
REMARK                         _______ _______ _______ _____ _____    ______ ____
ROOT
ATOM      1  C   UNL     1       2.230   7.884  19.167  0.00  0.00    +0.000 A 
ATOM      2  C   UNL     1       1.494   8.286  20.279  0.00  0.00    +0.000 A 
ATOM      3  C   UNL     1       0.524   9.280  20.164  0.00  0.00    +0.000 A 
ATOM      4  C   UNL     1       0.280   9.907  18.938  0.00  0.00    +0.000 A 
ATOM      5  C   UNL     1       0.966   9.455  17.807  0.00  0.00    +0.000 A 
ATOM      6  C   UNL     1       1.973   8.480  17.929  0.00  0.00    +0.000 A 
ENDROOT
BRANCH   4   7
ATOM      7  N   UNL     1      -0.613  11.005  18.823  0.00  0.00    +0.000 N 
ATOM      8  C   UNL     1      -1.986  10.845  18.704  0.00  0.00    +0.000 C 
ATOM      9  O   UNL     1      -2.563   9.755  18.704  0.00  0.00    +0.000 OA
ATOM     10  N   UNL     1      -2.656  12.050  18.572  0.00  0.00    +0.000 N 
ATOM     11  H   UNL     1      -0.301  11.895  19.184  0.00  0.00    +0.000 HD
ATOM     12  H   UNL     1      -2.139  12.756  18.069  0.00  0.00    +0.000 HD
BRANCH  10  13
ATOM     13  C   UNL     1      -4.063  12.064  18.403  0.00  0.00    +0.000 A 
ATOM     14  C   UNL     1      -4.657  11.876  17.151  0.00  0.00    +0.000 A 
ATOM     15  C   UNL     1      -6.045  11.927  17.011  0.00  0.00    +0.000 A 
ATOM     16  C   UNL     1      -6.848  12.191  18.120  0.00  0.00    +0.000 A 
ATOM     17  C   UNL     1      -6.267  12.393  19.379  0.00  0.00    +0.000 A 
ATOM     18  C   UNL     1      -7.110  12.751  20.567  0.00  0.00    +0.000 C 
ATOM     19  C   UNL     1      -4.874  12.300  19.520  0.00  0.00    +0.000 A 
ENDBRANCH  10  13
ENDBRANCH   4   7
BRANCH   1  20
ATOM     20  O   UNL     1       3.167   6.916  19.433  0.00  0.00    +0.000 OA
BRANCH  20  27
ATOM     21  C   UNL     1       6.458   5.003  15.883  0.00  0.00    +0.000 A 
ATOM     22  C   UNL     1       5.352   4.152  16.067  0.00  0.00    +0.000 A 
ATOM     23  C   UNL     1       4.325   4.416  16.954  0.00  0.00    +0.000 A 
ATOM     24  N   UNL     1       3.282   3.569  16.985  0.00  0.00    +0.000 NA
ATOM     25  C   UNL     1       2.248   3.860  17.797  0.00  0.00    +0.000 A 
ATOM     26  C   UNL     1       2.225   4.952  18.635  0.00  0.00    +0.000 A 
ATOM     27  C   UNL     1       3.329   5.803  18.637  0.00  0.00    +0.000 A 
ATOM     28  C   UNL     1       4.402   5.572  17.748  0.00  0.00    +0.000 A 
ATOM     29  C   UNL     1       5.520   6.417  17.573  0.00  0.00    +0.000 A 
ATOM     30  C   UNL     1       6.555   6.146  16.673  0.00  0.00    +0.000 A 
BRANCH  21  32
ATOM     31  C   UNL     1       6.966   4.661  13.612  0.00  0.00    +0.000 C 
ATOM     32  O   UNL     1       7.430   4.709  14.964  0.00  0.00    +0.000 OA
ENDBRANCH  21  32
BRANCH  30  33
ATOM     33  O   UNL     1       7.502   7.121  16.737  0.00  0.00    +0.000 OA
ATOM     34  C   UNL     1       7.886   7.728  17.953  0.00  0.00    +0.000 C 
ENDBRANCH  30  33
ENDBRANCH  20  27
ENDBRANCH   1  20
TORSDOF 6
ENDMDL
MODEL 2
REMARK VINA RESULT:      -8.6      3.041      3.724
REMARK  Name = 
REMARK  9 active torsions:
REMARK  status: ('A' for Active; 'I' for Inactive)
REMARK    1  A    between atoms: C_1  and  O_2
REMARK    2  A    between atoms: O_2  and  C_3
REMARK    3  A    between atoms: C_9  and  O_10
REMARK    4  A    between atoms: O_10  and  C_11
REMARK    5  A    between atoms: C_14  and  N_15
REMARK    6  A    between atoms: N_18  and  C_19
REMARK    7  A    between atoms: C_23  and  C_24
REMARK    8  A    between atoms: C_30  and  O_31
REMARK    9  A    between atoms: O_31  and  C_32
REMARK                            x       y       z     vdW  Elec       q    Type
REMARK                         _______ _______ _______ _____ _____    ______ ____
ROOT
ATOM      1  C   UNL     1       2.187   7.747  19.376  0.00  0.00    +0.000 A 
ATOM      2  C   UNL     1       1.455   8.177  20.480  0.00  0.00    +0.000 A 
ATOM      3  C   UNL     1       0.583   9.259  20.373  0.00  0.00    +0.000 A 
ATOM      4  C   UNL     1       0.435   9.946  19.164  0.00  0.00    +0.000 A 
ATOM      5  C   UNL     1       1.113   9.470  18.037  0.00  0.00    +0.000 A 
ATOM      6  C   UNL     1       2.024   8.404  18.153  0.00  0.00    +0.000 A 
ENDROOT
BRANCH   4   7
ATOM      7  N   UNL     1      -0.351  11.123  19.062  0.00  0.00    +0.000 N 
ATOM      8  C   UNL     1       0.137  12.381  19.384  0.00  0.00    +0.000 C 
ATOM      9  O   UNL     1       1.288  12.604  19.766  0.00  0.00    +0.000 OA
ATOM     10  N   UNL     1      -0.813  13.378  19.242  0.00  0.00    +0.000 N 
ATOM     11  H   UNL     1      -1.135  11.102  18.426  0.00  0.00    +0.000 HD
ATOM     12  H   UNL     1      -1.755  13.082  19.455  0.00  0.00    +0.000 HD
BRANCH  10  13
ATOM     13  C   UNL     1      -0.489  14.718  19.565  0.00  0.00    +0.000 A 
ATOM     14  C   UNL     1      -0.605  15.211  20.869  0.00  0.00    +0.000 A 
ATOM     15  C   UNL     1      -0.308  16.546  21.150  0.00  0.00    +0.000 A 
ATOM     16  C   UNL     1       0.083  17.404  20.123  0.00  0.00    +0.000 A 
ATOM     17  C   UNL     1       0.193  16.928  18.810  0.00  0.00    +0.000 A 
ATOM     18  C   UNL     1       0.541  17.855  17.683  0.00  0.00    +0.000 C 
ATOM     19  C   UNL     1      -0.067  15.576  18.542  0.00  0.00    +0.000 A 
ENDBRANCH  10  13
ENDBRANCH   4   7
BRANCH   1  20
ATOM     20  O   UNL     1       3.025   6.690  19.634  0.00  0.00    +0.000 OA
BRANCH  20  27
ATOM     21  C   UNL     1       6.052   4.895  15.798  0.00  0.00    +0.000 A 
ATOM     22  C   UNL     1       4.960   4.039  16.032  0.00  0.00    +0.000 A 
ATOM     23  C   UNL     1       3.999   4.273  16.998  0.00  0.00    +0.000 A 
ATOM     24  N   UNL     1       2.959   3.425  17.075  0.00  0.00    +0.000 NA
ATOM     25  C   UNL     1       1.985   3.689  17.967  0.00  0.00    +0.000 A 
ATOM     26  C   UNL     1       2.024   4.752  18.840  0.00  0.00    +0.000 A 
ATOM     27  C   UNL     1       3.127   5.604  18.792  0.00  0.00    +0.000 A 
ATOM     28  C   UNL     1       4.134   5.402  17.822  0.00  0.00    +0.000 A 
ATOM     29  C   UNL     1       5.239   6.252  17.596  0.00  0.00    +0.000 A 
ATOM     30  C   UNL     1       6.207   6.012  16.617  0.00  0.00    +0.000 A 
BRANCH  21  32
ATOM     31  C   UNL     1       6.396   3.991  13.654  0.00  0.00    +0.000 C 
ATOM     32  O   UNL     1       6.956   4.632  14.804  0.00  0.00    +0.000 OA
ENDBRANCH  21  32
BRANCH  30  33
ATOM     33  O   UNL     1       7.158   6.985  16.646  0.00  0.00    +0.000 OA
ATOM     34  C   UNL     1       7.735   7.448  17.849  0.00  0.00    +0.000 C 
ENDBRANCH  30  33
ENDBRANCH  20  27
ENDBRANCH   1  20
TORSDOF 6
ENDMDL
MODEL 3
REMARK VINA RESULT:      -8.5      0.677      1.096
REMARK  Name = 
REMARK  9 active torsions:
REMARK  status: ('A' for Active; 'I' for Inactive)
REMARK    1  A    between atoms: C_1  and  O_2
REMARK    2  A    between atoms: O_2  and  C_3
REMARK    3  A    between atoms: C_9  and  O_10
REMARK    4  A    between atoms: O_10  and  C_11
REMARK    5  A    between atoms: C_14  and  N_15
REMARK    6  A    between atoms: N_18  and  C_19
REMARK    7  A    between atoms: C_23  and  C_24
REMARK    8  A    between atoms: C_30  and  O_31
REMARK    9  A    between atoms: O_31  and  C_32
REMARK                            x       y       z     vdW  Elec       q    Type
REMARK                         _______ _______ _______ _____ _____    ______ ____
ROOT
ATOM      1  C   UNL     1       2.317   7.271  19.834  0.00  0.00    +0.000 A 
ATOM      2  C   UNL     1       2.377   7.867  18.577  0.00  0.00    +0.000 A 
ATOM      3  C   UNL     1       1.656   9.029  18.309  0.00  0.00    +0.000 A 
ATOM      4  C   UNL     1       0.844   9.612  19.287  0.00  0.00    +0.000 A 
ATOM      5  C   UNL     1       0.839   9.057  20.570  0.00  0.00    +0.000 A 
ATOM      6  C   UNL     1       1.536   7.862  20.830  0.00  0.00    +0.000 A 
ENDROOT
BRANCH   4   7
ATOM      7  N   UNL     1       0.007  10.722  19.001  0.00  0.00    +0.000 N 
ATOM      8  C   UNL     1      -1.365  10.601  18.830  0.00  0.00    +0.000 C 
ATOM      9  O   UNL     1      -1.988   9.541  18.926  0.00  0.00    +0.000 OA
ATOM     10  N   UNL     1      -1.975  11.806  18.527  0.00  0.00    +0.000 N 
ATOM     11  H   UNL     1       0.340  11.635  19.273  0.00  0.00    +0.000 HD
ATOM     12  H   UNL     1      -1.405  12.429  17.973  0.00  0.00    +0.000 HD
BRANCH  10  13
ATOM     13  C   UNL     1      -3.370  11.853  18.285  0.00  0.00    +0.000 A 
ATOM     14  C   UNL     1      -3.913  11.542  17.034  0.00  0.00    +0.000 A 
ATOM     15  C   UNL     1      -5.289  11.629  16.818  0.00  0.00    +0.000 A 
ATOM     16  C   UNL     1      -6.131  12.053  17.845  0.00  0.00    +0.000 A 
ATOM     17  C   UNL     1      -5.601  12.380  19.100  0.00  0.00    +0.000 A 
ATOM     18  C   UNL     1      -6.483  12.907  20.193  0.00  0.00    +0.000 C 
ATOM     19  C   UNL     1      -4.222  12.251  19.323  0.00  0.00    +0.000 A 
ENDBRANCH  10  13
ENDBRANCH   4   7
BRANCH   1  20
ATOM     20  O   UNL     1       3.057   6.119  19.946  0.00  0.00    +0.000 OA
BRANCH  20  27
ATOM     21  C   UNL     1       6.503   4.830  16.265  0.00  0.00    +0.000 A 
ATOM     22  C   UNL     1       5.321   4.076  16.147  0.00  0.00    +0.000 A 
ATOM     23  C   UNL     1       4.240   4.212  16.997  0.00  0.00    +0.000 A 
ATOM     24  N   UNL     1       3.135   3.493  16.735  0.00  0.00    +0.000 NA
ATOM     25  C   UNL     1       2.055   3.675  17.520  0.00  0.00    +0.000 A 
ATOM     26  C   UNL     1       2.040   4.520  18.606  0.00  0.00    +0.000 A 
ATOM     27  C   UNL     1       3.203   5.229  18.904  0.00  0.00    +0.000 A 
ATOM     28  C   UNL     1       4.333   5.120  18.064  0.00  0.00    +0.000 A 
ATOM     29  C   UNL     1       5.527   5.865  18.191  0.00  0.00    +0.000 A 
ATOM     30  C   UNL     1       6.616   5.724  17.327  0.00  0.00    +0.000 A 
BRANCH  21  32
ATOM     31  C   UNL     1       7.142   4.802  14.001  0.00  0.00    +0.000 C 
ATOM     32  O   UNL     1       7.531   4.678  15.372  0.00  0.00    +0.000 OA
ENDBRANCH  21  32
BRANCH  30  33
ATOM     33  O   UNL     1       7.627   6.553  17.706  0.00  0.00    +0.000 OA
ATOM     34  C   UNL     1       7.601   7.944  17.464  0.00  0.00    +0.000 C 
ENDBRANCH  30  33
ENDBRANCH  20  27
ENDBRANCH   1  20
TORSDOF 6
ENDMDL
MODEL 4
REMARK VINA RESULT:      -8.4      3.332      3.911
REMARK  Name = 
REMARK  9 active torsions:
REMARK  status: ('A' for Active; 'I' for Inactive)
REMARK    1  A    between atoms: C_1  and  O_2
REMARK    2  A    between atoms: O_2  and  C_3
REMARK    3  A    between atoms: C_9  and  O_10
REMARK    4  A    between atoms: O_10  and  C_11
REMARK    5  A    between atoms: C_14  and  N_15
REMARK    6  A    between atoms: N_18  and  C_19
REMARK    7  A    between atoms: C_23  and  C_24
REMARK    8  A    between atoms: C_30  and  O_31
REMARK    9  A    between atoms: O_31  and  C_32
REMARK                            x       y       z     vdW  Elec       q    Type
REMARK                         _______ _______ _______ _____ _____    ______ ____
ROOT
ATOM      1  C   UNL     1       2.185   7.727  19.288  0.00  0.00    +0.000 A 
ATOM      2  C   UNL     1       1.431   8.329  20.292  0.00  0.00    +0.000 A 
ATOM      3  C   UNL     1       0.750   9.521  20.048  0.00  0.00    +0.000 A 
ATOM      4  C   UNL     1       0.820  10.145  18.799  0.00  0.00    +0.000 A 
ATOM      5  C   UNL     1       1.517   9.505  17.769  0.00  0.00    +0.000 A 
ATOM      6  C   UNL     1       2.237   8.324  18.026  0.00  0.00    +0.000 A 
ENDROOT
BRANCH   4   7
ATOM      7  N   UNL     1       0.238  11.418  18.564  0.00  0.00    +0.000 N 
ATOM      8  C   UNL     1       0.765  12.591  19.086  0.00  0.00    +0.000 C 
ATOM      9  O   UNL     1       1.783  12.649  19.778  0.00  0.00    +0.000 OA
ATOM     10  N   UNL     1       0.016  13.708  18.756  0.00  0.00    +0.000 N 
ATOM     11  H   UNL     1      -0.336  11.519  17.740  0.00  0.00    +0.000 HD
ATOM     12  H   UNL     1      -0.976  13.533  18.687  0.00  0.00    +0.000 HD
BRANCH  10  13
ATOM     13  C   UNL     1       0.395  14.984  19.240  0.00  0.00    +0.000 A 
ATOM     14  C   UNL     1       1.341  15.772  18.577  0.00  0.00    +0.000 A 
ATOM     15  C   UNL     1       1.718  17.012  19.096  0.00  0.00    +0.000 A 
ATOM     16  C   UNL     1       1.169  17.461  20.296  0.00  0.00    +0.000 A 
ATOM     17  C   UNL     1       0.230  16.678  20.978  0.00  0.00    +0.000 A 
ATOM     18  C   UNL     1      -0.315  17.113  22.306  0.00  0.00    +0.000 C 
ATOM     19  C   UNL     1      -0.175  15.452  20.430  0.00  0.00    +0.000 A 
ENDBRANCH  10  13
ENDBRANCH   4   7
BRANCH   1  20
ATOM     20  O   UNL     1       2.822   6.574  19.678  0.00  0.00    +0.000 OA
BRANCH  20  27
ATOM     21  C   UNL     1       5.956   4.814  15.914  0.00  0.00    +0.000 A 
ATOM     22  C   UNL     1       4.874   3.940  16.130  0.00  0.00    +0.000 A 
ATOM     23  C   UNL     1       3.890   4.162  17.075  0.00  0.00    +0.000 A 
ATOM     24  N   UNL     1       2.864   3.297  17.135  0.00  0.00    +0.000 NA
ATOM     25  C   UNL     1       1.868   3.548  18.006  0.00  0.00    +0.000 A 
ATOM     26  C   UNL     1       1.871   4.616  18.874  0.00  0.00    +0.000 A 
ATOM     27  C   UNL     1       2.960   5.486  18.844  0.00  0.00    +0.000 A 
ATOM     28  C   UNL     1       3.989   5.297  17.896  0.00  0.00    +0.000 A 
ATOM     29  C   UNL     1       5.084   6.165  17.688  0.00  0.00    +0.000 A 
ATOM     30  C   UNL     1       6.076   5.937  16.729  0.00  0.00    +0.000 A 
BRANCH  21  32
ATOM     31  C   UNL     1       6.348   3.956  13.758  0.00  0.00    +0.000 C 
ATOM     32  O   UNL     1       6.885   4.561  14.939  0.00  0.00    +0.000 OA
ENDBRANCH  21  32
BRANCH  30  33
ATOM     33  O   UNL     1       7.009   6.926  16.773  0.00  0.00    +0.000 OA
ATOM     34  C   UNL     1       7.725   7.245  17.947  0.00  0.00    +0.000 C 
ENDBRANCH  30  33
ENDBRANCH  20  27
ENDBRANCH   1  20
TORSDOF 6
ENDMDL
MODEL 5
REMARK VINA RESULT:      -8.4      2.785      3.214
REMARK  Name = 
REMARK  9 active torsions:
REMARK  status: ('A' for Active; 'I' for Inactive)
REMARK    1  A    between atoms: C_1  and  O_2
REMARK    2  A    between atoms: O_2  and  C_3
REMARK    3  A    between atoms: C_9  and  O_10
REMARK    4  A    between atoms: O_10  and  C_11
REMARK    5  A    between atoms: C_14  and  N_15
REMARK    6  A    between atoms: N_18  and  C_19
REMARK    7  A    between atoms: C_23  and  C_24
REMARK    8  A    between atoms: C_30  and  O_31
REMARK    9  A    between atoms: O_31  and  C_32
REMARK                            x       y       z     vdW  Elec       q    Type
REMARK                         _______ _______ _______ _____ _____    ______ ____
ROOT
ATOM      1  C   UNL     1       2.205   7.228  19.931  0.00  0.00    +0.000 A 
ATOM      2  C   UNL     1       1.396   7.440  21.045  0.00  0.00    +0.000 A 
ATOM      3  C   UNL     1       0.562   8.554  21.112  0.00  0.00    +0.000 A 
ATOM      4  C   UNL     1       0.530   9.491  20.074  0.00  0.00    +0.000 A 
ATOM      5  C   UNL     1       1.286   9.242  18.925  0.00  0.00    +0.000 A 
ATOM      6  C   UNL     1       2.158   8.139  18.873  0.00  0.00    +0.000 A 
ENDROOT
BRANCH   4   7
ATOM      7  N   UNL     1      -0.218  10.694  20.174  0.00  0.00    +0.000 N 
ATOM      8  C   UNL     1      -0.647  11.211  21.387  0.00  0.00    +0.000 C 
ATOM      9  O   UNL     1      -0.414  10.699  22.484  0.00  0.00    +0.000 OA
ATOM     10  N   UNL     1      -1.386  12.373  21.243  0.00  0.00    +0.000 N 
ATOM     11  H   UNL     1      -0.131  11.356  19.416  0.00  0.00    +0.000 HD
ATOM     12  H   UNL     1      -1.946  12.404  20.403  0.00  0.00    +0.000 HD
BRANCH  10  13
ATOM     13  C   UNL     1      -1.932  13.012  22.383  0.00  0.00    +0.000 A 
ATOM     14  C   UNL     1      -1.313  14.116  22.976  0.00  0.00    +0.000 A 
ATOM     15  C   UNL     1      -1.859  14.705  24.119  0.00  0.00    +0.000 A 
ATOM     16  C   UNL     1      -3.015  14.176  24.691  0.00  0.00    +0.000 A 
ATOM     17  C   UNL     1      -3.640  13.062  24.115  0.00  0.00    +0.000 A 
ATOM     18  C   UNL     1      -4.842  12.437  24.759  0.00  0.00    +0.000 C 
ATOM     19  C   UNL     1      -3.110  12.501  22.944  0.00  0.00    +0.000 A 
ENDBRANCH  10  13
ENDBRANCH   4   7
BRANCH   1  20
ATOM     20  O   UNL     1       2.994   6.106  20.014  0.00  0.00    +0.000 OA
BRANCH  20  27
ATOM     21  C   UNL     1       6.459   4.849  16.340  0.00  0.00    +0.000 A 
ATOM     22  C   UNL     1       5.276   4.100  16.206  0.00  0.00    +0.000 A 
ATOM     23  C   UNL     1       4.190   4.229  17.051  0.00  0.00    +0.000 A 
ATOM     24  N   UNL     1       3.084   3.517  16.774  0.00  0.00    +0.000 NA
ATOM     25  C   UNL     1       2.000   3.693  17.554  0.00  0.00    +0.000 A 
ATOM     26  C   UNL     1       1.981   4.526  18.650  0.00  0.00    +0.000 A 
ATOM     27  C   UNL     1       3.144   5.228  18.963  0.00  0.00    +0.000 A 
ATOM     28  C   UNL     1       4.279   5.125  18.129  0.00  0.00    +0.000 A 
ATOM     29  C   UNL     1       5.474   5.865  18.271  0.00  0.00    +0.000 A 
ATOM     30  C   UNL     1       6.568   5.731  17.413  0.00  0.00    +0.000 A 
BRANCH  21  32
ATOM     31  C   UNL     1       7.105   4.802  14.079  0.00  0.00    +0.000 C 
ATOM     32  O   UNL     1       7.492   4.704  15.452  0.00  0.00    +0.000 OA
ENDBRANCH  21  32
BRANCH  30  33
ATOM     33  O   UNL     1       7.579   6.552  17.808  0.00  0.00    +0.000 OA
ATOM     34  C   UNL     1       7.614   7.926  17.483  0.00  0.00    +0.000 C 
ENDBRANCH  30  33
ENDBRANCH  20  27
ENDBRANCH   1  20
TORSDOF 6
ENDMDL
MODEL 6
REMARK VINA RESULT:      -8.2      3.194      3.723
REMARK  Name = 
REMARK  9 active torsions:
REMARK  status: ('A' for Active; 'I' for Inactive)
REMARK    1  A    between atoms: C_1  and  O_2
REMARK    2  A    between atoms: O_2  and  C_3
REMARK    3  A    between atoms: C_9  and  O_10
REMARK    4  A    between atoms: O_10  and  C_11
REMARK    5  A    between atoms: C_14  and  N_15
REMARK    6  A    between atoms: N_18  and  C_19
REMARK    7  A    between atoms: C_23  and  C_24
REMARK    8  A    between atoms: C_30  and  O_31
REMARK    9  A    between atoms: O_31  and  C_32
REMARK                            x       y       z     vdW  Elec       q    Type
REMARK                         _______ _______ _______ _____ _____    ______ ____
ROOT
ATOM      1  C   UNL     1       2.205   7.405  19.799  0.00  0.00    +0.000 A 
ATOM      2  C   UNL     1       1.430   7.654  20.929  0.00  0.00    +0.000 A 
ATOM      3  C   UNL     1       0.581   8.759  20.975  0.00  0.00    +0.000 A 
ATOM      4  C   UNL     1       0.500   9.648  19.899  0.00  0.00    +0.000 A 
ATOM      5  C   UNL     1       1.222   9.359  18.736  0.00  0.00    +0.000 A 
ATOM      6  C   UNL     1       2.109   8.268  18.704  0.00  0.00    +0.000 A 
ENDROOT
BRANCH   4   7
ATOM      7  N   UNL     1      -0.262  10.843  19.971  0.00  0.00    +0.000 N 
ATOM      8  C   UNL     1       0.107  11.921  20.762  0.00  0.00    +0.000 C 
ATOM      9  O   UNL     1       1.125  11.958  21.457  0.00  0.00    +0.000 OA
ATOM     10  N   UNL     1      -0.801  12.965  20.703  0.00  0.00    +0.000 N 
ATOM     11  H   UNL     1      -0.866  11.054  19.189  0.00  0.00    +0.000 HD
ATOM     12  H   UNL     1      -1.760  12.672  20.586  0.00  0.00    +0.000 HD
BRANCH  10  13
ATOM     13  C   UNL     1      -0.592  14.131  21.481  0.00  0.00    +0.000 A 
ATOM     14  C   UNL     1       0.163  15.208  21.007  0.00  0.00    +0.000 A 
ATOM     15  C   UNL     1       0.377  16.330  21.811  0.00  0.00    +0.000 A 
ATOM     16  C   UNL     1      -0.143  16.370  23.104  0.00  0.00    +0.000 A 
ATOM     17  C   UNL     1      -0.891  15.294  23.597  0.00  0.00    +0.000 A 
ATOM     18  C   UNL     1      -1.394  15.290  25.010  0.00  0.00    +0.000 C 
ATOM     19  C   UNL     1      -1.137  14.187  22.770  0.00  0.00    +0.000 A 
ENDBRANCH  10  13
ENDBRANCH   4   7
BRANCH   1  20
ATOM     20  O   UNL     1       3.013   6.299  19.904  0.00  0.00    +0.000 OA
BRANCH  20  27
ATOM     21  C   UNL     1       5.937   5.256  15.727  0.00  0.00    +0.000 A 
ATOM     22  C   UNL     1       4.890   4.326  15.864  0.00  0.00    +0.000 A 
ATOM     23  C   UNL     1       3.964   4.365  16.889  0.00  0.00    +0.000 A 
ATOM     24  N   UNL     1       2.961   3.470  16.870  0.00  0.00    +0.000 NA
ATOM     25  C   UNL     1       2.017   3.549  17.829  0.00  0.00    +0.000 A 
ATOM     26  C   UNL     1       2.053   4.465  18.855  0.00  0.00    +0.000 A 
ATOM     27  C   UNL     1       3.120   5.362  18.900  0.00  0.00    +0.000 A 
ATOM     28  C   UNL     1       4.091   5.358  17.874  0.00  0.00    +0.000 A 
ATOM     29  C   UNL     1       5.152   6.281  17.743  0.00  0.00    +0.000 A 
ATOM     30  C   UNL     1       6.085   6.238  16.703  0.00  0.00    +0.000 A 
BRANCH  21  32
ATOM     31  C   UNL     1       6.512   4.154  13.730  0.00  0.00    +0.000 C 
ATOM     32  O   UNL     1       6.807   5.191  14.670  0.00  0.00    +0.000 OA
ENDBRANCH  21  32
BRANCH  30  33
ATOM     33  O   UNL     1       6.998   7.237  16.849  0.00  0.00    +0.000 OA
ATOM     34  C   UNL     1       7.829   7.346  17.986  0.00  0.00    +0.000 C 
ENDBRANCH  30  33
ENDBRANCH  20  27
ENDBRANCH   1  20
TORSDOF 6
ENDMDL
MODEL 7
REMARK VINA RESULT:      -8.2      3.033      3.620
REMARK  Name = 
REMARK  9 active torsions:
REMARK  status: ('A' for Active; 'I' for Inactive)
REMARK    1  A    between atoms: C_1  and  O_2
REMARK    2  A    between atoms: O_2  and  C_3
REMARK    3  A    between atoms: C_9  and  O_10
REMARK    4  A    between atoms: O_10  and  C_11
REMARK    5  A    between atoms: C_14  and  N_15
REMARK    6  A    between atoms: N_18  and  C_19
REMARK    7  A    between atoms: C_23  and  C_24
REMARK    8  A    between atoms: C_30  and  O_31
REMARK    9  A    between atoms: O_31  and  C_32
REMARK                            x       y       z     vdW  Elec       q    Type
REMARK                         _______ _______ _______ _____ _____    ______ ____
ROOT
ATOM      1  C   UNL     1       2.112   7.463  20.035  0.00  0.00    +0.000 A 
ATOM      2  C   UNL     1       1.325   7.610  21.175  0.00  0.00    +0.000 A 
ATOM      3  C   UNL     1       0.428   8.671  21.284  0.00  0.00    +0.000 A 
ATOM      4  C   UNL     1       0.310   9.619  20.263  0.00  0.00    +0.000 A 
ATOM      5  C   UNL     1       1.046   9.433  19.088  0.00  0.00    +0.000 A 
ATOM      6  C   UNL     1       1.980   8.385  18.993  0.00  0.00    +0.000 A 
ENDROOT
BRANCH   4   7
ATOM      7  N   UNL     1      -0.504  10.774  20.404  0.00  0.00    +0.000 N 
ATOM      8  C   UNL     1      -0.733  11.384  21.628  0.00  0.00    +0.000 C 
ATOM      9  O   UNL     1      -0.249  11.005  22.697  0.00  0.00    +0.000 OA
ATOM     10  N   UNL     1      -1.583  12.474  21.533  0.00  0.00    +0.000 N 
ATOM     11  H   UNL     1      -0.622  11.358  19.589  0.00  0.00    +0.000 HD
ATOM     12  H   UNL     1      -2.295  12.380  20.823  0.00  0.00    +0.000 HD
BRANCH  10  13
ATOM     13  C   UNL     1      -1.951  13.190  22.698  0.00  0.00    +0.000 A 
ATOM     14  C   UNL     1      -3.127  12.903  23.399  0.00  0.00    +0.000 A 
ATOM     15  C   UNL     1      -3.479  13.648  24.526  0.00  0.00    +0.000 A 
ATOM     16  C   UNL     1      -2.668  14.702  24.946  0.00  0.00    +0.000 A 
ATOM     17  C   UNL     1      -1.493  15.009  24.248  0.00  0.00    +0.000 A 
ATOM     18  C   UNL     1      -0.649  16.184  24.642  0.00  0.00    +0.000 C 
ATOM     19  C   UNL     1      -1.125  14.230  23.140  0.00  0.00    +0.000 A 
ENDBRANCH  10  13
ENDBRANCH   4   7
BRANCH   1  20
ATOM     20  O   UNL     1       2.967   6.389  20.077  0.00  0.00    +0.000 OA
BRANCH  20  27
ATOM     21  C   UNL     1       5.686   5.380  15.755  0.00  0.00    +0.000 A 
ATOM     22  C   UNL     1       4.656   4.440  15.943  0.00  0.00    +0.000 A 
ATOM     23  C   UNL     1       3.783   4.469  17.014  0.00  0.00    +0.000 A 
ATOM     24  N   UNL     1       2.789   3.564  17.044  0.00  0.00    +0.000 NA
ATOM     25  C   UNL     1       1.894   3.633  18.049  0.00  0.00    +0.000 A 
ATOM     26  C   UNL     1       1.973   4.548  19.074  0.00  0.00    +0.000 A 
ATOM     27  C   UNL     1       3.032   5.455  19.067  0.00  0.00    +0.000 A 
ATOM     28  C   UNL     1       3.950   5.462  17.993  0.00  0.00    +0.000 A 
ATOM     29  C   UNL     1       4.994   6.395  17.810  0.00  0.00    +0.000 A 
ATOM     30  C   UNL     1       5.874   6.363  16.724  0.00  0.00    +0.000 A 
BRANCH  21  32
ATOM     31  C   UNL     1       6.372   4.125  13.888  0.00  0.00    +0.000 C 
ATOM     32  O   UNL     1       6.502   5.325  14.656  0.00  0.00    +0.000 OA
ENDBRANCH  21  32
BRANCH  30  33
ATOM     33  O   UNL     1       6.784   7.369  16.826  0.00  0.00    +0.000 OA
ATOM     34  C   UNL     1       7.752   7.418  17.852  0.00  0.00    +0.000 C 
ENDBRANCH  30  33
ENDBRANCH  20  27
ENDBRANCH   1  20
TORSDOF 6
ENDMDL
MODEL 8
REMARK VINA RESULT:      -8.2      3.067      3.627
REMARK  Name = 
REMARK  9 active torsions:
REMARK  status: ('A' for Active; 'I' for Inactive)
REMARK    1  A    between atoms: C_1  and  O_2
REMARK    2  A    between atoms: O_2  and  C_3
REMARK    3  A    between atoms: C_9  and  O_10
REMARK    4  A    between atoms: O_10  and  C_11
REMARK    5  A    between atoms: C_14  and  N_15
REMARK    6  A    between atoms: N_18  and  C_19
REMARK    7  A    between atoms: C_23  and  C_24
REMARK    8  A    between atoms: C_30  and  O_31
REMARK    9  A    between atoms: O_31  and  C_32
REMARK                            x       y       z     vdW  Elec       q    Type
REMARK                         _______ _______ _______ _____ _____    ______ ____
ROOT
ATOM      1  C   UNL     1       2.163   7.442  19.736  0.00  0.00    +0.000 A 
ATOM      2  C   UNL     1       2.410   7.953  18.464  0.00  0.00    +0.000 A 
ATOM      3  C   UNL     1       1.861   9.173  18.072  0.00  0.00    +0.000 A 
ATOM      4  C   UNL     1       1.040   9.902  18.938  0.00  0.00    +0.000 A 
ATOM      5  C   UNL     1       0.850   9.426  20.239  0.00  0.00    +0.000 A 
ATOM      6  C   UNL     1       1.371   8.177  20.622  0.00  0.00    +0.000 A 
ENDROOT
BRANCH   4   7
ATOM      7  N   UNL     1       0.372  11.082  18.520  0.00  0.00    +0.000 N 
ATOM      8  C   UNL     1       0.629  12.327  19.077  0.00  0.00    +0.000 C 
ATOM      9  O   UNL     1       1.461  12.535  19.962  0.00  0.00    +0.000 OA
ATOM     10  N   UNL     1      -0.162  13.328  18.539  0.00  0.00    +0.000 N 
ATOM     11  H   UNL     1      -0.021  11.086  17.589  0.00  0.00    +0.000 HD
ATOM     12  H   UNL     1      -1.088  13.025  18.274  0.00  0.00    +0.000 HD
BRANCH  10  13
ATOM     13  C   UNL     1      -0.051  14.655  19.022  0.00  0.00    +0.000 A 
ATOM     14  C   UNL     1       0.986  15.502  18.620  0.00  0.00    +0.000 A 
ATOM     15  C   UNL     1       1.086  16.795  19.139  0.00  0.00    +0.000 A 
ATOM     16  C   UNL     1       0.162  17.240  20.084  0.00  0.00    +0.000 A 
ATOM     17  C   UNL     1      -0.875  16.398  20.506  0.00  0.00    +0.000 A 
ATOM     18  C   UNL     1      -1.832  16.835  21.575  0.00  0.00    +0.000 C 
ATOM     19  C   UNL     1      -0.994  15.116  19.950  0.00  0.00    +0.000 A 
ENDBRANCH  10  13
ENDBRANCH   4   7
BRANCH   1  20
ATOM     20  O   UNL     1       2.745   6.221  19.974  0.00  0.00    +0.000 OA
BRANCH  20  27
ATOM     21  C   UNL     1       6.369   4.721  16.552  0.00  0.00    +0.000 A 
ATOM     22  C   UNL     1       5.182   3.981  16.398  0.00  0.00    +0.000 A 
ATOM     23  C   UNL     1       4.058   4.170  17.179  0.00  0.00    +0.000 A 
ATOM     24  N   UNL     1       2.956   3.458  16.886  0.00  0.00    +0.000 NA
ATOM     25  C   UNL     1       1.837   3.691  17.599  0.00  0.00    +0.000 A 
ATOM     26  C   UNL     1       1.777   4.582  18.646  0.00  0.00    +0.000 A 
ATOM     27  C   UNL     1       2.934   5.285  18.980  0.00  0.00    +0.000 A 
ATOM     28  C   UNL     1       4.107   5.122  18.211  0.00  0.00    +0.000 A 
ATOM     29  C   UNL     1       5.305   5.853  18.374  0.00  0.00    +0.000 A 
ATOM     30  C   UNL     1       6.439   5.658  17.580  0.00  0.00    +0.000 A 
BRANCH  21  32
ATOM     31  C   UNL     1       7.179   4.772  14.344  0.00  0.00    +0.000 C 
ATOM     32  O   UNL     1       7.443   4.515  15.727  0.00  0.00    +0.000 OA
ENDBRANCH  21  32
BRANCH  30  33
ATOM     33  O   UNL     1       7.441   6.486  17.981  0.00  0.00    +0.000 OA
ATOM     34  C   UNL     1       7.608   7.787  17.457  0.00  0.00    +0.000 C 
ENDBRANCH  30  33
ENDBRANCH  20  27
ENDBRANCH   1  20
TORSDOF 6
ENDMDL
MODEL 9
REMARK VINA RESULT:      -8.1      1.684      2.209
REMARK  Name = 
REMARK  9 active torsions:
REMARK  status: ('A' for Active; 'I' for Inactive)
REMARK    1  A    between atoms: C_1  and  O_2
REMARK    2  A    between atoms: O_2  and  C_3
REMARK    3  A    between atoms: C_9  and  O_10
REMARK    4  A    between atoms: O_10  and  C_11
REMARK    5  A    between atoms: C_14  and  N_15
REMARK    6  A    between atoms: N_18  and  C_19
REMARK    7  A    between atoms: C_23  and  C_24
REMARK    8  A    between atoms: C_30  and  O_31
REMARK    9  A    between atoms: O_31  and  C_32
REMARK                            x       y       z     vdW  Elec       q    Type
REMARK                         _______ _______ _______ _____ _____    ______ ____
ROOT
ATOM      1  C   UNL     1       2.181   7.709  19.398  0.00  0.00    +0.000 A 
ATOM      2  C   UNL     1       1.455   8.180  20.489  0.00  0.00    +0.000 A 
ATOM      3  C   UNL     1       0.618   9.286  20.358  0.00  0.00    +0.000 A 
ATOM      4  C   UNL     1       0.499   9.956  19.137  0.00  0.00    +0.000 A 
ATOM      5  C   UNL     1       1.170   9.441  18.023  0.00  0.00    +0.000 A 
ATOM      6  C   UNL     1       2.046   8.350  18.163  0.00  0.00    +0.000 A 
ENDROOT
BRANCH   4   7
ATOM      7  N   UNL     1      -0.250  11.155  19.010  0.00  0.00    +0.000 N 
ATOM      8  C   UNL     1      -1.017  11.673  20.044  0.00  0.00    +0.000 C 
ATOM      9  O   UNL     1      -1.111  11.164  21.164  0.00  0.00    +0.000 OA
ATOM     10  N   UNL     1      -1.687  12.830  19.687  0.00  0.00    +0.000 N 
ATOM     11  H   UNL     1       0.051  11.817  18.309  0.00  0.00    +0.000 HD
ATOM     12  H   UNL     1      -1.978  12.857  18.720  0.00  0.00    +0.000 HD
BRANCH  10  13
ATOM     13  C   UNL     1      -2.545  13.469  20.616  0.00  0.00    +0.000 A 
ATOM     14  C   UNL     1      -2.092  14.491  21.456  0.00  0.00    +0.000 A 
ATOM     15  C   UNL     1      -2.954  15.079  22.384  0.00  0.00    +0.000 A 
ATOM     16  C   UNL     1      -4.269  14.630  22.496  0.00  0.00    +0.000 A 
ATOM     17  C   UNL     1      -4.734  13.599  21.670  0.00  0.00    +0.000 A 
ATOM     18  C   UNL     1      -6.123  13.055  21.827  0.00  0.00    +0.000 C 
ATOM     19  C   UNL     1      -3.875  13.041  20.711  0.00  0.00    +0.000 A 
ENDBRANCH  10  13
ENDBRANCH   4   7
BRANCH   1  20
ATOM     20  O   UNL     1       2.984   6.631  19.680  0.00  0.00    +0.000 OA
BRANCH  20  27
ATOM     21  C   UNL     1       5.996   4.967  15.774  0.00  0.00    +0.000 A 
ATOM     22  C   UNL     1       4.937   4.074  16.021  0.00  0.00    +0.000 A 
ATOM     23  C   UNL     1       3.987   4.269  17.006  0.00  0.00    +0.000 A 
ATOM     24  N   UNL     1       2.977   3.387  17.093  0.00  0.00    +0.000 NA
ATOM     25  C   UNL     1       2.011   3.612  18.006  0.00  0.00    +0.000 A 
ATOM     26  C   UNL     1       2.032   4.669  18.887  0.00  0.00    +0.000 A 
ATOM     27  C   UNL     1       3.106   5.556  18.826  0.00  0.00    +0.000 A 
ATOM     28  C   UNL     1       4.101   5.395  17.837  0.00  0.00    +0.000 A 
ATOM     29  C   UNL     1       5.174   6.282  17.598  0.00  0.00    +0.000 A 
ATOM     30  C   UNL     1       6.131   6.081  16.600  0.00  0.00    +0.000 A 
BRANCH  21  32
ATOM     31  C   UNL     1       6.365   3.975  13.674  0.00  0.00    +0.000 C 
ATOM     32  O   UNL     1       6.890   4.742  14.761  0.00  0.00    +0.000 OA
ENDBRANCH  21  32
BRANCH  30  33
ATOM     33  O   UNL     1       7.050   7.085  16.620  0.00  0.00    +0.000 OA
ATOM     34  C   UNL     1       7.718   7.479  17.800  0.00  0.00    +0.000 C 
ENDBRANCH  30  33
ENDBRANCH  20  27
ENDBRANCH   1  20
TORSDOF 6
ENDMDL
