MODEL 1
REMARK VINA RESULT:      -8.2      0.000      0.000
REMARK  Name = 
REMARK  4 active torsions:
REMARK  status: ('A' for Active; 'I' for Inactive)
REMARK    1  A    between atoms: N_1  and  C_2
REMARK    2  A    between atoms: C_5  and  S_6
REMARK    3  A    between atoms: S_6  and  N_9
REMARK    4  A    between atoms: C_11  and  C_12
REMARK                            x       y       z     vdW  Elec       q    Type
REMARK                         _______ _______ _______ _____ _____    ______ ____
ROOT
ATOM      1  N   UNL     1       5.022   6.202  17.804  0.00  0.00    +0.000 N 
ATOM      2  C   UNL     1       4.339   7.383  17.907  0.00  0.00    +0.000 A 
ATOM      3  C   UNL     1       3.075   7.107  18.397  0.00  0.00    +0.000 A 
ATOM      4  C   UNL     1       3.001   5.676  18.580  0.00  0.00    +0.000 A 
ATOM      5  C   UNL     1       1.984   4.781  18.998  0.00  0.00    +0.000 A 
ATOM      6  C   UNL     1       2.281   3.430  19.034  0.00  0.00    +0.000 A 
ATOM      7  C   UNL     1       3.514   2.941  18.700  0.00  0.00    +0.000 A 
ATOM      8  C   UNL     1       4.549   3.758  18.299  0.00  0.00    +0.000 A 
ATOM      9  C   UNL     1       4.259   5.137  18.225  0.00  0.00    +0.000 A 
ATOM     10  O   UNL     1       3.584   1.586  18.793  0.00  0.00    +0.000 OA
ATOM     11  C   UNL     1       2.241   1.275  19.214  0.00  0.00    +0.000 C 
ATOM     12  O   UNL     1       1.412   2.443  19.386  0.00  0.00    +0.000 OA
ENDROOT
BRANCH   3  13
ATOM     13  C   UNL     1       2.078   8.121  18.641  0.00  0.00    +0.000 C 
ATOM     14  C   UNL     1       1.609   8.972  17.707  0.00  0.00    +0.000 C 
ATOM     15  C   UNL     1       0.595  10.048  17.978  0.00  0.00    +0.000 C 
ATOM     16  N   UNL     1      -0.051   9.958  19.288  0.00  0.00    +0.000 NA
ATOM     17  C   UNL     1       0.932   9.635  20.323  0.00  0.00    +0.000 C 
ATOM     18  C   UNL     1       1.593   8.270  20.068  0.00  0.00    +0.000 C 
ATOM     19  H   UNL     1      -0.750   9.216  19.249  0.00  0.00    +0.000 HD
ENDBRANCH   3  13
BRANCH   1  20
ATOM     20  S   UNL     1       6.592   6.061  17.153  0.00  0.00    +0.000 S 
ATOM     21  O   UNL     1       7.302   5.198  18.079  0.00  0.00    +0.000 OA
ATOM     22  O   UNL     1       7.032   7.409  16.857  0.00  0.00    +0.000 OA
BRANCH  20  26
ATOM     23  C   UNL     1       6.191   3.855  13.158  0.00  0.00    +0.000 A 
ATOM     24  C   UNL     1       5.101   3.936  14.031  0.00  0.00    +0.000 A 
ATOM     25  C   UNL     1       5.207   4.595  15.260  0.00  0.00    +0.000 A 
ATOM     26  C   UNL     1       6.413   5.204  15.608  0.00  0.00    +0.000 A 
ATOM     27  C   UNL     1       7.501   5.167  14.730  0.00  0.00    +0.000 A 
ATOM     28  C   UNL     1       7.374   4.515  13.500  0.00  0.00    +0.000 A 
BRANCH  23  29
ATOM     29  N   UNL     1       6.020   3.337  11.869  0.00  0.00    +0.000 N 
ATOM     30  H   UNL     1       6.536   3.830  11.148  0.00  0.00    +0.000 HD
ATOM     31  H   UNL     1       5.054   3.171  11.609  0.00  0.00    +0.000 HD
ENDBRANCH  23  29
ENDBRANCH  20  26
ENDBRANCH   1  20
TORSDOF 4
ENDMDL
MODEL 2
REMARK VINA RESULT:      -8.1      5.478     10.276
REMARK  Name = 
REMARK  4 active torsions:
REMARK  status: ('A' for Active; 'I' for Inactive)
REMARK    1  A    between atoms: N_1  and  C_2
REMARK    2  A    between atoms: C_5  and  S_6
REMARK    3  A    between atoms: S_6  and  N_9
REMARK    4  A    between atoms: C_11  and  C_12
REMARK                            x       y       z     vdW  Elec       q    Type
REMARK                         _______ _______ _______ _____ _____    ______ ____
ROOT
ATOM      1  N   UNL     1       0.192  11.852  19.821  0.00  0.00    +0.000 N 
ATOM      2  C   UNL     1       1.189  10.924  19.957  0.00  0.00    +0.000 A 
ATOM      3  C   UNL     1       0.929   9.885  19.081  0.00  0.00    +0.000 A 
ATOM      4  C   UNL     1      -0.302  10.211  18.399  0.00  0.00    +0.000 A 
ATOM      5  C   UNL     1      -1.109   9.549  17.439  0.00  0.00    +0.000 A 
ATOM      6  C   UNL     1      -2.266  10.180  17.016  0.00  0.00    +0.000 A 
ATOM      7  C   UNL     1      -2.640  11.412  17.476  0.00  0.00    +0.000 A 
ATOM      8  C   UNL     1      -1.893  12.114  18.398  0.00  0.00    +0.000 A 
ATOM      9  C   UNL     1      -0.725  11.476  18.868  0.00  0.00    +0.000 A 
ATOM     10  O   UNL     1      -3.814  11.839  16.940  0.00  0.00    +0.000 OA
ATOM     11  C   UNL     1      -4.146  10.721  16.094  0.00  0.00    +0.000 C 
ATOM     12  O   UNL     1      -3.158   9.669  16.124  0.00  0.00    +0.000 OA
ENDROOT
BRANCH   3  13
ATOM     13  C   UNL     1       1.779   8.728  18.947  0.00  0.00    +0.000 C 
ATOM     14  C   UNL     1       2.476   8.414  17.836  0.00  0.00    +0.000 C 
ATOM     15  C   UNL     1       3.333   7.189  17.694  0.00  0.00    +0.000 C 
ATOM     16  N   UNL     1       3.570   6.465  18.943  0.00  0.00    +0.000 NA
ATOM     17  C   UNL     1       2.336   6.379  19.727  0.00  0.00    +0.000 C 
ATOM     18  C   UNL     1       1.820   7.773  20.122  0.00  0.00    +0.000 C 
ATOM     19  H   UNL     1       4.271   6.974  19.480  0.00  0.00    +0.000 HD
ENDBRANCH   3  13
BRANCH   1  20
ATOM     20  S   UNL     1       0.061  13.259  20.778  0.00  0.00    +0.000 S 
ATOM     21  O   UNL     1      -0.288  14.312  19.843  0.00  0.00    +0.000 OA
ATOM     22  O   UNL     1       1.259  13.310  21.592  0.00  0.00    +0.000 OA
BRANCH  20  26
ATOM     23  C   UNL     1      -3.460  12.522  23.615  0.00  0.00    +0.000 A 
ATOM     24  C   UNL     1      -3.444  13.652  22.789  0.00  0.00    +0.000 A 
ATOM     25  C   UNL     1      -2.372  13.900  21.926  0.00  0.00    +0.000 A 
ATOM     26  C   UNL     1      -1.316  12.991  21.867  0.00  0.00    +0.000 A 
ATOM     27  C   UNL     1      -1.334  11.836  22.655  0.00  0.00    +0.000 A 
ATOM     28  C   UNL     1      -2.419  11.597  23.504  0.00  0.00    +0.000 A 
BRANCH  23  29
ATOM     29  N   UNL     1      -4.609  12.207  24.348  0.00  0.00    +0.000 N 
ATOM     30  H   UNL     1      -4.430  11.930  25.308  0.00  0.00    +0.000 HD
ATOM     31  H   UNL     1      -5.248  11.575  23.877  0.00  0.00    +0.000 HD
ENDBRANCH  23  29
ENDBRANCH  20  26
ENDBRANCH   1  20
TORSDOF 4
ENDMDL
MODEL 3
REMARK VINA RESULT:      -7.9      0.257      1.320
REMARK  Name = 
REMARK  4 active torsions:
REMARK  status: ('A' for Active; 'I' for Inactive)
REMARK    1  A    between atoms: N_1  and  C_2
REMARK    2  A    between atoms: C_5  and  S_6
REMARK    3  A    between atoms: S_6  and  N_9
REMARK    4  A    between atoms: C_11  and  C_12
REMARK                            x       y       z     vdW  Elec       q    Type
REMARK                         _______ _______ _______ _____ _____    ______ ____
ROOT
ATOM      1  N   UNL     1       5.086   6.091  17.760  0.00  0.00    +0.000 N 
ATOM      2  C   UNL     1       4.467   7.298  17.940  0.00  0.00    +0.000 A 
ATOM      3  C   UNL     1       3.198   7.059  18.436  0.00  0.00    +0.000 A 
ATOM      4  C   UNL     1       3.053   5.626  18.540  0.00  0.00    +0.000 A 
ATOM      5  C   UNL     1       1.996   4.762  18.926  0.00  0.00    +0.000 A 
ATOM      6  C   UNL     1       2.223   3.397  18.882  0.00  0.00    +0.000 A 
ATOM      7  C   UNL     1       3.424   2.866  18.500  0.00  0.00    +0.000 A 
ATOM      8  C   UNL     1       4.494   3.650  18.127  0.00  0.00    +0.000 A 
ATOM      9  C   UNL     1       4.275   5.044  18.135  0.00  0.00    +0.000 A 
ATOM     10  O   UNL     1       3.425   1.506  18.517  0.00  0.00    +0.000 OA
ATOM     11  C   UNL     1       2.074   1.241  18.942  0.00  0.00    +0.000 C 
ATOM     12  O   UNL     1       1.309   2.438  19.193  0.00  0.00    +0.000 OA
ENDROOT
BRANCH   3  13
ATOM     13  C   UNL     1       2.259   8.107  18.753  0.00  0.00    +0.000 C 
ATOM     14  C   UNL     1       1.704   8.296  19.968  0.00  0.00    +0.000 C 
ATOM     15  C   UNL     1       0.701   9.370  20.281  0.00  0.00    +0.000 C 
ATOM     16  N   UNL     1       0.542  10.377  19.232  0.00  0.00    +0.000 NA
ATOM     17  C   UNL     1       0.510   9.741  17.913  0.00  0.00    +0.000 C 
ATOM     18  C   UNL     1       1.824   9.001  17.611  0.00  0.00    +0.000 C 
ATOM     19  H   UNL     1       1.337  11.013  19.275  0.00  0.00    +0.000 HD
ENDBRANCH   3  13
BRANCH   1  20
ATOM     20  S   UNL     1       6.638   5.906  17.076  0.00  0.00    +0.000 S 
ATOM     21  O   UNL     1       7.327   4.986  17.961  0.00  0.00    +0.000 OA
ATOM     22  O   UNL     1       7.128   7.244  16.813  0.00  0.00    +0.000 OA
BRANCH  20  26
ATOM     23  C   UNL     1       5.954   3.843  13.042  0.00  0.00    +0.000 A 
ATOM     24  C   UNL     1       7.198   4.408  13.344  0.00  0.00    +0.000 A 
ATOM     25  C   UNL     1       7.423   5.052  14.564  0.00  0.00    +0.000 A 
ATOM     26  C   UNL     1       6.396   5.108  15.508  0.00  0.00    +0.000 A 
ATOM     27  C   UNL     1       5.159   4.515  15.239  0.00  0.00    +0.000 A 
ATOM     28  C   UNL     1       4.955   3.864  14.019  0.00  0.00    +0.000 A 
BRANCH  23  29
ATOM     29  N   UNL     1       5.798   3.065  11.890  0.00  0.00    +0.000 N 
ATOM     30  H   UNL     1       6.670   2.802  11.442  0.00  0.00    +0.000 HD
ATOM     31  H   UNL     1       5.116   3.424  11.231  0.00  0.00    +0.000 HD
ENDBRANCH  23  29
ENDBRANCH  20  26
ENDBRANCH   1  20
TORSDOF 4
ENDMDL
MODEL 4
REMARK VINA RESULT:      -7.8      5.419     10.293
REMARK  Name = 
REMARK  4 active torsions:
REMARK  status: ('A' for Active; 'I' for Inactive)
REMARK    1  A    between atoms: N_1  and  C_2
REMARK    2  A    between atoms: C_5  and  S_6
REMARK    3  A    between atoms: S_6  and  N_9
REMARK    4  A    between atoms: C_11  and  C_12
REMARK                            x       y       z     vdW  Elec       q    Type
REMARK                         _______ _______ _______ _____ _____    ______ ____
ROOT
ATOM      1  N   UNL     1       0.215  11.737  19.802  0.00  0.00    +0.000 N 
ATOM      2  C   UNL     1       1.191  10.786  19.917  0.00  0.00    +0.000 A 
ATOM      3  C   UNL     1       0.904   9.767  19.024  0.00  0.00    +0.000 A 
ATOM      4  C   UNL     1      -0.324  10.132  18.356  0.00  0.00    +0.000 A 
ATOM      5  C   UNL     1      -1.150   9.504  17.389  0.00  0.00    +0.000 A 
ATOM      6  C   UNL     1      -2.295  10.166  16.984  0.00  0.00    +0.000 A 
ATOM      7  C   UNL     1      -2.639  11.398  17.467  0.00  0.00    +0.000 A 
ATOM      8  C   UNL     1      -1.873  12.068  18.396  0.00  0.00    +0.000 A 
ATOM      9  C   UNL     1      -0.716  11.397  18.848  0.00  0.00    +0.000 A 
ATOM     10  O   UNL     1      -3.807  11.860  16.945  0.00  0.00    +0.000 OA
ATOM     11  C   UNL     1      -4.168  10.764  16.082  0.00  0.00    +0.000 C 
ATOM     12  O   UNL     1      -3.203   9.691  16.088  0.00  0.00    +0.000 OA
ENDROOT
BRANCH   3  13
ATOM     13  C   UNL     1       1.728   8.594  18.866  0.00  0.00    +0.000 C 
ATOM     14  C   UNL     1       1.931   7.667  19.825  0.00  0.00    +0.000 C 
ATOM     15  C   UNL     1       2.818   6.465  19.663  0.00  0.00    +0.000 C 
ATOM     16  N   UNL     1       3.265   6.221  18.291  0.00  0.00    +0.000 NA
ATOM     17  C   UNL     1       3.651   7.478  17.646  0.00  0.00    +0.000 C 
ATOM     18  C   UNL     1       2.464   8.451  17.551  0.00  0.00    +0.000 C 
ATOM     19  H   UNL     1       2.493   5.804  17.772  0.00  0.00    +0.000 HD
ENDBRANCH   3  13
BRANCH   1  20
ATOM     20  S   UNL     1       0.120  13.130  20.783  0.00  0.00    +0.000 S 
ATOM     21  O   UNL     1      -0.223  14.204  19.870  0.00  0.00    +0.000 OA
ATOM     22  O   UNL     1       1.328  13.147  21.583  0.00  0.00    +0.000 OA
BRANCH  20  26
ATOM     23  C   UNL     1      -3.437  12.502  23.602  0.00  0.00    +0.000 A 
ATOM     24  C   UNL     1      -2.450  11.517  23.481  0.00  0.00    +0.000 A 
ATOM     25  C   UNL     1      -1.364  11.685  22.617  0.00  0.00    +0.000 A 
ATOM     26  C   UNL     1      -1.248  12.867  21.885  0.00  0.00    +0.000 A 
ATOM     27  C   UNL     1      -2.203  13.879  22.023  0.00  0.00    +0.000 A 
ATOM     28  C   UNL     1      -3.277  13.700  22.901  0.00  0.00    +0.000 A 
BRANCH  23  29
ATOM     29  N   UNL     1      -4.424  12.388  24.588  0.00  0.00    +0.000 N 
ATOM     30  H   UNL     1      -4.086  12.519  25.535  0.00  0.00    +0.000 HD
ATOM     31  H   UNL     1      -5.014  11.567  24.497  0.00  0.00    +0.000 HD
ENDBRANCH  23  29
ENDBRANCH  20  26
ENDBRANCH   1  20
TORSDOF 4
ENDMDL
MODEL 5
REMARK VINA RESULT:      -7.6      5.933      9.031
REMARK  Name = 
REMARK  4 active torsions:
REMARK  status: ('A' for Active; 'I' for Inactive)
REMARK    1  A    between atoms: N_1  and  C_2
REMARK    2  A    between atoms: C_5  and  S_6
REMARK    3  A    between atoms: S_6  and  N_9
REMARK    4  A    between atoms: C_11  and  C_12
REMARK                            x       y       z     vdW  Elec       q    Type
REMARK                         _______ _______ _______ _____ _____    ______ ____
ROOT
ATOM      1  N   UNL     1      -0.663  12.180  20.110  0.00  0.00    +0.000 N 
ATOM      2  C   UNL     1      -1.253  12.584  21.277  0.00  0.00    +0.000 A 
ATOM      3  C   UNL     1      -2.625  12.552  21.098  0.00  0.00    +0.000 A 
ATOM      4  C   UNL     1      -2.859  12.120  19.740  0.00  0.00    +0.000 A 
ATOM      5  C   UNL     1      -4.019  11.935  18.944  0.00  0.00    +0.000 A 
ATOM      6  C   UNL     1      -3.850  11.514  17.637  0.00  0.00    +0.000 A 
ATOM      7  C   UNL     1      -2.618  11.258  17.103  0.00  0.00    +0.000 A 
ATOM      8  C   UNL     1      -1.453  11.404  17.826  0.00  0.00    +0.000 A 
ATOM      9  C   UNL     1      -1.599  11.863  19.152  0.00  0.00    +0.000 A 
ATOM     10  O   UNL     1      -2.680  10.868  15.802  0.00  0.00    +0.000 OA
ATOM     11  C   UNL     1      -4.102  10.922  15.572  0.00  0.00    +0.000 C 
ATOM     12  O   UNL     1      -4.854  11.315  16.740  0.00  0.00    +0.000 OA
ENDROOT
BRANCH   3  13
ATOM     13  C   UNL     1      -3.568  12.910  22.128  0.00  0.00    +0.000 C 
ATOM     14  C   UNL     1      -4.569  13.801  21.974  0.00  0.00    +0.000 C 
ATOM     15  C   UNL     1      -5.527  14.193  23.063  0.00  0.00    +0.000 C 
ATOM     16  N   UNL     1      -5.465  13.352  24.258  0.00  0.00    +0.000 NA
ATOM     17  C   UNL     1      -4.073  13.064  24.610  0.00  0.00    +0.000 C 
ATOM     18  C   UNL     1      -3.358  12.286  23.491  0.00  0.00    +0.000 C 
ATOM     19  H   UNL     1      -5.946  12.475  24.059  0.00  0.00    +0.000 HD
ENDBRANCH   3  13
BRANCH   1  20
ATOM     20  S   UNL     1       1.022  12.157  19.850  0.00  0.00    +0.000 S 
ATOM     21  O   UNL     1       1.602  12.445  21.148  0.00  0.00    +0.000 OA
ATOM     22  O   UNL     1       1.266  12.990  18.689  0.00  0.00    +0.000 OA
BRANCH  20  26
ATOM     23  C   UNL     1       2.050   7.829  18.754  0.00  0.00    +0.000 A 
ATOM     24  C   UNL     1       2.276   8.861  17.837  0.00  0.00    +0.000 A 
ATOM     25  C   UNL     1       1.958  10.187  18.148  0.00  0.00    +0.000 A 
ATOM     26  C   UNL     1       1.432  10.487  19.406  0.00  0.00    +0.000 A 
ATOM     27  C   UNL     1       1.237   9.474  20.349  0.00  0.00    +0.000 A 
ATOM     28  C   UNL     1       1.572   8.155  20.026  0.00  0.00    +0.000 A 
BRANCH  23  29
ATOM     29  N   UNL     1       2.524   6.539  18.488  0.00  0.00    +0.000 N 
ATOM     30  H   UNL     1       3.278   6.237  19.096  0.00  0.00    +0.000 HD
ATOM     31  H   UNL     1       2.720   6.358  17.510  0.00  0.00    +0.000 HD
ENDBRANCH  23  29
ENDBRANCH  20  26
ENDBRANCH   1  20
TORSDOF 4
ENDMDL
MODEL 6
REMARK VINA RESULT:      -7.6      4.715      8.317
REMARK  Name = 
REMARK  4 active torsions:
REMARK  status: ('A' for Active; 'I' for Inactive)
REMARK    1  A    between atoms: N_1  and  C_2
REMARK    2  A    between atoms: C_5  and  S_6
REMARK    3  A    between atoms: S_6  and  N_9
REMARK    4  A    between atoms: C_11  and  C_12
REMARK                            x       y       z     vdW  Elec       q    Type
REMARK                         _______ _______ _______ _____ _____    ______ ____
ROOT
ATOM      1  N   UNL     1      -0.041  10.273  20.063  0.00  0.00    +0.000 N 
ATOM      2  C   UNL     1      -1.218  10.067  19.396  0.00  0.00    +0.000 A 
ATOM      3  C   UNL     1      -1.502  11.207  18.665  0.00  0.00    +0.000 A 
ATOM      4  C   UNL     1      -0.438  12.148  18.929  0.00  0.00    +0.000 A 
ATOM      5  C   UNL     1      -0.175  13.484  18.531  0.00  0.00    +0.000 A 
ATOM      6  C   UNL     1       0.972  14.091  19.011  0.00  0.00    +0.000 A 
ATOM      7  C   UNL     1       1.855  13.446  19.831  0.00  0.00    +0.000 A 
ATOM      8  C   UNL     1       1.665  12.144  20.243  0.00  0.00    +0.000 A 
ATOM      9  C   UNL     1       0.486  11.515  19.791  0.00  0.00    +0.000 A 
ATOM     10  O   UNL     1       2.905  14.230  20.194  0.00  0.00    +0.000 OA
ATOM     11  C   UNL     1       2.572  15.456  19.514  0.00  0.00    +0.000 C 
ATOM     12  O   UNL     1       1.354  15.370  18.746  0.00  0.00    +0.000 OA
ENDROOT
BRANCH   3  13
ATOM     13  C   UNL     1      -2.670  11.345  17.831  0.00  0.00    +0.000 C 
ATOM     14  C   UNL     1      -3.905  11.640  18.286  0.00  0.00    +0.000 C 
ATOM     15  C   UNL     1      -5.123  11.748  17.413  0.00  0.00    +0.000 C 
ATOM     16  N   UNL     1      -4.843  11.759  15.977  0.00  0.00    +0.000 NA
ATOM     17  C   UNL     1      -3.822  10.762  15.648  0.00  0.00    +0.000 C 
ATOM     18  C   UNL     1      -2.490  11.063  16.355  0.00  0.00    +0.000 C 
ATOM     19  H   UNL     1      -4.498  12.684  15.725  0.00  0.00    +0.000 HD
ENDBRANCH   3  13
BRANCH   1  20
ATOM     20  S   UNL     1       0.642   9.160  21.160  0.00  0.00    +0.000 S 
ATOM     21  O   UNL     1      -0.493   8.470  21.744  0.00  0.00    +0.000 OA
ATOM     22  O   UNL     1       1.591   9.908  21.960  0.00  0.00    +0.000 OA
BRANCH  20  26
ATOM     23  C   UNL     1       3.039   6.216  18.596  0.00  0.00    +0.000 A 
ATOM     24  C   UNL     1       2.527   5.817  19.835  0.00  0.00    +0.000 A 
ATOM     25  C   UNL     1       1.804   6.704  20.637  0.00  0.00    +0.000 A 
ATOM     26  C   UNL     1       1.565   8.001  20.181  0.00  0.00    +0.000 A 
ATOM     27  C   UNL     1       2.035   8.405  18.927  0.00  0.00    +0.000 A 
ATOM     28  C   UNL     1       2.746   7.501  18.132  0.00  0.00    +0.000 A 
BRANCH  23  29
ATOM     29  N   UNL     1       3.617   5.272  17.739  0.00  0.00    +0.000 N 
ATOM     30  H   UNL     1       4.603   5.103  17.907  0.00  0.00    +0.000 HD
ATOM     31  H   UNL     1       3.411   5.416  16.756  0.00  0.00    +0.000 HD
ENDBRANCH  23  29
ENDBRANCH  20  26
ENDBRANCH   1  20
TORSDOF 4
ENDMDL
MODEL 7
REMARK VINA RESULT:      -7.5      6.063     11.016
REMARK  Name = 
REMARK  4 active torsions:
REMARK  status: ('A' for Active; 'I' for Inactive)
REMARK    1  A    between atoms: N_1  and  C_2
REMARK    2  A    between atoms: C_5  and  S_6
REMARK    3  A    between atoms: S_6  and  N_9
REMARK    4  A    between atoms: C_11  and  C_12
REMARK                            x       y       z     vdW  Elec       q    Type
REMARK                         _______ _______ _______ _____ _____    ______ ____
ROOT
ATOM      1  N   UNL     1      -0.402  12.265  20.435  0.00  0.00    +0.000 N 
ATOM      2  C   UNL     1       0.620  11.354  20.403  0.00  0.00    +0.000 A 
ATOM      3  C   UNL     1       0.262  10.339  19.533  0.00  0.00    +0.000 A 
ATOM      4  C   UNL     1      -1.054  10.661  19.034  0.00  0.00    +0.000 A 
ATOM      5  C   UNL     1      -1.972  10.014  18.167  0.00  0.00    +0.000 A 
ATOM      6  C   UNL     1      -3.185  10.633  17.925  0.00  0.00    +0.000 A 
ATOM      7  C   UNL     1      -3.515  11.841  18.475  0.00  0.00    +0.000 A 
ATOM      8  C   UNL     1      -2.664  12.528  19.314  0.00  0.00    +0.000 A 
ATOM      9  C   UNL     1      -1.433  11.900  19.600  0.00  0.00    +0.000 A 
ATOM     10  O   UNL     1      -4.757  12.260  18.117  0.00  0.00    +0.000 OA
ATOM     11  C   UNL     1      -5.181  11.164  17.283  0.00  0.00    +0.000 C 
ATOM     12  O   UNL     1      -4.180  10.134  17.142  0.00  0.00    +0.000 OA
ENDROOT
BRANCH   3  13
ATOM     13  C   UNL     1       1.106   9.206  19.245  0.00  0.00    +0.000 C 
ATOM     14  C   UNL     1       1.464   8.270  20.148  0.00  0.00    +0.000 C 
ATOM     15  C   UNL     1       2.372   7.111  19.848  0.00  0.00    +0.000 C 
ATOM     16  N   UNL     1       2.655   6.912  18.426  0.00  0.00    +0.000 NA
ATOM     17  C   UNL     1       2.906   8.197  17.770  0.00  0.00    +0.000 C 
ATOM     18  C   UNL     1       1.679   9.121  17.846  0.00  0.00    +0.000 C 
ATOM     19  H   UNL     1       1.841   6.473  17.996  0.00  0.00    +0.000 HD
ENDBRANCH   3  13
BRANCH   1  20
ATOM     20  S   UNL     1      -0.427  13.635  21.451  0.00  0.00    +0.000 S 
ATOM     21  O   UNL     1      -0.579  14.762  20.550  0.00  0.00    +0.000 OA
ATOM     22  O   UNL     1       0.707  13.502  22.342  0.00  0.00    +0.000 OA
BRANCH  20  26
ATOM     23  C   UNL     1      -4.205  13.223  24.010  0.00  0.00    +0.000 A 
ATOM     24  C   UNL     1      -3.939  14.418  23.332  0.00  0.00    +0.000 A 
ATOM     25  C   UNL     1      -2.786  14.567  22.556  0.00  0.00    +0.000 A 
ATOM     26  C   UNL     1      -1.899  13.496  22.434  0.00  0.00    +0.000 A 
ATOM     27  C   UNL     1      -2.169  12.282  23.073  0.00  0.00    +0.000 A 
ATOM     28  C   UNL     1      -3.333  12.146  23.835  0.00  0.00    +0.000 A 
BRANCH  23  29
ATOM     29  N   UNL     1      -5.437  13.037  24.646  0.00  0.00    +0.000 N 
ATOM     30  H   UNL     1      -6.222  12.926  24.012  0.00  0.00    +0.000 HD
ATOM     31  H   UNL     1      -5.631  13.700  25.389  0.00  0.00    +0.000 HD
ENDBRANCH  23  29
ENDBRANCH  20  26
ENDBRANCH   1  20
TORSDOF 4
ENDMDL
MODEL 8
REMARK VINA RESULT:      -7.5      5.693      9.856
REMARK  Name = 
REMARK  4 active torsions:
REMARK  status: ('A' for Active; 'I' for Inactive)
REMARK    1  A    between atoms: N_1  and  C_2
REMARK    2  A    between atoms: C_5  and  S_6
REMARK    3  A    between atoms: S_6  and  N_9
REMARK    4  A    between atoms: C_11  and  C_12
REMARK                            x       y       z     vdW  Elec       q    Type
REMARK                         _______ _______ _______ _____ _____    ______ ____
ROOT
ATOM      1  N   UNL     1      -0.030  11.803  19.892  0.00  0.00    +0.000 N 
ATOM      2  C   UNL     1       0.986  10.900  20.048  0.00  0.00    +0.000 A 
ATOM      3  C   UNL     1       0.807   9.889  19.120  0.00  0.00    +0.000 A 
ATOM      4  C   UNL     1      -0.394  10.207  18.383  0.00  0.00    +0.000 A 
ATOM      5  C   UNL     1      -1.127   9.560  17.355  0.00  0.00    +0.000 A 
ATOM      6  C   UNL     1      -2.277  10.173  16.892  0.00  0.00    +0.000 A 
ATOM      7  C   UNL     1      -2.714  11.375  17.377  0.00  0.00    +0.000 A 
ATOM      8  C   UNL     1      -2.041  12.061  18.366  0.00  0.00    +0.000 A 
ATOM      9  C   UNL     1      -0.882  11.439  18.875  0.00  0.00    +0.000 A 
ATOM     10  O   UNL     1      -3.869  11.789  16.793  0.00  0.00    +0.000 OA
ATOM     11  C   UNL     1      -4.120  10.696  15.887  0.00  0.00    +0.000 C 
ATOM     12  O   UNL     1      -3.103   9.674  15.932  0.00  0.00    +0.000 OA
ENDROOT
BRANCH   3  13
ATOM     13  C   UNL     1       1.699   8.763  18.990  0.00  0.00    +0.000 C 
ATOM     14  C   UNL     1       2.421   8.483  17.886  0.00  0.00    +0.000 C 
ATOM     15  C   UNL     1       3.323   7.289  17.747  0.00  0.00    +0.000 C 
ATOM     16  N   UNL     1       3.567   6.564  18.995  0.00  0.00    +0.000 NA
ATOM     17  C   UNL     1       2.327   6.430  19.761  0.00  0.00    +0.000 C 
ATOM     18  C   UNL     1       1.757   7.802  20.158  0.00  0.00    +0.000 C 
ATOM     19  H   UNL     1       4.243   7.093  19.545  0.00  0.00    +0.000 HD
ENDBRANCH   3  13
BRANCH   1  20
ATOM     20  S   UNL     1      -0.257  13.166  20.893  0.00  0.00    +0.000 S 
ATOM     21  O   UNL     1       0.740  13.030  21.938  0.00  0.00    +0.000 OA
ATOM     22  O   UNL     1      -1.676  13.229  21.178  0.00  0.00    +0.000 OA
BRANCH  20  26
ATOM     23  C   UNL     1       0.747  16.845  18.354  0.00  0.00    +0.000 A 
ATOM     24  C   UNL     1       1.726  15.879  18.614  0.00  0.00    +0.000 A 
ATOM     25  C   UNL     1       1.442  14.756  19.397  0.00  0.00    +0.000 A 
ATOM     26  C   UNL     1       0.153  14.582  19.903  0.00  0.00    +0.000 A 
ATOM     27  C   UNL     1      -0.847  15.516  19.619  0.00  0.00    +0.000 A 
ATOM     28  C   UNL     1      -0.550  16.628  18.825  0.00  0.00    +0.000 A 
BRANCH  23  29
ATOM     29  N   UNL     1       1.002  17.872  17.439  0.00  0.00    +0.000 N 
ATOM     30  H   UNL     1       0.613  18.772  17.701  0.00  0.00    +0.000 HD
ATOM     31  H   UNL     1       0.806  17.632  16.473  0.00  0.00    +0.000 HD
ENDBRANCH  23  29
ENDBRANCH  20  26
ENDBRANCH   1  20
TORSDOF 4
ENDMDL
MODEL 9
REMARK VINA RESULT:      -7.4      5.713      9.929
REMARK  Name = 
REMARK  4 active torsions:
REMARK  status: ('A' for Active; 'I' for Inactive)
REMARK    1  A    between atoms: N_1  and  C_2
REMARK    2  A    between atoms: C_5  and  S_6
REMARK    3  A    between atoms: S_6  and  N_9
REMARK    4  A    between atoms: C_11  and  C_12
REMARK                            x       y       z     vdW  Elec       q    Type
REMARK                         _______ _______ _______ _____ _____    ______ ____
ROOT
ATOM      1  N   UNL     1      -0.297  11.674  20.113  0.00  0.00    +0.000 N 
ATOM      2  C   UNL     1       0.691  10.760  20.360  0.00  0.00    +0.000 A 
ATOM      3  C   UNL     1       0.615   9.775  19.391  0.00  0.00    +0.000 A 
ATOM      4  C   UNL     1      -0.493  10.119  18.531  0.00  0.00    +0.000 A 
ATOM      5  C   UNL     1      -1.106   9.504  17.409  0.00  0.00    +0.000 A 
ATOM      6  C   UNL     1      -2.194  10.137  16.835  0.00  0.00    +0.000 A 
ATOM      7  C   UNL     1      -2.679  11.328  17.299  0.00  0.00    +0.000 A 
ATOM      8  C   UNL     1      -2.121  11.984  18.375  0.00  0.00    +0.000 A 
ATOM      9  C   UNL     1      -1.029  11.342  18.996  0.00  0.00    +0.000 A 
ATOM     10  O   UNL     1      -3.759  11.765  16.598  0.00  0.00    +0.000 OA
ATOM     11  C   UNL     1      -3.908  10.698  15.641  0.00  0.00    +0.000 C 
ATOM     12  O   UNL     1      -2.907   9.667  15.774  0.00  0.00    +0.000 OA
ENDROOT
BRANCH   3  13
ATOM     13  C   UNL     1       1.512   8.647  19.333  0.00  0.00    +0.000 C 
ATOM     14  C   UNL     1       2.231   8.296  18.248  0.00  0.00    +0.000 C 
ATOM     15  C   UNL     1       3.138   7.099  18.187  0.00  0.00    +0.000 C 
ATOM     16  N   UNL     1       3.391   6.462  19.479  0.00  0.00    +0.000 NA
ATOM     17  C   UNL     1       2.154   6.374  20.258  0.00  0.00    +0.000 C 
ATOM     18  C   UNL     1       1.580   7.768  20.564  0.00  0.00    +0.000 C 
ATOM     19  H   UNL     1       4.066   7.030  19.990  0.00  0.00    +0.000 HD
ENDBRANCH   3  13
BRANCH   1  20
ATOM     20  S   UNL     1      -0.632  13.012  21.117  0.00  0.00    +0.000 S 
ATOM     21  O   UNL     1       0.350  12.932  22.183  0.00  0.00    +0.000 OA
ATOM     22  O   UNL     1      -2.058  12.982  21.372  0.00  0.00    +0.000 OA
BRANCH  20  26
ATOM     23  C   UNL     1       0.292  16.715  18.583  0.00  0.00    +0.000 A 
ATOM     24  C   UNL     1      -0.908  16.631  19.297  0.00  0.00    +0.000 A 
ATOM     25  C   UNL     1      -1.213  15.504  20.066  0.00  0.00    +0.000 A 
ATOM     26  C   UNL     1      -0.293  14.459  20.144  0.00  0.00    +0.000 A 
ATOM     27  C   UNL     1       0.929  14.543  19.469  0.00  0.00    +0.000 A 
ATOM     28  C   UNL     1       1.223  15.682  18.714  0.00  0.00    +0.000 A 
BRANCH  23  29
ATOM     29  N   UNL     1       0.651  17.913  17.954  0.00  0.00    +0.000 N 
ATOM     30  H   UNL     1       0.507  18.742  18.520  0.00  0.00    +0.000 HD
ATOM     31  H   UNL     1       0.285  18.018  17.013  0.00  0.00    +0.000 HD
ENDBRANCH  23  29
ENDBRANCH  20  26
ENDBRANCH   1  20
TORSDOF 4
ENDMDL
