MODEL 1
REMARK VINA RESULT:      -7.0      0.000      0.000
REMARK  Name = 
REMARK  7 active torsions:
REMARK  status: ('A' for Active; 'I' for Inactive)
REMARK    1  A    between atoms: C_1  and  C_2
REMARK    2  A    between atoms: C_6  and  C_7
REMARK    3  A    between atoms: C_8  and  O_9
REMARK    4  A    between atoms: O_9  and  C_10
REMARK    5  A    between atoms: C_10  and  C_11
REMARK    6  A    between atoms: N_13  and  C_14
REMARK    7  A    between atoms: C_14  and  C_15
REMARK                            x       y       z     vdW  Elec       q    Type
REMARK                         _______ _______ _______ _____ _____    ______ ____
ROOT
ATOM      1  C   UNL     1       4.715   5.055  16.977  0.00  0.00    +0.000 C 
ATOM      2  O   UNL     1       5.012   5.301  15.811  0.00  0.00    +0.000 OA
ATOM      3  N   UNL     1       4.133   5.984  17.813  0.00  0.00    +0.000 N 
ATOM      4  H   UNL     1       3.829   5.708  18.738  0.00  0.00    +0.000 HD
ENDROOT
BRANCH   1   5
ATOM      5  C   UNL     1       4.906   3.667  17.595  0.00  0.00    +0.000 C 
BRANCH   5   6
ATOM      6  O   UNL     1       3.680   2.998  17.793  0.00  0.00    +0.000 OA
BRANCH   6  14
ATOM      7  C   UNL     1       4.793   1.901  20.549  0.00  0.00    +0.000 C 
ATOM      8  C   UNL     1       3.472   2.561  20.262  0.00  0.00    +0.000 A 
ATOM      9  C   UNL     1       2.615   2.691  21.375  0.00  0.00    +0.000 A 
ATOM     10  C   UNL     1       1.363   3.290  21.276  0.00  0.00    +0.000 A 
ATOM     11  C   UNL     1       0.940   3.781  20.052  0.00  0.00    +0.000 A 
ATOM     12  C   UNL     1       1.763   3.669  18.919  0.00  0.00    +0.000 A 
ATOM     13  C   UNL     1       1.256   4.231  17.615  0.00  0.00    +0.000 C 
ATOM     14  C   UNL     1       3.036   3.047  19.008  0.00  0.00    +0.000 A 
ENDBRANCH   6  14
ENDBRANCH   5   6
ENDBRANCH   1   5
BRANCH   3  15
ATOM     15  C   UNL     1       3.713   7.274  17.315  0.00  0.00    +0.000 C 
BRANCH  15  16
ATOM     16  C   UNL     1       2.720   7.921  18.241  0.00  0.00    +0.000 A 
ATOM     17  C   UNL     1       2.094   9.121  17.872  0.00  0.00    +0.000 A 
ATOM     18  C   UNL     1       1.174   9.732  18.725  0.00  0.00    +0.000 A 
ATOM     19  C   UNL     1       0.878   9.157  19.959  0.00  0.00    +0.000 A 
ATOM     20  C   UNL     1       1.503   7.972  20.343  0.00  0.00    +0.000 A 
ATOM     21  C   UNL     1       2.422   7.357  19.490  0.00  0.00    +0.000 A 
ENDBRANCH  15  16
ENDBRANCH   3  15
TORSDOF 5
ENDMDL
MODEL 2
REMARK VINA RESULT:      -7.0      0.249      2.247
REMARK  Name = 
REMARK  7 active torsions:
REMARK  status: ('A' for Active; 'I' for Inactive)
REMARK    1  A    between atoms: C_1  and  C_2
REMARK    2  A    between atoms: C_6  and  C_7
REMARK    3  A    between atoms: C_8  and  O_9
REMARK    4  A    between atoms: O_9  and  C_10
REMARK    5  A    between atoms: C_10  and  C_11
REMARK    6  A    between atoms: N_13  and  C_14
REMARK    7  A    between atoms: C_14  and  C_15
REMARK                            x       y       z     vdW  Elec       q    Type
REMARK                         _______ _______ _______ _____ _____    ______ ____
ROOT
ATOM      1  C   UNL     1       4.724   5.140  17.238  0.00  0.00    +0.000 C 
ATOM      2  O   UNL     1       4.672   5.132  16.010  0.00  0.00    +0.000 OA
ATOM      3  N   UNL     1       4.332   6.223  17.996  0.00  0.00    +0.000 N 
ATOM      4  H   UNL     1       4.313   6.150  19.006  0.00  0.00    +0.000 HD
ENDROOT
BRANCH   1   5
ATOM      5  C   UNL     1       5.168   3.918  18.046  0.00  0.00    +0.000 C 
BRANCH   5   6
ATOM      6  O   UNL     1       4.145   2.955  18.163  0.00  0.00    +0.000 OA
BRANCH   6  14
ATOM      7  C   UNL     1       1.353   4.354  17.627  0.00  0.00    +0.000 C 
ATOM      8  C   UNL     1       1.871   3.739  18.899  0.00  0.00    +0.000 A 
ATOM      9  C   UNL     1       0.991   3.816  20.000  0.00  0.00    +0.000 A 
ATOM     10  C   UNL     1       1.319   3.284  21.243  0.00  0.00    +0.000 A 
ATOM     11  C   UNL     1       2.541   2.655  21.413  0.00  0.00    +0.000 A 
ATOM     12  C   UNL     1       3.446   2.561  20.342  0.00  0.00    +0.000 A 
ATOM     13  C   UNL     1       4.756   1.855  20.581  0.00  0.00    +0.000 C 
ATOM     14  C   UNL     1       3.125   3.112  19.074  0.00  0.00    +0.000 A 
ENDBRANCH   6  14
ENDBRANCH   5   6
ENDBRANCH   1   5
BRANCH   3  15
ATOM     15  C   UNL     1       3.707   7.373  17.385  0.00  0.00    +0.000 C 
BRANCH  15  16
ATOM     16  C   UNL     1       2.698   8.003  18.306  0.00  0.00    +0.000 A 
ATOM     17  C   UNL     1       2.404   7.405  19.540  0.00  0.00    +0.000 A 
ATOM     18  C   UNL     1       1.466   7.977  20.400  0.00  0.00    +0.000 A 
ATOM     19  C   UNL     1       0.806   9.148  20.032  0.00  0.00    +0.000 A 
ATOM     20  C   UNL     1       1.080   9.745  18.803  0.00  0.00    +0.000 A 
ATOM     21  C   UNL     1       2.019   9.175  17.941  0.00  0.00    +0.000 A 
ENDBRANCH  15  16
ENDBRANCH   3  15
TORSDOF 5
ENDMDL
MODEL 3
REMARK VINA RESULT:      -7.0      2.872      5.225
REMARK  Name = 
REMARK  7 active torsions:
REMARK  status: ('A' for Active; 'I' for Inactive)
REMARK    1  A    between atoms: C_1  and  C_2
REMARK    2  A    between atoms: C_6  and  C_7
REMARK    3  A    between atoms: C_8  and  O_9
REMARK    4  A    between atoms: O_9  and  C_10
REMARK    5  A    between atoms: C_10  and  C_11
REMARK    6  A    between atoms: N_13  and  C_14
REMARK    7  A    between atoms: C_14  and  C_15
REMARK                            x       y       z     vdW  Elec       q    Type
REMARK                         _______ _______ _______ _____ _____    ______ ____
ROOT
ATOM      1  C   UNL     1       6.638   4.925  18.148  0.00  0.00    +0.000 C 
ATOM      2  O   UNL     1       7.812   4.875  18.504  0.00  0.00    +0.000 OA
ATOM      3  N   UNL     1       6.258   5.269  16.867  0.00  0.00    +0.000 N 
ATOM      4  H   UNL     1       5.283   5.213  16.600  0.00  0.00    +0.000 HD
ENDROOT
BRANCH   1   5
ATOM      5  C   UNL     1       5.483   4.546  19.079  0.00  0.00    +0.000 C 
BRANCH   5   6
ATOM      6  O   UNL     1       4.232   4.609  18.431  0.00  0.00    +0.000 OA
BRANCH   6  14
ATOM      7  C   UNL     1       3.594   1.511  18.245  0.00  0.00    +0.000 C 
ATOM      8  C   UNL     1       2.785   2.603  18.890  0.00  0.00    +0.000 A 
ATOM      9  C   UNL     1       1.572   2.181  19.476  0.00  0.00    +0.000 A 
ATOM     10  C   UNL     1       0.718   3.069  20.122  0.00  0.00    +0.000 A 
ATOM     11  C   UNL     1       1.062   4.407  20.201  0.00  0.00    +0.000 A 
ATOM     12  C   UNL     1       2.260   4.868  19.628  0.00  0.00    +0.000 A 
ATOM     13  C   UNL     1       2.588   6.334  19.755  0.00  0.00    +0.000 C 
ATOM     14  C   UNL     1       3.131   3.972  18.956  0.00  0.00    +0.000 A 
ENDBRANCH   6  14
ENDBRANCH   5   6
ENDBRANCH   1   5
BRANCH   3  15
ATOM     15  C   UNL     1       7.240   5.461  15.826  0.00  0.00    +0.000 C 
BRANCH  15  16
ATOM     16  C   UNL     1       6.811   4.808  14.540  0.00  0.00    +0.000 A 
ATOM     17  C   UNL     1       7.606   4.929  13.391  0.00  0.00    +0.000 A 
ATOM     18  C   UNL     1       7.215   4.331  12.193  0.00  0.00    +0.000 A 
ATOM     19  C   UNL     1       6.021   3.615  12.127  0.00  0.00    +0.000 A 
ATOM     20  C   UNL     1       5.215   3.500  13.259  0.00  0.00    +0.000 A 
ATOM     21  C   UNL     1       5.605   4.096  14.460  0.00  0.00    +0.000 A 
ENDBRANCH  15  16
ENDBRANCH   3  15
TORSDOF 5
ENDMDL
MODEL 4
REMARK VINA RESULT:      -7.0      0.363      1.988
REMARK  Name = 
REMARK  7 active torsions:
REMARK  status: ('A' for Active; 'I' for Inactive)
REMARK    1  A    between atoms: C_1  and  C_2
REMARK    2  A    between atoms: C_6  and  C_7
REMARK    3  A    between atoms: C_8  and  O_9
REMARK    4  A    between atoms: O_9  and  C_10
REMARK    5  A    between atoms: C_10  and  C_11
REMARK    6  A    between atoms: N_13  and  C_14
REMARK    7  A    between atoms: C_14  and  C_15
REMARK                            x       y       z     vdW  Elec       q    Type
REMARK                         _______ _______ _______ _____ _____    ______ ____
ROOT
ATOM      1  C   UNL     1       4.771   5.301  17.404  0.00  0.00    +0.000 C 
ATOM      2  O   UNL     1       4.891   5.400  16.185  0.00  0.00    +0.000 OA
ATOM      3  N   UNL     1       4.182   6.277  18.180  0.00  0.00    +0.000 N 
ATOM      4  H   UNL     1       4.030   6.111  19.167  0.00  0.00    +0.000 HD
ENDROOT
BRANCH   1   5
ATOM      5  C   UNL     1       5.209   4.050  18.171  0.00  0.00    +0.000 C 
BRANCH   5   6
ATOM      6  O   UNL     1       4.201   3.065  18.206  0.00  0.00    +0.000 OA
BRANCH   6  14
ATOM      7  C   UNL     1       1.366   4.359  17.636  0.00  0.00    +0.000 C 
ATOM      8  C   UNL     1       1.880   3.734  18.905  0.00  0.00    +0.000 A 
ATOM      9  C   UNL     1       0.971   3.744  19.985  0.00  0.00    +0.000 A 
ATOM     10  C   UNL     1       1.292   3.195  21.222  0.00  0.00    +0.000 A 
ATOM     11  C   UNL     1       2.535   2.613  21.406  0.00  0.00    +0.000 A 
ATOM     12  C   UNL     1       3.468   2.585  20.356  0.00  0.00    +0.000 A 
ATOM     13  C   UNL     1       4.802   1.930  20.610  0.00  0.00    +0.000 C 
ATOM     14  C   UNL     1       3.155   3.155  19.095  0.00  0.00    +0.000 A 
ENDBRANCH   6  14
ENDBRANCH   5   6
ENDBRANCH   1   5
BRANCH   3  15
ATOM     15  C   UNL     1       3.545   7.424  17.576  0.00  0.00    +0.000 C 
BRANCH  15  16
ATOM     16  C   UNL     1       2.535   8.042  18.504  0.00  0.00    +0.000 A 
ATOM     17  C   UNL     1       1.862   9.214  18.131  0.00  0.00    +0.000 A 
ATOM     18  C   UNL     1       0.927   9.798  18.986  0.00  0.00    +0.000 A 
ATOM     19  C   UNL     1       0.663   9.223  20.228  0.00  0.00    +0.000 A 
ATOM     20  C   UNL     1       1.336   8.066  20.617  0.00  0.00    +0.000 A 
ATOM     21  C   UNL     1       2.270   7.478  19.761  0.00  0.00    +0.000 A 
ENDBRANCH  15  16
ENDBRANCH   3  15
TORSDOF 5
ENDMDL
MODEL 5
REMARK VINA RESULT:      -6.9      2.891      5.439
REMARK  Name = 
REMARK  7 active torsions:
REMARK  status: ('A' for Active; 'I' for Inactive)
REMARK    1  A    between atoms: C_1  and  C_2
REMARK    2  A    between atoms: C_6  and  C_7
REMARK    3  A    between atoms: C_8  and  O_9
REMARK    4  A    between atoms: O_9  and  C_10
REMARK    5  A    between atoms: C_10  and  C_11
REMARK    6  A    between atoms: N_13  and  C_14
REMARK    7  A    between atoms: C_14  and  C_15
REMARK                            x       y       z     vdW  Elec       q    Type
REMARK                         _______ _______ _______ _____ _____    ______ ____
ROOT
ATOM      1  C   UNL     1       6.529   4.753  18.107  0.00  0.00    +0.000 C 
ATOM      2  O   UNL     1       7.688   4.769  18.515  0.00  0.00    +0.000 OA
ATOM      3  N   UNL     1       6.190   5.059  16.806  0.00  0.00    +0.000 N 
ATOM      4  H   UNL     1       5.232   4.949  16.497  0.00  0.00    +0.000 HD
ENDROOT
BRANCH   1   5
ATOM      5  C   UNL     1       5.356   4.327  18.993  0.00  0.00    +0.000 C 
BRANCH   5   6
ATOM      6  O   UNL     1       4.116   4.443  18.330  0.00  0.00    +0.000 OA
BRANCH   6  14
ATOM      7  C   UNL     1       2.301   6.366  20.076  0.00  0.00    +0.000 C 
ATOM      8  C   UNL     1       2.102   4.907  19.763  0.00  0.00    +0.000 A 
ATOM      9  C   UNL     1       0.956   4.323  20.344  0.00  0.00    +0.000 A 
ATOM     10  C   UNL     1       0.627   2.987  20.141  0.00  0.00    +0.000 A 
ATOM     11  C   UNL     1       1.439   2.200  19.343  0.00  0.00    +0.000 A 
ATOM     12  C   UNL     1       2.591   2.744  18.748  0.00  0.00    +0.000 A 
ATOM     13  C   UNL     1       3.433   1.843  17.880  0.00  0.00    +0.000 C 
ATOM     14  C   UNL     1       2.942   4.102  18.961  0.00  0.00    +0.000 A 
ENDBRANCH   6  14
ENDBRANCH   5   6
ENDBRANCH   1   5
BRANCH   3  15
ATOM     15  C   UNL     1       7.206   5.289  15.806  0.00  0.00    +0.000 C 
BRANCH  15  16
ATOM     16  C   UNL     1       6.800   4.724  14.472  0.00  0.00    +0.000 A 
ATOM     17  C   UNL     1       5.593   4.019  14.346  0.00  0.00    +0.000 A 
ATOM     18  C   UNL     1       5.209   3.487  13.115  0.00  0.00    +0.000 A 
ATOM     19  C   UNL     1       6.030   3.644  12.000  0.00  0.00    +0.000 A 
ATOM     20  C   UNL     1       7.238   4.330  12.115  0.00  0.00    +0.000 A 
ATOM     21  C   UNL     1       7.624   4.866  13.346  0.00  0.00    +0.000 A 
ENDBRANCH  15  16
ENDBRANCH   3  15
TORSDOF 5
ENDMDL
MODEL 6
REMARK VINA RESULT:      -6.9      2.804      5.188
REMARK  Name = 
REMARK  7 active torsions:
REMARK  status: ('A' for Active; 'I' for Inactive)
REMARK    1  A    between atoms: C_1  and  C_2
REMARK    2  A    between atoms: C_6  and  C_7
REMARK    3  A    between atoms: C_8  and  O_9
REMARK    4  A    between atoms: O_9  and  C_10
REMARK    5  A    between atoms: C_10  and  C_11
REMARK    6  A    between atoms: N_13  and  C_14
REMARK    7  A    between atoms: C_14  and  C_15
REMARK                            x       y       z     vdW  Elec       q    Type
REMARK                         _______ _______ _______ _____ _____    ______ ____
ROOT
ATOM      1  C   UNL     1       6.694   4.853  18.036  0.00  0.00    +0.000 C 
ATOM      2  O   UNL     1       7.826   4.420  18.232  0.00  0.00    +0.000 OA
ATOM      3  N   UNL     1       6.339   5.529  16.888  0.00  0.00    +0.000 N 
ATOM      4  H   UNL     1       5.372   5.791  16.737  0.00  0.00    +0.000 HD
ENDROOT
BRANCH   1   5
ATOM      5  C   UNL     1       5.548   4.626  19.026  0.00  0.00    +0.000 C 
BRANCH   5   6
ATOM      6  O   UNL     1       4.286   4.650  18.398  0.00  0.00    +0.000 OA
BRANCH   6  14
ATOM      7  C   UNL     1       3.677   1.543  18.273  0.00  0.00    +0.000 C 
ATOM      8  C   UNL     1       2.871   2.637  18.920  0.00  0.00    +0.000 A 
ATOM      9  C   UNL     1       1.677   2.212  19.541  0.00  0.00    +0.000 A 
ATOM     10  C   UNL     1       0.828   3.100  20.192  0.00  0.00    +0.000 A 
ATOM     11  C   UNL     1       1.160   4.444  20.243  0.00  0.00    +0.000 A 
ATOM     12  C   UNL     1       2.339   4.908  19.636  0.00  0.00    +0.000 A 
ATOM     13  C   UNL     1       2.655   6.379  19.733  0.00  0.00    +0.000 C 
ATOM     14  C   UNL     1       3.204   4.010  18.958  0.00  0.00    +0.000 A 
ENDBRANCH   6  14
ENDBRANCH   5   6
ENDBRANCH   1   5
BRANCH   3  15
ATOM     15  C   UNL     1       7.258   5.648  15.780  0.00  0.00    +0.000 C 
BRANCH  15  16
ATOM     16  C   UNL     1       6.755   4.912  14.568  0.00  0.00    +0.000 A 
ATOM     17  C   UNL     1       5.489   4.307  14.589  0.00  0.00    +0.000 A 
ATOM     18  C   UNL     1       5.015   3.617  13.473  0.00  0.00    +0.000 A 
ATOM     19  C   UNL     1       5.803   3.517  12.328  0.00  0.00    +0.000 A 
ATOM     20  C   UNL     1       7.068   4.103  12.299  0.00  0.00    +0.000 A 
ATOM     21  C   UNL     1       7.544   4.795  13.414  0.00  0.00    +0.000 A 
ENDBRANCH  15  16
ENDBRANCH   3  15
TORSDOF 5
ENDMDL
MODEL 7
REMARK VINA RESULT:      -6.9      2.860      5.361
REMARK  Name = 
REMARK  7 active torsions:
REMARK  status: ('A' for Active; 'I' for Inactive)
REMARK    1  A    between atoms: C_1  and  C_2
REMARK    2  A    between atoms: C_6  and  C_7
REMARK    3  A    between atoms: C_8  and  O_9
REMARK    4  A    between atoms: O_9  and  C_10
REMARK    5  A    between atoms: C_10  and  C_11
REMARK    6  A    between atoms: N_13  and  C_14
REMARK    7  A    between atoms: C_14  and  C_15
REMARK                            x       y       z     vdW  Elec       q    Type
REMARK                         _______ _______ _______ _____ _____    ______ ____
ROOT
ATOM      1  C   UNL     1       6.482   5.157  18.060  0.00  0.00    +0.000 C 
ATOM      2  O   UNL     1       7.530   4.689  18.498  0.00  0.00    +0.000 OA
ATOM      3  N   UNL     1       6.331   5.557  16.749  0.00  0.00    +0.000 N 
ATOM      4  H   UNL     1       5.423   5.856  16.416  0.00  0.00    +0.000 HD
ENDROOT
BRANCH   1   5
ATOM      5  C   UNL     1       5.219   5.279  18.917  0.00  0.00    +0.000 C 
BRANCH   5   6
ATOM      6  O   UNL     1       4.065   4.845  18.233  0.00  0.00    +0.000 OA
BRANCH   6  14
ATOM      7  C   UNL     1       2.169   6.548  20.116  0.00  0.00    +0.000 C 
ATOM      8  C   UNL     1       2.100   5.082  19.786  0.00  0.00    +0.000 A 
ATOM      9  C   UNL     1       1.053   4.376  20.417  0.00  0.00    +0.000 A 
ATOM     10  C   UNL     1       0.849   3.017  20.206  0.00  0.00    +0.000 A 
ATOM     11  C   UNL     1       1.689   2.328  19.348  0.00  0.00    +0.000 A 
ATOM     12  C   UNL     1       2.745   2.994  18.701  0.00  0.00    +0.000 A 
ATOM     13  C   UNL     1       3.621   2.196  17.769  0.00  0.00    +0.000 C 
ATOM     14  C   UNL     1       2.969   4.378  18.921  0.00  0.00    +0.000 A 
ENDBRANCH   6  14
ENDBRANCH   5   6
ENDBRANCH   1   5
BRANCH   3  15
ATOM     15  C   UNL     1       7.370   5.321  15.774  0.00  0.00    +0.000 C 
BRANCH  15  16
ATOM     16  C   UNL     1       6.816   4.698  14.522  0.00  0.00    +0.000 A 
ATOM     17  C   UNL     1       7.552   4.742  13.329  0.00  0.00    +0.000 A 
ATOM     18  C   UNL     1       7.045   4.172  12.161  0.00  0.00    +0.000 A 
ATOM     19  C   UNL     1       5.793   3.561  12.171  0.00  0.00    +0.000 A 
ATOM     20  C   UNL     1       5.045   3.522  13.346  0.00  0.00    +0.000 A 
ATOM     21  C   UNL     1       5.551   4.090  14.517  0.00  0.00    +0.000 A 
ENDBRANCH  15  16
ENDBRANCH   3  15
TORSDOF 5
ENDMDL
MODEL 8
REMARK VINA RESULT:      -6.8      2.866      5.513
REMARK  Name = 
REMARK  7 active torsions:
REMARK  status: ('A' for Active; 'I' for Inactive)
REMARK    1  A    between atoms: C_1  and  C_2
REMARK    2  A    between atoms: C_6  and  C_7
REMARK    3  A    between atoms: C_8  and  O_9
REMARK    4  A    between atoms: O_9  and  C_10
REMARK    5  A    between atoms: C_10  and  C_11
REMARK    6  A    between atoms: N_13  and  C_14
REMARK    7  A    between atoms: C_14  and  C_15
REMARK                            x       y       z     vdW  Elec       q    Type
REMARK                         _______ _______ _______ _____ _____    ______ ____
ROOT
ATOM      1  C   UNL     1       5.010   6.164  16.527  0.00  0.00    +0.000 C 
ATOM      2  O   UNL     1       5.139   7.080  15.719  0.00  0.00    +0.000 OA
ATOM      3  N   UNL     1       5.924   5.139  16.648  0.00  0.00    +0.000 N 
ATOM      4  H   UNL     1       5.818   4.454  17.386  0.00  0.00    +0.000 HD
ENDROOT
BRANCH   1   5
ATOM      5  C   UNL     1       3.851   6.110  17.525  0.00  0.00    +0.000 C 
BRANCH   5   6
ATOM      6  O   UNL     1       4.013   5.083  18.478  0.00  0.00    +0.000 OA
BRANCH   6  14
ATOM      7  C   UNL     1       1.969   6.450  20.476  0.00  0.00    +0.000 C 
ATOM      8  C   UNL     1       1.990   5.032  19.972  0.00  0.00    +0.000 A 
ATOM      9  C   UNL     1       0.964   4.205  20.475  0.00  0.00    +0.000 A 
ATOM     10  C   UNL     1       0.840   2.872  20.097  0.00  0.00    +0.000 A 
ATOM     11  C   UNL     1       1.743   2.334  19.196  0.00  0.00    +0.000 A 
ATOM     12  C   UNL     1       2.781   3.125  18.673  0.00  0.00    +0.000 A 
ATOM     13  C   UNL     1       3.728   2.490  17.687  0.00  0.00    +0.000 C 
ATOM     14  C   UNL     1       2.923   4.482  19.064  0.00  0.00    +0.000 A 
ENDBRANCH   6  14
ENDBRANCH   5   6
ENDBRANCH   1   5
BRANCH   3  15
ATOM     15  C   UNL     1       7.167   5.159  15.912  0.00  0.00    +0.000 C 
BRANCH  15  16
ATOM     16  C   UNL     1       6.967   4.720  14.487  0.00  0.00    +0.000 A 
ATOM     17  C   UNL     1       5.992   3.760  14.177  0.00  0.00    +0.000 A 
ATOM     18  C   UNL     1       5.801   3.343  12.860  0.00  0.00    +0.000 A 
ATOM     19  C   UNL     1       6.589   3.872  11.839  0.00  0.00    +0.000 A 
ATOM     20  C   UNL     1       7.571   4.816  12.136  0.00  0.00    +0.000 A 
ATOM     21  C   UNL     1       7.762   5.237  13.453  0.00  0.00    +0.000 A 
ENDBRANCH  15  16
ENDBRANCH   3  15
TORSDOF 5
ENDMDL
MODEL 9
REMARK VINA RESULT:      -6.8      2.786      5.385
REMARK  Name = 
REMARK  7 active torsions:
REMARK  status: ('A' for Active; 'I' for Inactive)
REMARK    1  A    between atoms: C_1  and  C_2
REMARK    2  A    between atoms: C_6  and  C_7
REMARK    3  A    between atoms: C_8  and  O_9
REMARK    4  A    between atoms: O_9  and  C_10
REMARK    5  A    between atoms: C_10  and  C_11
REMARK    6  A    between atoms: N_13  and  C_14
REMARK    7  A    between atoms: C_14  and  C_15
REMARK                            x       y       z     vdW  Elec       q    Type
REMARK                         _______ _______ _______ _____ _____    ______ ____
ROOT
ATOM      1  C   UNL     1       4.928   6.043  17.726  0.00  0.00    +0.000 C 
ATOM      2  O   UNL     1       5.597   5.641  18.676  0.00  0.00    +0.000 OA
ATOM      3  N   UNL     1       5.378   6.001  16.423  0.00  0.00    +0.000 N 
ATOM      4  H   UNL     1       4.757   6.264  15.668  0.00  0.00    +0.000 HD
ENDROOT
BRANCH   1   5
ATOM      5  C   UNL     1       3.501   6.571  17.895  0.00  0.00    +0.000 C 
BRANCH   5   6
ATOM      6  O   UNL     1       2.536   5.551  17.767  0.00  0.00    +0.000 OA
BRANCH   6  14
ATOM      7  C   UNL     1       1.622   6.429  20.671  0.00  0.00    +0.000 C 
ATOM      8  C   UNL     1       1.857   5.043  20.134  0.00  0.00    +0.000 A 
ATOM      9  C   UNL     1       1.653   4.000  21.064  0.00  0.00    +0.000 A 
ATOM     10  C   UNL     1       1.818   2.663  20.720  0.00  0.00    +0.000 A 
ATOM     11  C   UNL     1       2.187   2.335  19.427  0.00  0.00    +0.000 A 
ATOM     12  C   UNL     1       2.402   3.343  18.472  0.00  0.00    +0.000 A 
ATOM     13  C   UNL     1       2.793   2.927  17.076  0.00  0.00    +0.000 C 
ATOM     14  C   UNL     1       2.249   4.711  18.818  0.00  0.00    +0.000 A 
ENDBRANCH   6  14
ENDBRANCH   5   6
ENDBRANCH   1   5
BRANCH   3  15
ATOM     15  C   UNL     1       6.622   5.350  16.086  0.00  0.00    +0.000 C 
BRANCH  15  16
ATOM     16  C   UNL     1       6.607   4.837  14.672  0.00  0.00    +0.000 A 
ATOM     17  C   UNL     1       5.593   3.964  14.252  0.00  0.00    +0.000 A 
ATOM     18  C   UNL     1       5.572   3.479  12.944  0.00  0.00    +0.000 A 
ATOM     19  C   UNL     1       6.569   3.853  12.045  0.00  0.00    +0.000 A 
ATOM     20  C   UNL     1       7.590   4.709  12.454  0.00  0.00    +0.000 A 
ATOM     21  C   UNL     1       7.612   5.198  13.762  0.00  0.00    +0.000 A 
ENDBRANCH  15  16
ENDBRANCH   3  15
TORSDOF 5
ENDMDL
