MODEL 1
REMARK VINA RESULT:      -6.8      0.000      0.000
REMARK  Name = 
REMARK  5 active torsions:
REMARK  status: ('A' for Active; 'I' for Inactive)
REMARK    1  A    between atoms: N_6  and  C_7
REMARK    2  A    between atoms: C_7  and  O_8
REMARK    3  A    between atoms: O_8  and  C_9
REMARK    4  A    between atoms: C_9  and  C_10
REMARK    5  A    between atoms: C_10  and  O_11
REMARK                            x       y       z     vdW  Elec       q    Type
REMARK                         _______ _______ _______ _____ _____    ______ ____
ROOT
ATOM      1  O   UNL     1       1.504   6.575  20.782  0.00  0.00    +0.000 OA
ATOM      2  C   UNL     1       2.016   5.502  20.483  0.00  0.00    +0.000 A 
ATOM      3  N   UNL     1       2.078   4.474  21.372  0.00  0.00    +0.000 N 
ATOM      4  C   UNL     1       2.667   3.262  21.159  0.00  0.00    +0.000 A 
ATOM      5  O   UNL     1       2.679   2.437  22.071  0.00  0.00    +0.000 OA
ATOM      6  N   UNL     1       3.193   3.052  19.895  0.00  0.00    +0.000 N 
ATOM      7  C   UNL     1       3.092   4.022  18.898  0.00  0.00    +0.000 A 
ATOM      8  C   UNL     1       2.566   5.235  19.146  0.00  0.00    +0.000 A 
ATOM      9  C   UNL     1       2.475   6.329  18.129  0.00  0.00    +0.000 C 
ATOM     10  N   UNL     1       3.788   6.898  17.860  0.00  0.00    +0.000 N 
ATOM     11  C   UNL     1       4.902   6.183  17.422  0.00  0.00    +0.000 A 
ATOM     12  C   UNL     1       6.071   6.938  17.190  0.00  0.00    +0.000 A 
ATOM     13  C   UNL     1       7.238   6.368  16.678  0.00  0.00    +0.000 A 
ATOM     14  C   UNL     1       7.267   5.018  16.366  0.00  0.00    +0.000 A 
ATOM     15  C   UNL     1       6.122   4.251  16.557  0.00  0.00    +0.000 A 
ATOM     16  C   UNL     1       4.941   4.812  17.082  0.00  0.00    +0.000 A 
ATOM     17  S   UNL     1       3.588   3.646  17.265  0.00  0.00    +0.000 S 
ATOM     18  H   UNL     1       1.692   4.633  22.290  0.00  0.00    +0.000 HD
ATOM     19  H   UNL     1       4.013   7.703  18.438  0.00  0.00    +0.000 HD
ENDROOT
BRANCH   6  20
ATOM     20  C   UNL     1       3.867   1.776  19.674  0.00  0.00    +0.000 C 
BRANCH  20  21
ATOM     21  O   UNL     1       5.076   1.740  20.438  0.00  0.00    +0.000 OA
BRANCH  21  22
ATOM     22  C   UNL     1       5.439   0.395  20.765  0.00  0.00    +0.000 C 
BRANCH  22  23
ATOM     23  C   UNL     1       6.069   0.376  22.155  0.00  0.00    +0.000 C 
BRANCH  23  24
ATOM     24  O   UNL     1       6.852  -0.800  22.331  0.00  0.00    +0.000 OA
ATOM     25  H   UNL     1       6.249  -1.453  22.738  0.00  0.00    +0.000 HD
ENDBRANCH  23  24
ENDBRANCH  22  23
ENDBRANCH  21  22
ENDBRANCH  20  21
ENDBRANCH   6  20
TORSDOF 5
ENDMDL
MODEL 2
REMARK VINA RESULT:      -6.4      2.746      5.547
REMARK  Name = 
REMARK  5 active torsions:
REMARK  status: ('A' for Active; 'I' for Inactive)
REMARK    1  A    between atoms: N_6  and  C_7
REMARK    2  A    between atoms: C_7  and  O_8
REMARK    3  A    between atoms: O_8  and  C_9
REMARK    4  A    between atoms: C_9  and  C_10
REMARK    5  A    between atoms: C_10  and  O_11
REMARK                            x       y       z     vdW  Elec       q    Type
REMARK                         _______ _______ _______ _____ _____    ______ ____
ROOT
ATOM      1  O   UNL     1       3.953   2.415  20.424  0.00  0.00    +0.000 OA
ATOM      2  C   UNL     1       4.289   3.343  19.696  0.00  0.00    +0.000 A 
ATOM      3  N   UNL     1       5.578   3.489  19.283  0.00  0.00    +0.000 N 
ATOM      4  C   UNL     1       6.066   4.507  18.517  0.00  0.00    +0.000 A 
ATOM      5  O   UNL     1       7.266   4.530  18.250  0.00  0.00    +0.000 OA
ATOM      6  N   UNL     1       5.140   5.439  18.077  0.00  0.00    +0.000 N 
ATOM      7  C   UNL     1       3.785   5.313  18.382  0.00  0.00    +0.000 A 
ATOM      8  C   UNL     1       3.332   4.339  19.192  0.00  0.00    +0.000 A 
ATOM      9  C   UNL     1       1.898   4.183  19.591  0.00  0.00    +0.000 C 
ATOM     10  N   UNL     1       1.507   5.219  20.536  0.00  0.00    +0.000 N 
ATOM     11  C   UNL     1       1.602   6.592  20.311  0.00  0.00    +0.000 A 
ATOM     12  C   UNL     1       1.134   7.424  21.350  0.00  0.00    +0.000 A 
ATOM     13  C   UNL     1       1.098   8.815  21.234  0.00  0.00    +0.000 A 
ATOM     14  C   UNL     1       1.516   9.420  20.059  0.00  0.00    +0.000 A 
ATOM     15  C   UNL     1       1.957   8.627  19.005  0.00  0.00    +0.000 A 
ATOM     16  C   UNL     1       2.008   7.222  19.113  0.00  0.00    +0.000 A 
ATOM     17  S   UNL     1       2.623   6.391  17.645  0.00  0.00    +0.000 S 
ATOM     18  H   UNL     1       6.247   2.807  19.606  0.00  0.00    +0.000 HD
ATOM     19  H   UNL     1       1.617   4.950  21.510  0.00  0.00    +0.000 HD
ENDROOT
BRANCH   6  20
ATOM     20  C   UNL     1       5.661   6.557  17.297  0.00  0.00    +0.000 C 
BRANCH  20  21
ATOM     21  O   UNL     1       6.371   6.053  16.163  0.00  0.00    +0.000 OA
BRANCH  21  22
ATOM     22  C   UNL     1       5.469   5.554  15.170  0.00  0.00    +0.000 C 
BRANCH  22  23
ATOM     23  C   UNL     1       6.068   4.299  14.543  0.00  0.00    +0.000 C 
BRANCH  23  24
ATOM     24  O   UNL     1       6.256   3.290  15.530  0.00  0.00    +0.000 OA
ATOM     25  H   UNL     1       6.391   3.772  16.369  0.00  0.00    +0.000 HD
ENDBRANCH  23  24
ENDBRANCH  22  23
ENDBRANCH  21  22
ENDBRANCH  20  21
ENDBRANCH   6  20
TORSDOF 5
ENDMDL
MODEL 3
REMARK VINA RESULT:      -6.3      7.092     10.361
REMARK  Name = 
REMARK  5 active torsions:
REMARK  status: ('A' for Active; 'I' for Inactive)
REMARK    1  A    between atoms: N_6  and  C_7
REMARK    2  A    between atoms: C_7  and  O_8
REMARK    3  A    between atoms: O_8  and  C_9
REMARK    4  A    between atoms: C_9  and  C_10
REMARK    5  A    between atoms: C_10  and  O_11
REMARK                            x       y       z     vdW  Elec       q    Type
REMARK                         _______ _______ _______ _____ _____    ______ ____
ROOT
ATOM      1  O   UNL     1       1.647   8.210  19.922  0.00  0.00    +0.000 OA
ATOM      2  C   UNL     1       1.038   9.050  20.574  0.00  0.00    +0.000 A 
ATOM      3  N   UNL     1       1.011   9.009  21.934  0.00  0.00    +0.000 N 
ATOM      4  C   UNL     1       0.327   9.860  22.751  0.00  0.00    +0.000 A 
ATOM      5  O   UNL     1       0.365   9.680  23.967  0.00  0.00    +0.000 OA
ATOM      6  N   UNL     1      -0.351  10.894  22.126  0.00  0.00    +0.000 N 
ATOM      7  C   UNL     1      -0.302  11.060  20.742  0.00  0.00    +0.000 A 
ATOM      8  C   UNL     1       0.324  10.173  19.948  0.00  0.00    +0.000 A 
ATOM      9  C   UNL     1       0.369  10.274  18.455  0.00  0.00    +0.000 C 
ATOM     10  N   UNL     1      -0.927   9.955  17.875  0.00  0.00    +0.000 N 
ATOM     11  C   UNL     1      -2.126  10.599  18.177  0.00  0.00    +0.000 A 
ATOM     12  C   UNL     1      -3.264  10.153  17.471  0.00  0.00    +0.000 A 
ATOM     13  C   UNL     1      -4.516  10.755  17.615  0.00  0.00    +0.000 A 
ATOM     14  C   UNL     1      -4.665  11.841  18.463  0.00  0.00    +0.000 A 
ATOM     15  C   UNL     1      -3.556  12.323  19.152  0.00  0.00    +0.000 A 
ATOM     16  C   UNL     1      -2.290  11.718  19.023  0.00  0.00    +0.000 A 
ATOM     17  S   UNL     1      -1.002  12.485  20.011  0.00  0.00    +0.000 S 
ATOM     18  H   UNL     1       1.508   8.254  22.384  0.00  0.00    +0.000 HD
ATOM     19  H   UNL     1      -1.034   8.976  17.622  0.00  0.00    +0.000 HD
ENDROOT
BRANCH   6  20
ATOM     20  C   UNL     1      -1.125  11.781  22.989  0.00  0.00    +0.000 C 
BRANCH  20  21
ATOM     21  O   UNL     1      -2.461  11.285  23.102  0.00  0.00    +0.000 OA
BRANCH  21  22
ATOM     22  C   UNL     1      -3.412  12.354  23.088  0.00  0.00    +0.000 C 
BRANCH  22  23
ATOM     23  C   UNL     1      -4.018  12.498  24.481  0.00  0.00    +0.000 C 
BRANCH  23  24
ATOM     24  O   UNL     1      -5.355  12.009  24.496  0.00  0.00    +0.000 OA
ATOM     25  H   UNL     1      -5.860  12.654  25.029  0.00  0.00    +0.000 HD
ENDBRANCH  23  24
ENDBRANCH  22  23
ENDBRANCH  21  22
ENDBRANCH  20  21
ENDBRANCH   6  20
TORSDOF 5
ENDMDL
MODEL 4
REMARK VINA RESULT:      -6.3      6.913     10.202
REMARK  Name = 
REMARK  5 active torsions:
REMARK  status: ('A' for Active; 'I' for Inactive)
REMARK    1  A    between atoms: N_6  and  C_7
REMARK    2  A    between atoms: C_7  and  O_8
REMARK    3  A    between atoms: O_8  and  C_9
REMARK    4  A    between atoms: C_9  and  C_10
REMARK    5  A    between atoms: C_10  and  O_11
REMARK                            x       y       z     vdW  Elec       q    Type
REMARK                         _______ _______ _______ _____ _____    ______ ____
ROOT
ATOM      1  O   UNL     1       1.915   8.097  20.013  0.00  0.00    +0.000 OA
ATOM      2  C   UNL     1       1.229   8.922  20.607  0.00  0.00    +0.000 A 
ATOM      3  N   UNL     1       1.086   8.882  21.960  0.00  0.00    +0.000 N 
ATOM      4  C   UNL     1       0.312   9.716  22.711  0.00  0.00    +0.000 A 
ATOM      5  O   UNL     1       0.250   9.540  23.927  0.00  0.00    +0.000 OA
ATOM      6  N   UNL     1      -0.336  10.731  22.026  0.00  0.00    +0.000 N 
ATOM      7  C   UNL     1      -0.172  10.895  20.651  0.00  0.00    +0.000 A 
ATOM      8  C   UNL     1       0.543  10.024  19.916  0.00  0.00    +0.000 A 
ATOM      9  C   UNL     1       0.714  10.124  18.433  0.00  0.00    +0.000 C 
ATOM     10  N   UNL     1      -0.518   9.769  17.744  0.00  0.00    +0.000 N 
ATOM     11  C   UNL     1      -1.755  10.382  17.939  0.00  0.00    +0.000 A 
ATOM     12  C   UNL     1      -2.816   9.905  17.140  0.00  0.00    +0.000 A 
ATOM     13  C   UNL     1      -4.091  10.474  17.173  0.00  0.00    +0.000 A 
ATOM     14  C   UNL     1      -4.341  11.557  18.001  0.00  0.00    +0.000 A 
ATOM     15  C   UNL     1      -3.309  12.070  18.781  0.00  0.00    +0.000 A 
ATOM     16  C   UNL     1      -2.021  11.498  18.764  0.00  0.00    +0.000 A 
ATOM     17  S   UNL     1      -0.843  12.300  19.856  0.00  0.00    +0.000 S 
ATOM     18  H   UNL     1       1.562   8.141  22.453  0.00  0.00    +0.000 HD
ATOM     19  H   UNL     1      -0.578   8.788  17.487  0.00  0.00    +0.000 HD
ENDROOT
BRANCH   6  20
ATOM     20  C   UNL     1      -1.205  11.599  22.815  0.00  0.00    +0.000 C 
BRANCH  20  21
ATOM     21  O   UNL     1      -0.456  12.727  23.275  0.00  0.00    +0.000 OA
BRANCH  21  22
ATOM     22  C   UNL     1      -1.288  13.885  23.393  0.00  0.00    +0.000 C 
BRANCH  22  23
ATOM     23  C   UNL     1      -2.715  13.513  23.002  0.00  0.00    +0.000 C 
BRANCH  23  24
ATOM     24  O   UNL     1      -3.191  14.374  21.972  0.00  0.00    +0.000 OA
ATOM     25  H   UNL     1      -3.056  15.280  22.312  0.00  0.00    +0.000 HD
ENDBRANCH  23  24
ENDBRANCH  22  23
ENDBRANCH  21  22
ENDBRANCH  20  21
ENDBRANCH   6  20
TORSDOF 5
ENDMDL
MODEL 5
REMARK VINA RESULT:      -6.2      7.053     10.247
REMARK  Name = 
REMARK  5 active torsions:
REMARK  status: ('A' for Active; 'I' for Inactive)
REMARK    1  A    between atoms: N_6  and  C_7
REMARK    2  A    between atoms: C_7  and  O_8
REMARK    3  A    between atoms: O_8  and  C_9
REMARK    4  A    between atoms: C_9  and  C_10
REMARK    5  A    between atoms: C_10  and  O_11
REMARK                            x       y       z     vdW  Elec       q    Type
REMARK                         _______ _______ _______ _____ _____    ______ ____
ROOT
ATOM      1  O   UNL     1       1.852   8.299  19.883  0.00  0.00    +0.000 OA
ATOM      2  C   UNL     1       1.160   9.086  20.519  0.00  0.00    +0.000 A 
ATOM      3  N   UNL     1       1.062   9.010  21.875  0.00  0.00    +0.000 N 
ATOM      4  C   UNL     1       0.286   9.799  22.671  0.00  0.00    +0.000 A 
ATOM      5  O   UNL     1       0.268   9.591  23.883  0.00  0.00    +0.000 OA
ATOM      6  N   UNL     1      -0.418  10.808  22.031  0.00  0.00    +0.000 N 
ATOM      7  C   UNL     1      -0.304  11.010  20.656  0.00  0.00    +0.000 A 
ATOM      8  C   UNL     1       0.416  10.181  19.878  0.00  0.00    +0.000 A 
ATOM      9  C   UNL     1       0.536  10.322  18.394  0.00  0.00    +0.000 C 
ATOM     10  N   UNL     1      -0.706   9.942  17.735  0.00  0.00    +0.000 N 
ATOM     11  C   UNL     1      -1.956  10.508  17.984  0.00  0.00    +0.000 A 
ATOM     12  C   UNL     1      -3.026  10.015  17.207  0.00  0.00    +0.000 A 
ATOM     13  C   UNL     1      -4.316  10.540  17.294  0.00  0.00    +0.000 A 
ATOM     14  C   UNL     1      -4.575  11.594  18.156  0.00  0.00    +0.000 A 
ATOM     15  C   UNL     1      -3.536  12.122  18.916  0.00  0.00    +0.000 A 
ATOM     16  C   UNL     1      -2.231  11.595  18.844  0.00  0.00    +0.000 A 
ATOM     17  S   UNL     1      -1.046  12.410  19.919  0.00  0.00    +0.000 S 
ATOM     18  H   UNL     1       1.577   8.274  22.334  0.00  0.00    +0.000 HD
ATOM     19  H   UNL     1      -0.741   8.966  17.456  0.00  0.00    +0.000 HD
ENDROOT
BRANCH   6  20
ATOM     20  C   UNL     1      -1.288  11.626  22.869  0.00  0.00    +0.000 C 
BRANCH  20  21
ATOM     21  O   UNL     1      -0.553  12.751  23.359  0.00  0.00    +0.000 OA
BRANCH  21  22
ATOM     22  C   UNL     1      -1.367  13.929  23.382  0.00  0.00    +0.000 C 
BRANCH  22  23
ATOM     23  C   UNL     1      -0.467  15.154  23.260  0.00  0.00    +0.000 C 
BRANCH  23  24
ATOM     24  O   UNL     1       0.697  14.845  22.501  0.00  0.00    +0.000 OA
ATOM     25  H   UNL     1       0.500  15.144  21.592  0.00  0.00    +0.000 HD
ENDBRANCH  23  24
ENDBRANCH  22  23
ENDBRANCH  21  22
ENDBRANCH  20  21
ENDBRANCH   6  20
TORSDOF 5
ENDMDL
MODEL 6
REMARK VINA RESULT:      -6.2      1.533      1.662
REMARK  Name = 
REMARK  5 active torsions:
REMARK  status: ('A' for Active; 'I' for Inactive)
REMARK    1  A    between atoms: N_6  and  C_7
REMARK    2  A    between atoms: C_7  and  O_8
REMARK    3  A    between atoms: O_8  and  C_9
REMARK    4  A    between atoms: C_9  and  C_10
REMARK    5  A    between atoms: C_10  and  O_11
REMARK                            x       y       z     vdW  Elec       q    Type
REMARK                         _______ _______ _______ _____ _____    ______ ____
ROOT
ATOM      1  O   UNL     1       1.704   6.975  20.843  0.00  0.00    +0.000 OA
ATOM      2  C   UNL     1       1.788   5.854  20.353  0.00  0.00    +0.000 A 
ATOM      3  N   UNL     1       1.440   4.744  21.058  0.00  0.00    +0.000 N 
ATOM      4  C   UNL     1       1.541   3.453  20.627  0.00  0.00    +0.000 A 
ATOM      5  O   UNL     1       1.221   2.543  21.390  0.00  0.00    +0.000 OA
ATOM      6  N   UNL     1       1.985   3.276  19.327  0.00  0.00    +0.000 N 
ATOM      7  C   UNL     1       2.278   4.366  18.508  0.00  0.00    +0.000 A 
ATOM      8  C   UNL     1       2.235   5.628  18.970  0.00  0.00    +0.000 A 
ATOM      9  C   UNL     1       2.585   6.831  18.152  0.00  0.00    +0.000 C 
ATOM     10  N   UNL     1       4.022   6.908  17.931  0.00  0.00    +0.000 N 
ATOM     11  C   UNL     1       4.801   5.914  17.340  0.00  0.00    +0.000 A 
ATOM     12  C   UNL     1       6.173   6.209  17.191  0.00  0.00    +0.000 A 
ATOM     13  C   UNL     1       7.058   5.340  16.549  0.00  0.00    +0.000 A 
ATOM     14  C   UNL     1       6.591   4.148  16.018  0.00  0.00    +0.000 A 
ATOM     15  C   UNL     1       5.237   3.840  16.124  0.00  0.00    +0.000 A 
ATOM     16  C   UNL     1       4.336   4.704  16.777  0.00  0.00    +0.000 A 
ATOM     17  S   UNL     1       2.642   4.110  16.817  0.00  0.00    +0.000 S 
ATOM     18  H   UNL     1       1.116   4.879  22.004  0.00  0.00    +0.000 HD
ATOM     19  H   UNL     1       4.515   7.464  18.624  0.00  0.00    +0.000 HD
ENDROOT
BRANCH   6  20
ATOM     20  C   UNL     1       2.142   1.898  18.874  0.00  0.00    +0.000 C 
BRANCH  20  21
ATOM     21  O   UNL     1       3.481   1.699  18.414  0.00  0.00    +0.000 OA
BRANCH  21  22
ATOM     22  C   UNL     1       4.262   0.997  19.386  0.00  0.00    +0.000 C 
BRANCH  22  23
ATOM     23  C   UNL     1       4.892   2.008  20.339  0.00  0.00    +0.000 C 
BRANCH  23  24
ATOM     24  O   UNL     1       5.388   3.131  19.618  0.00  0.00    +0.000 OA
ATOM     25  H   UNL     1       4.639   3.438  19.070  0.00  0.00    +0.000 HD
ENDBRANCH  23  24
ENDBRANCH  22  23
ENDBRANCH  21  22
ENDBRANCH  20  21
ENDBRANCH   6  20
TORSDOF 5
ENDMDL
MODEL 7
REMARK VINA RESULT:      -6.2      2.945      5.272
REMARK  Name = 
REMARK  5 active torsions:
REMARK  status: ('A' for Active; 'I' for Inactive)
REMARK    1  A    between atoms: N_6  and  C_7
REMARK    2  A    between atoms: C_7  and  O_8
REMARK    3  A    between atoms: O_8  and  C_9
REMARK    4  A    between atoms: C_9  and  C_10
REMARK    5  A    between atoms: C_10  and  O_11
REMARK                            x       y       z     vdW  Elec       q    Type
REMARK                         _______ _______ _______ _____ _____    ______ ____
ROOT
ATOM      1  O   UNL     1       2.428   8.574  18.021  0.00  0.00    +0.000 OA
ATOM      2  C   UNL     1       3.223   7.675  17.772  0.00  0.00    +0.000 A 
ATOM      3  N   UNL     1       4.031   7.726  16.678  0.00  0.00    +0.000 N 
ATOM      4  C   UNL     1       4.912   6.763  16.282  0.00  0.00    +0.000 A 
ATOM      5  O   UNL     1       5.553   6.929  15.246  0.00  0.00    +0.000 OA
ATOM      6  N   UNL     1       5.027   5.662  17.116  0.00  0.00    +0.000 N 
ATOM      7  C   UNL     1       4.300   5.572  18.302  0.00  0.00    +0.000 A 
ATOM      8  C   UNL     1       3.389   6.502  18.643  0.00  0.00    +0.000 A 
ATOM      9  C   UNL     1       2.548   6.434  19.879  0.00  0.00    +0.000 C 
ATOM     10  N   UNL     1       1.526   5.404  19.754  0.00  0.00    +0.000 N 
ATOM     11  C   UNL     1       1.767   4.057  19.489  0.00  0.00    +0.000 A 
ATOM     12  C   UNL     1       0.631   3.221  19.444  0.00  0.00    +0.000 A 
ATOM     13  C   UNL     1       0.727   1.840  19.263  0.00  0.00    +0.000 A 
ATOM     14  C   UNL     1       1.972   1.246  19.138  0.00  0.00    +0.000 A 
ATOM     15  C   UNL     1       3.114   2.038  19.206  0.00  0.00    +0.000 A 
ATOM     16  C   UNL     1       3.030   3.435  19.379  0.00  0.00    +0.000 A 
ATOM     17  S   UNL     1       4.620   4.269  19.422  0.00  0.00    +0.000 S 
ATOM     18  H   UNL     1       3.943   8.531  16.075  0.00  0.00    +0.000 HD
ATOM     19  H   UNL     1       0.640   5.746  19.391  0.00  0.00    +0.000 HD
ENDROOT
BRANCH   6  20
ATOM     20  C   UNL     1       5.932   4.604  16.676  0.00  0.00    +0.000 C 
BRANCH  20  21
ATOM     21  O   UNL     1       7.283   5.058  16.788  0.00  0.00    +0.000 OA
BRANCH  21  22
ATOM     22  C   UNL     1       7.867   4.639  18.026  0.00  0.00    +0.000 C 
BRANCH  22  23
ATOM     23  C   UNL     1       7.977   5.843  18.956  0.00  0.00    +0.000 C 
BRANCH  23  24
ATOM     24  O   UNL     1       7.964   5.426  20.317  0.00  0.00    +0.000 OA
ATOM     25  H   UNL     1       8.850   5.649  20.663  0.00  0.00    +0.000 HD
ENDBRANCH  23  24
ENDBRANCH  22  23
ENDBRANCH  21  22
ENDBRANCH  20  21
ENDBRANCH   6  20
TORSDOF 5
ENDMDL
MODEL 8
REMARK VINA RESULT:      -6.1      2.741      5.547
REMARK  Name = 
REMARK  5 active torsions:
REMARK  status: ('A' for Active; 'I' for Inactive)
REMARK    1  A    between atoms: N_6  and  C_7
REMARK    2  A    between atoms: C_7  and  O_8
REMARK    3  A    between atoms: O_8  and  C_9
REMARK    4  A    between atoms: C_9  and  C_10
REMARK    5  A    between atoms: C_10  and  O_11
REMARK                            x       y       z     vdW  Elec       q    Type
REMARK                         _______ _______ _______ _____ _____    ______ ____
ROOT
ATOM      1  O   UNL     1       3.925   2.520  20.690  0.00  0.00    +0.000 OA
ATOM      2  C   UNL     1       4.223   3.342  19.831  0.00  0.00    +0.000 A 
ATOM      3  N   UNL     1       5.479   3.400  19.310  0.00  0.00    +0.000 N 
ATOM      4  C   UNL     1       5.928   4.302  18.391  0.00  0.00    +0.000 A 
ATOM      5  O   UNL     1       7.105   4.257  18.036  0.00  0.00    +0.000 OA
ATOM      6  N   UNL     1       4.990   5.200  17.907  0.00  0.00    +0.000 N 
ATOM      7  C   UNL     1       3.660   5.151  18.323  0.00  0.00    +0.000 A 
ATOM      8  C   UNL     1       3.250   4.297  19.279  0.00  0.00    +0.000 A 
ATOM      9  C   UNL     1       1.848   4.232  19.797  0.00  0.00    +0.000 C 
ATOM     10  N   UNL     1       1.550   5.387  20.632  0.00  0.00    +0.000 N 
ATOM     11  C   UNL     1       1.655   6.718  20.233  0.00  0.00    +0.000 A 
ATOM     12  C   UNL     1       1.284   7.684  21.192  0.00  0.00    +0.000 A 
ATOM     13  C   UNL     1       1.266   9.051  20.908  0.00  0.00    +0.000 A 
ATOM     14  C   UNL     1       1.606   9.496  19.640  0.00  0.00    +0.000 A 
ATOM     15  C   UNL     1       1.950   8.568  18.663  0.00  0.00    +0.000 A 
ATOM     16  C   UNL     1       1.981   7.186  18.940  0.00  0.00    +0.000 A 
ATOM     17  S   UNL     1       2.468   6.165  17.545  0.00  0.00    +0.000 S 
ATOM     18  H   UNL     1       6.158   2.743  19.666  0.00  0.00    +0.000 HD
ATOM     19  H   UNL     1       1.728   5.235  21.621  0.00  0.00    +0.000 HD
ENDROOT
BRANCH   6  20
ATOM     20  C   UNL     1       5.473   6.199  16.960  0.00  0.00    +0.000 C 
BRANCH  20  21
ATOM     21  O   UNL     1       6.002   7.317  17.678  0.00  0.00    +0.000 OA
BRANCH  21  22
ATOM     22  C   UNL     1       7.301   7.673  17.196  0.00  0.00    +0.000 C 
BRANCH  22  23
ATOM     23  C   UNL     1       8.218   7.935  18.387  0.00  0.00    +0.000 C 
BRANCH  23  24
ATOM     24  O   UNL     1       8.396   6.748  19.151  0.00  0.00    +0.000 OA
ATOM     25  H   UNL     1       7.863   6.066  18.695  0.00  0.00    +0.000 HD
ENDBRANCH  23  24
ENDBRANCH  22  23
ENDBRANCH  21  22
ENDBRANCH  20  21
ENDBRANCH   6  20
TORSDOF 5
ENDMDL
MODEL 9
REMARK VINA RESULT:      -6.1      3.971      6.442
REMARK  Name = 
REMARK  5 active torsions:
REMARK  status: ('A' for Active; 'I' for Inactive)
REMARK    1  A    between atoms: N_6  and  C_7
REMARK    2  A    between atoms: C_7  and  O_8
REMARK    3  A    between atoms: O_8  and  C_9
REMARK    4  A    between atoms: C_9  and  C_10
REMARK    5  A    between atoms: C_10  and  O_11
REMARK                            x       y       z     vdW  Elec       q    Type
REMARK                         _______ _______ _______ _____ _____    ______ ____
ROOT
ATOM      1  O   UNL     1       7.761   7.238  18.209  0.00  0.00    +0.000 OA
ATOM      2  C   UNL     1       7.360   6.372  17.439  0.00  0.00    +0.000 A 
ATOM      3  N   UNL     1       7.738   6.355  16.132  0.00  0.00    +0.000 N 
ATOM      4  C   UNL     1       7.315   5.471  15.184  0.00  0.00    +0.000 A 
ATOM      5  O   UNL     1       7.714   5.599  14.027  0.00  0.00    +0.000 OA
ATOM      6  N   UNL     1       6.467   4.466  15.621  0.00  0.00    +0.000 N 
ATOM      7  C   UNL     1       6.102   4.360  16.962  0.00  0.00    +0.000 A 
ATOM      8  C   UNL     1       6.477   5.278  17.871  0.00  0.00    +0.000 A 
ATOM      9  C   UNL     1       6.077   5.241  19.312  0.00  0.00    +0.000 C 
ATOM     10  N   UNL     1       4.671   5.587  19.468  0.00  0.00    +0.000 N 
ATOM     11  C   UNL     1       3.606   4.933  18.851  0.00  0.00    +0.000 A 
ATOM     12  C   UNL     1       2.317   5.410  19.168  0.00  0.00    +0.000 A 
ATOM     13  C   UNL     1       1.156   4.804  18.684  0.00  0.00    +0.000 A 
ATOM     14  C   UNL     1       1.249   3.684  17.874  0.00  0.00    +0.000 A 
ATOM     15  C   UNL     1       2.505   3.170  17.565  0.00  0.00    +0.000 A 
ATOM     16  C   UNL     1       3.685   3.778  18.040  0.00  0.00    +0.000 A 
ATOM     17  S   UNL     1       5.197   2.968  17.510  0.00  0.00    +0.000 S 
ATOM     18  H   UNL     1       8.357   7.089  15.820  0.00  0.00    +0.000 HD
ATOM     19  H   UNL     1       4.508   6.576  19.638  0.00  0.00    +0.000 HD
ENDROOT
BRANCH   6  20
ATOM     20  C   UNL     1       5.971   3.544  14.604  0.00  0.00    +0.000 C 
BRANCH  20  21
ATOM     21  O   UNL     1       4.975   4.200  13.815  0.00  0.00    +0.000 OA
BRANCH  21  22
ATOM     22  C   UNL     1       5.027   3.766  12.452  0.00  0.00    +0.000 C 
BRANCH  22  23
ATOM     23  C   UNL     1       6.269   2.902  12.254  0.00  0.00    +0.000 C 
BRANCH  23  24
ATOM     24  O   UNL     1       5.927   1.675  11.618  0.00  0.00    +0.000 OA
ATOM     25  H   UNL     1       5.923   1.873  10.661  0.00  0.00    +0.000 HD
ENDBRANCH  23  24
ENDBRANCH  22  23
ENDBRANCH  21  22
ENDBRANCH  20  21
ENDBRANCH   6  20
TORSDOF 5
ENDMDL
