MODEL 1
REMARK VINA RESULT:      -9.3      0.000      0.000
REMARK  Name = 
REMARK  5 active torsions:
REMARK  status: ('A' for Active; 'I' for Inactive)
REMARK    1  A    between atoms: C_1  and  C_2
REMARK    2  A    between atoms: C_10  and  N_11
REMARK    3  A    between atoms: N_14  and  C_15
REMARK    4  A    between atoms: C_20  and  C_21
REMARK    5  A    between atoms: C_24  and  C_25
REMARK                            x       y       z     vdW  Elec       q    Type
REMARK                         _______ _______ _______ _____ _____    ______ ____
ROOT
ATOM      1  N   UNL     1       1.917   6.218  20.267  0.00  0.00    +0.000 N 
ATOM      2  C   UNL     1       2.806   5.301  19.809  0.00  0.00    +0.000 A 
ATOM      3  N   UNL     1       3.718   5.505  18.854  0.00  0.00    +0.000 NA
ATOM      4  N   UNL     1       4.316   4.324  18.686  0.00  0.00    +0.000 N 
ATOM      5  C   UNL     1       3.853   3.357  19.521  0.00  0.00    +0.000 A 
ATOM      6  C   UNL     1       2.848   3.947  20.268  0.00  0.00    +0.000 A 
ATOM      7  H   UNL     1       1.206   5.888  20.921  0.00  0.00    +0.000 HD
ENDROOT
BRANCH   1  17
ATOM      8  C   UNL     1      -0.796  10.579  22.042  0.00  0.00    +0.000 C 
ATOM      9  C   UNL     1       0.609  10.889  21.539  0.00  0.00    +0.000 C 
ATOM     10  N   UNL     1       0.573  12.188  20.795  0.00  0.00    +0.000 NA
ATOM     11  S   UNL     1       0.902  11.932  19.139  0.00  0.00    +0.000 S 
ATOM     12  O   UNL     1      -0.328  12.060  18.397  0.00  0.00    +0.000 OA
ATOM     13  O   UNL     1       2.106  12.672  18.846  0.00  0.00    +0.000 OA
ATOM     14  C   UNL     1       1.294  10.244  19.306  0.00  0.00    +0.000 A 
ATOM     15  C   UNL     1       1.682   9.403  18.286  0.00  0.00    +0.000 A 
ATOM     16  C   UNL     1       1.911   8.064  18.613  0.00  0.00    +0.000 A 
ATOM     17  C   UNL     1       1.781   7.586  19.935  0.00  0.00    +0.000 A 
ATOM     18  C   UNL     1       1.384   8.488  20.940  0.00  0.00    +0.000 A 
ATOM     19  C   UNL     1       1.122   9.817  20.618  0.00  0.00    +0.000 A 
ATOM     20  H   UNL     1       1.262  12.854  21.147  0.00  0.00    +0.000 HD
ENDBRANCH   1  17
BRANCH   4  21
ATOM     21  C   UNL     1       5.363   4.201  17.687  0.00  0.00    +0.000 C 
ATOM     22  C   UNL     1       4.757   4.074  16.285  0.00  0.00    +0.000 C 
ATOM     23  O   UNL     1       5.783   3.988  15.293  0.00  0.00    +0.000 OA
ATOM     24  C   UNL     1       6.596   5.161  15.256  0.00  0.00    +0.000 C 
ATOM     25  C   UNL     1       7.337   5.307  16.575  0.00  0.00    +0.000 C 
ATOM     26  C   UNL     1       6.332   5.386  17.727  0.00  0.00    +0.000 C 
BRANCH  26  27
ATOM     27  C   UNL     1       7.067   5.444  19.057  0.00  0.00    +0.000 C 
ATOM     28  N   UNL     1       7.678   5.492  20.159  0.00  0.00    +0.000 NA
ENDBRANCH  26  27
ENDBRANCH   4  21
BRANCH   6  29
ATOM     29  C   UNL     1       2.008   3.327  21.271  0.00  0.00    +0.000 C 
ATOM     30  N   UNL     1       0.739   3.000  20.882  0.00  0.00    +0.000 N 
ATOM     31  O   UNL     1       2.393   3.105  22.415  0.00  0.00    +0.000 OA
ATOM     32  H   UNL     1       0.423   3.065  19.926  0.00  0.00    +0.000 HD
ATOM     33  H   UNL     1       0.149   2.525  21.552  0.00  0.00    +0.000 HD
ENDBRANCH   6  29
TORSDOF 4
ENDMDL
MODEL 2
REMARK VINA RESULT:      -8.1      0.986      1.014
REMARK  Name = 
REMARK  5 active torsions:
REMARK  status: ('A' for Active; 'I' for Inactive)
REMARK    1  A    between atoms: C_1  and  C_2
REMARK    2  A    between atoms: C_10  and  N_11
REMARK    3  A    between atoms: N_14  and  C_15
REMARK    4  A    between atoms: C_20  and  C_21
REMARK    5  A    between atoms: C_24  and  C_25
REMARK                            x       y       z     vdW  Elec       q    Type
REMARK                         _______ _______ _______ _____ _____    ______ ____
ROOT
ATOM      1  N   UNL     1       2.124   5.630  19.391  0.00  0.00    +0.000 N 
ATOM      2  C   UNL     1       3.050   4.793  18.860  0.00  0.00    +0.000 A 
ATOM      3  N   UNL     1       4.005   5.133  17.990  0.00  0.00    +0.000 NA
ATOM      4  N   UNL     1       4.630   3.992  17.696  0.00  0.00    +0.000 N 
ATOM      5  C   UNL     1       4.143   2.916  18.368  0.00  0.00    +0.000 A 
ATOM      6  C   UNL     1       3.092   3.390  19.135  0.00  0.00    +0.000 A 
ATOM      7  H   UNL     1       1.387   5.208  19.956  0.00  0.00    +0.000 HD
ENDROOT
BRANCH   1  17
ATOM      8  C   UNL     1      -0.358   9.758  21.906  0.00  0.00    +0.000 C 
ATOM      9  C   UNL     1       1.002  10.120  21.323  0.00  0.00    +0.000 C 
ATOM     10  N   UNL     1       0.923  11.500  20.747  0.00  0.00    +0.000 NA
ATOM     11  S   UNL     1       1.104  11.445  19.050  0.00  0.00    +0.000 S 
ATOM     12  O   UNL     1      -0.183  11.667  18.439  0.00  0.00    +0.000 OA
ATOM     13  O   UNL     1       2.290  12.208  18.744  0.00  0.00    +0.000 OA
ATOM     14  C   UNL     1       1.483   9.747  18.978  0.00  0.00    +0.000 A 
ATOM     15  C   UNL     1       1.769   9.033  17.834  0.00  0.00    +0.000 A 
ATOM     16  C   UNL     1       2.004   7.663  17.977  0.00  0.00    +0.000 A 
ATOM     17  C   UNL     1       1.981   7.029  19.238  0.00  0.00    +0.000 A 
ATOM     18  C   UNL     1       1.686   7.805  20.376  0.00  0.00    +0.000 A 
ATOM     19  C   UNL     1       1.418   9.165  20.239  0.00  0.00    +0.000 A 
ATOM     20  H   UNL     1       1.650  12.114  21.115  0.00  0.00    +0.000 HD
ENDBRANCH   1  17
BRANCH   4  21
ATOM     21  C   UNL     1       5.728   4.015  16.745  0.00  0.00    +0.000 C 
ATOM     22  C   UNL     1       5.200   3.901  15.311  0.00  0.00    +0.000 C 
ATOM     23  O   UNL     1       6.273   3.959  14.367  0.00  0.00    +0.000 OA
ATOM     24  C   UNL     1       6.971   5.203  14.422  0.00  0.00    +0.000 C 
ATOM     25  C   UNL     1       7.635   5.352  15.781  0.00  0.00    +0.000 C 
ATOM     26  C   UNL     1       6.577   5.282  16.885  0.00  0.00    +0.000 C 
BRANCH  26  27
ATOM     27  C   UNL     1       7.243   5.344  18.250  0.00  0.00    +0.000 C 
ATOM     28  N   UNL     1       7.797   5.395  19.381  0.00  0.00    +0.000 NA
ENDBRANCH  26  27
ENDBRANCH   4  21
BRANCH   6  29
ATOM     29  C   UNL     1       2.215   2.632  20.002  0.00  0.00    +0.000 C 
ATOM     30  N   UNL     1       1.486   1.639  19.408  0.00  0.00    +0.000 N 
ATOM     31  O   UNL     1       2.111   2.856  21.204  0.00  0.00    +0.000 OA
ATOM     32  H   UNL     1       1.623   1.353  18.450  0.00  0.00    +0.000 HD
ATOM     33  H   UNL     1       0.900   1.067  20.000  0.00  0.00    +0.000 HD
ENDBRANCH   6  29
TORSDOF 4
ENDMDL
MODEL 3
REMARK VINA RESULT:      -7.6      1.158      2.002
REMARK  Name = 
REMARK  5 active torsions:
REMARK  status: ('A' for Active; 'I' for Inactive)
REMARK    1  A    between atoms: C_1  and  C_2
REMARK    2  A    between atoms: C_10  and  N_11
REMARK    3  A    between atoms: N_14  and  C_15
REMARK    4  A    between atoms: C_20  and  C_21
REMARK    5  A    between atoms: C_24  and  C_25
REMARK                            x       y       z     vdW  Elec       q    Type
REMARK                         _______ _______ _______ _____ _____    ______ ____
ROOT
ATOM      1  N   UNL     1       1.649   6.141  20.873  0.00  0.00    +0.000 N 
ATOM      2  C   UNL     1       2.601   5.436  20.212  0.00  0.00    +0.000 A 
ATOM      3  N   UNL     1       3.431   5.922  19.284  0.00  0.00    +0.000 NA
ATOM      4  N   UNL     1       4.138   4.871  18.866  0.00  0.00    +0.000 N 
ATOM      5  C   UNL     1       3.826   3.715  19.509  0.00  0.00    +0.000 A 
ATOM      6  C   UNL     1       2.809   4.033  20.393  0.00  0.00    +0.000 A 
ATOM      7  H   UNL     1       1.015   5.613  21.474  0.00  0.00    +0.000 HD
ENDROOT
BRANCH   1  17
ATOM      8  C   UNL     1       2.627  10.390  17.629  0.00  0.00    +0.000 C 
ATOM      9  C   UNL     1       1.242  10.406  18.265  0.00  0.00    +0.000 C 
ATOM     10  N   UNL     1       0.906  11.815  18.641  0.00  0.00    +0.000 NA
ATOM     11  S   UNL     1       0.810  11.970  20.339  0.00  0.00    +0.000 S 
ATOM     12  O   UNL     1       1.984  12.664  20.808  0.00  0.00    +0.000 OA
ATOM     13  O   UNL     1      -0.543  12.375  20.633  0.00  0.00    +0.000 OA
ATOM     14  C   UNL     1       0.984  10.270  20.670  0.00  0.00    +0.000 A 
ATOM     15  C   UNL     1       0.976   9.688  21.920  0.00  0.00    +0.000 A 
ATOM     16  C   UNL     1       1.176   8.306  21.984  0.00  0.00    +0.000 A 
ATOM     17  C   UNL     1       1.352   7.523  20.822  0.00  0.00    +0.000 A 
ATOM     18  C   UNL     1       1.350   8.167  19.570  0.00  0.00    +0.000 A 
ATOM     19  C   UNL     1       1.184   9.548  19.499  0.00  0.00    +0.000 A 
ATOM     20  H   UNL     1       0.011  12.115  18.253  0.00  0.00    +0.000 HD
ENDBRANCH   1  17
BRANCH   4  21
ATOM     21  C   UNL     1       5.133   5.062  17.826  0.00  0.00    +0.000 C 
ATOM     22  C   UNL     1       4.465   5.471  16.509  0.00  0.00    +0.000 C 
ATOM     23  O   UNL     1       5.442   5.695  15.489  0.00  0.00    +0.000 OA
ATOM     24  C   UNL     1       6.329   6.764  15.819  0.00  0.00    +0.000 C 
ATOM     25  C   UNL     1       7.130   6.395  17.057  0.00  0.00    +0.000 C 
ATOM     26  C   UNL     1       6.180   6.107  18.222  0.00  0.00    +0.000 C 
BRANCH  26  27
ATOM     27  C   UNL     1       6.970   5.653  19.439  0.00  0.00    +0.000 C 
ATOM     28  N   UNL     1       7.626   5.278  20.448  0.00  0.00    +0.000 NA
ENDBRANCH  26  27
ENDBRANCH   4  21
BRANCH   6  29
ATOM     29  C   UNL     1       2.098   3.141  21.284  0.00  0.00    +0.000 C 
ATOM     30  N   UNL     1       0.796   2.874  20.962  0.00  0.00    +0.000 N 
ATOM     31  O   UNL     1       2.614   2.646  22.281  0.00  0.00    +0.000 OA
ATOM     32  H   UNL     1       0.371   3.171  20.096  0.00  0.00    +0.000 HD
ATOM     33  H   UNL     1       0.292   2.219  21.543  0.00  0.00    +0.000 HD
ENDBRANCH   6  29
TORSDOF 4
ENDMDL
MODEL 4
REMARK VINA RESULT:      -7.5      1.623      2.593
REMARK  Name = 
REMARK  5 active torsions:
REMARK  status: ('A' for Active; 'I' for Inactive)
REMARK    1  A    between atoms: C_1  and  C_2
REMARK    2  A    between atoms: C_10  and  N_11
REMARK    3  A    between atoms: N_14  and  C_15
REMARK    4  A    between atoms: C_20  and  C_21
REMARK    5  A    between atoms: C_24  and  C_25
REMARK                            x       y       z     vdW  Elec       q    Type
REMARK                         _______ _______ _______ _____ _____    ______ ____
ROOT
ATOM      1  N   UNL     1       1.273   6.478  20.932  0.00  0.00    +0.000 N 
ATOM      2  C   UNL     1       2.331   5.792  20.432  0.00  0.00    +0.000 A 
ATOM      3  N   UNL     1       3.384   6.325  19.806  0.00  0.00    +0.000 NA
ATOM      4  N   UNL     1       4.131   5.285  19.434  0.00  0.00    +0.000 N 
ATOM      5  C   UNL     1       3.624   4.085  19.821  0.00  0.00    +0.000 A 
ATOM      6  C   UNL     1       2.433   4.366  20.468  0.00  0.00    +0.000 A 
ATOM      7  H   UNL     1       0.489   5.928  21.285  0.00  0.00    +0.000 HD
ENDROOT
BRANCH   1  17
ATOM      8  C   UNL     1       2.256  10.891  17.918  0.00  0.00    +0.000 C 
ATOM      9  C   UNL     1       0.925  10.934  18.657  0.00  0.00    +0.000 C 
ATOM     10  N   UNL     1       0.698  12.329  19.151  0.00  0.00    +0.000 NA
ATOM     11  S   UNL     1       0.733  12.366  20.858  0.00  0.00    +0.000 S 
ATOM     12  O   UNL     1       1.975  12.963  21.283  0.00  0.00    +0.000 OA
ATOM     13  O   UNL     1      -0.570  12.819  21.281  0.00  0.00    +0.000 OA
ATOM     14  C   UNL     1       0.833  10.640  21.060  0.00  0.00    +0.000 A 
ATOM     15  C   UNL     1       0.882   9.971  22.264  0.00  0.00    +0.000 A 
ATOM     16  C   UNL     1       1.006   8.580  22.220  0.00  0.00    +0.000 A 
ATOM     17  C   UNL     1       1.053   7.874  20.998  0.00  0.00    +0.000 A 
ATOM     18  C   UNL     1       0.998   8.605  19.796  0.00  0.00    +0.000 A 
ATOM     19  C   UNL     1       0.907   9.994  19.831  0.00  0.00    +0.000 A 
ATOM     20  H   UNL     1      -0.204  12.702  18.853  0.00  0.00    +0.000 HD
ENDBRANCH   1  17
BRANCH   4  21
ATOM     21  C   UNL     1       5.361   5.528  18.700  0.00  0.00    +0.000 C 
ATOM     22  C   UNL     1       6.369   4.401  18.950  0.00  0.00    +0.000 C 
ATOM     23  O   UNL     1       7.569   4.616  18.202  0.00  0.00    +0.000 OA
ATOM     24  C   UNL     1       7.332   4.615  16.794  0.00  0.00    +0.000 C 
ATOM     25  C   UNL     1       6.430   5.783  16.431  0.00  0.00    +0.000 C 
ATOM     26  C   UNL     1       5.109   5.673  17.196  0.00  0.00    +0.000 C 
BRANCH  26  27
ATOM     27  C   UNL     1       4.235   6.882  16.904  0.00  0.00    +0.000 C 
ATOM     28  N   UNL     1       3.511   7.886  16.663  0.00  0.00    +0.000 NA
ENDBRANCH  26  27
ENDBRANCH   4  21
BRANCH   6  29
ATOM     29  C   UNL     1       1.488   3.426  21.032  0.00  0.00    +0.000 C 
ATOM     30  N   UNL     1       0.390   3.137  20.268  0.00  0.00    +0.000 N 
ATOM     31  O   UNL     1       1.640   2.910  22.135  0.00  0.00    +0.000 OA
ATOM     32  H   UNL     1       0.284   3.453  19.316  0.00  0.00    +0.000 HD
ATOM     33  H   UNL     1      -0.261   2.450  20.621  0.00  0.00    +0.000 HD
ENDBRANCH   6  29
TORSDOF 4
ENDMDL
MODEL 5
REMARK VINA RESULT:      -7.5      3.279      8.187
REMARK  Name = 
REMARK  5 active torsions:
REMARK  status: ('A' for Active; 'I' for Inactive)
REMARK    1  A    between atoms: C_1  and  C_2
REMARK    2  A    between atoms: C_10  and  N_11
REMARK    3  A    between atoms: N_14  and  C_15
REMARK    4  A    between atoms: C_20  and  C_21
REMARK    5  A    between atoms: C_24  and  C_25
REMARK                            x       y       z     vdW  Elec       q    Type
REMARK                         _______ _______ _______ _____ _____    ______ ____
ROOT
ATOM      1  N   UNL     1       2.007   7.927  20.209  0.00  0.00    +0.000 N 
ATOM      2  C   UNL     1       0.978   8.796  20.047  0.00  0.00    +0.000 A 
ATOM      3  N   UNL     1       0.427   9.147  18.882  0.00  0.00    +0.000 NA
ATOM      4  N   UNL     1      -0.493  10.062  19.194  0.00  0.00    +0.000 N 
ATOM      5  C   UNL     1      -0.590  10.302  20.528  0.00  0.00    +0.000 A 
ATOM      6  C   UNL     1       0.368   9.505  21.130  0.00  0.00    +0.000 A 
ATOM      7  H   UNL     1       2.397   7.840  21.148  0.00  0.00    +0.000 HD
ENDROOT
BRANCH   1  17
ATOM      8  C   UNL     1       4.286   3.005  19.868  0.00  0.00    +0.000 C 
ATOM      9  C   UNL     1       3.577   3.446  18.594  0.00  0.00    +0.000 C 
ATOM     10  N   UNL     1       4.389   3.001  17.417  0.00  0.00    +0.000 NA
ATOM     11  S   UNL     1       5.014   4.353  16.583  0.00  0.00    +0.000 S 
ATOM     12  O   UNL     1       6.423   4.463  16.868  0.00  0.00    +0.000 OA
ATOM     13  O   UNL     1       4.458   4.301  15.252  0.00  0.00    +0.000 OA
ATOM     14  C   UNL     1       4.150   5.540  17.519  0.00  0.00    +0.000 A 
ATOM     15  C   UNL     1       4.204   6.905  17.335  0.00  0.00    +0.000 A 
ATOM     16  C   UNL     1       3.470   7.699  18.221  0.00  0.00    +0.000 A 
ATOM     17  C   UNL     1       2.680   7.137  19.248  0.00  0.00    +0.000 A 
ATOM     18  C   UNL     1       2.659   5.737  19.390  0.00  0.00    +0.000 A 
ATOM     19  C   UNL     1       3.413   4.939  18.533  0.00  0.00    +0.000 A 
ATOM     20  H   UNL     1       3.839   2.455  16.752  0.00  0.00    +0.000 HD
ENDBRANCH   1  17
BRANCH   4  21
ATOM     21  C   UNL     1      -1.271  10.670  18.129  0.00  0.00    +0.000 C 
ATOM     22  C   UNL     1      -1.523   9.661  17.004  0.00  0.00    +0.000 C 
ATOM     23  O   UNL     1      -2.320  10.242  15.967  0.00  0.00    +0.000 OA
ATOM     24  C   UNL     1      -3.612  10.628  16.435  0.00  0.00    +0.000 C 
ATOM     25  C   UNL     1      -3.468  11.723  17.480  0.00  0.00    +0.000 C 
ATOM     26  C   UNL     1      -2.606  11.220  18.641  0.00  0.00    +0.000 C 
BRANCH  26  27
ATOM     27  C   UNL     1      -2.385  12.337  19.648  0.00  0.00    +0.000 C 
ATOM     28  N   UNL     1      -2.201  13.263  20.483  0.00  0.00    +0.000 NA
ENDBRANCH  26  27
ENDBRANCH   4  21
BRANCH   6  29
ATOM     29  C   UNL     1       0.698   9.423  22.537  0.00  0.00    +0.000 C 
ATOM     30  N   UNL     1      -0.358   9.353  23.403  0.00  0.00    +0.000 N 
ATOM     31  O   UNL     1       1.853   9.421  22.951  0.00  0.00    +0.000 OA
ATOM     32  H   UNL     1      -1.313   9.241  23.099  0.00  0.00    +0.000 HD
ATOM     33  H   UNL     1      -0.153   9.250  24.388  0.00  0.00    +0.000 HD
ENDBRANCH   6  29
TORSDOF 4
ENDMDL
MODEL 6
REMARK VINA RESULT:      -7.5      3.564      8.534
REMARK  Name = 
REMARK  5 active torsions:
REMARK  status: ('A' for Active; 'I' for Inactive)
REMARK    1  A    between atoms: C_1  and  C_2
REMARK    2  A    between atoms: C_10  and  N_11
REMARK    3  A    between atoms: N_14  and  C_15
REMARK    4  A    between atoms: C_20  and  C_21
REMARK    5  A    between atoms: C_24  and  C_25
REMARK                            x       y       z     vdW  Elec       q    Type
REMARK                         _______ _______ _______ _____ _____    ______ ____
ROOT
ATOM      1  N   UNL     1       0.836   8.652  20.814  0.00  0.00    +0.000 N 
ATOM      2  C   UNL     1      -0.087   9.549  20.385  0.00  0.00    +0.000 A 
ATOM      3  N   UNL     1      -0.572   9.640  19.144  0.00  0.00    +0.000 NA
ATOM      4  N   UNL     1      -1.391  10.692  19.166  0.00  0.00    +0.000 N 
ATOM      5  C   UNL     1      -1.489  11.279  20.388  0.00  0.00    +0.000 A 
ATOM      6  C   UNL     1      -0.638  10.572  21.220  0.00  0.00    +0.000 A 
ATOM      7  H   UNL     1       1.194   8.773  21.762  0.00  0.00    +0.000 HD
ENDROOT
BRANCH   1  17
ATOM      8  C   UNL     1       2.309   3.511  21.779  0.00  0.00    +0.000 C 
ATOM      9  C   UNL     1       1.771   3.744  20.373  0.00  0.00    +0.000 C 
ATOM     10  N   UNL     1       2.581   2.932  19.411  0.00  0.00    +0.000 NA
ATOM     11  S   UNL     1       3.473   3.955  18.375  0.00  0.00    +0.000 S 
ATOM     12  O   UNL     1       4.858   3.926  18.774  0.00  0.00    +0.000 OA
ATOM     13  O   UNL     1       3.009   3.679  17.036  0.00  0.00    +0.000 OA
ATOM     14  C   UNL     1       2.748   5.434  18.939  0.00  0.00    +0.000 A 
ATOM     15  C   UNL     1       3.034   6.700  18.472  0.00  0.00    +0.000 A 
ATOM     16  C   UNL     1       2.378   7.771  19.084  0.00  0.00    +0.000 A 
ATOM     17  C   UNL     1       1.438   7.576  20.120  0.00  0.00    +0.000 A 
ATOM     18  C   UNL     1       1.182   6.263  20.558  0.00  0.00    +0.000 A 
ATOM     19  C   UNL     1       1.855   5.192  19.976  0.00  0.00    +0.000 A 
ATOM     20  H   UNL     1       1.998   2.332  18.826  0.00  0.00    +0.000 HD
ENDBRANCH   1  17
BRANCH   4  21
ATOM     21  C   UNL     1      -2.075  11.078  17.944  0.00  0.00    +0.000 C 
ATOM     22  C   UNL     1      -1.696  10.138  16.795  0.00  0.00    +0.000 C 
ATOM     23  O   UNL     1      -2.394  10.491  15.597  0.00  0.00    +0.000 OA
ATOM     24  C   UNL     1      -3.809  10.370  15.744  0.00  0.00    +0.000 C 
ATOM     25  C   UNL     1      -4.298  11.359  16.788  0.00  0.00    +0.000 C 
ATOM     26  C   UNL     1      -3.596  11.093  18.122  0.00  0.00    +0.000 C 
BRANCH  26  27
ATOM     27  C   UNL     1      -4.015  12.132  19.149  0.00  0.00    +0.000 C 
ATOM     28  N   UNL     1      -4.362  12.994  20.001  0.00  0.00    +0.000 NA
ENDBRANCH  26  27
ENDBRANCH   4  21
BRANCH   6  29
ATOM     29  C   UNL     1      -0.349  10.825  22.615  0.00  0.00    +0.000 C 
ATOM     30  N   UNL     1      -0.968  11.909  23.175  0.00  0.00    +0.000 N 
ATOM     31  O   UNL     1       0.409  10.122  23.276  0.00  0.00    +0.000 OA
ATOM     32  H   UNL     1      -1.679  12.443  22.699  0.00  0.00    +0.000 HD
ATOM     33  H   UNL     1      -0.817  12.079  24.160  0.00  0.00    +0.000 HD
ENDBRANCH   6  29
TORSDOF 4
ENDMDL
MODEL 7
REMARK VINA RESULT:      -7.3      2.114      4.861
REMARK  Name = 
REMARK  5 active torsions:
REMARK  status: ('A' for Active; 'I' for Inactive)
REMARK    1  A    between atoms: C_1  and  C_2
REMARK    2  A    between atoms: C_10  and  N_11
REMARK    3  A    between atoms: N_14  and  C_15
REMARK    4  A    between atoms: C_20  and  C_21
REMARK    5  A    between atoms: C_24  and  C_25
REMARK                            x       y       z     vdW  Elec       q    Type
REMARK                         _______ _______ _______ _____ _____    ______ ____
ROOT
ATOM      1  N   UNL     1       3.169   8.287  17.840  0.00  0.00    +0.000 N 
ATOM      2  C   UNL     1       3.429   6.973  18.059  0.00  0.00    +0.000 A 
ATOM      3  N   UNL     1       2.859   6.208  18.994  0.00  0.00    +0.000 NA
ATOM      4  N   UNL     1       3.460   5.022  18.887  0.00  0.00    +0.000 N 
ATOM      5  C   UNL     1       4.383   4.968  17.891  0.00  0.00    +0.000 A 
ATOM      6  C   UNL     1       4.410   6.232  17.327  0.00  0.00    +0.000 A 
ATOM      7  H   UNL     1       3.761   8.770  17.164  0.00  0.00    +0.000 HD
ENDROOT
BRANCH   1  17
ATOM      8  C   UNL     1       2.485  13.582  18.851  0.00  0.00    +0.000 C 
ATOM      9  C   UNL     1       1.194  12.848  18.509  0.00  0.00    +0.000 C 
ATOM     10  N   UNL     1       0.098  13.379  19.380  0.00  0.00    +0.000 NA
ATOM     11  S   UNL     1      -0.442  12.170  20.458  0.00  0.00    +0.000 S 
ATOM     12  O   UNL     1       0.057  12.468  21.777  0.00  0.00    +0.000 OA
ATOM     13  O   UNL     1      -1.833  11.943  20.149  0.00  0.00    +0.000 OA
ATOM     14  C   UNL     1       0.514  10.891  19.764  0.00  0.00    +0.000 A 
ATOM     15  C   UNL     1       0.531   9.578  20.185  0.00  0.00    +0.000 A 
ATOM     16  C   UNL     1       1.401   8.706  19.527  0.00  0.00    +0.000 A 
ATOM     17  C   UNL     1       2.215   9.132  18.455  0.00  0.00    +0.000 A 
ATOM     18  C   UNL     1       2.159  10.482  18.062  0.00  0.00    +0.000 A 
ATOM     19  C   UNL     1       1.317  11.367  18.734  0.00  0.00    +0.000 A 
ATOM     20  H   UNL     1      -0.708  13.692  18.838  0.00  0.00    +0.000 HD
ENDBRANCH   1  17
BRANCH   4  21
ATOM     21  C   UNL     1       3.075   3.954  19.792  0.00  0.00    +0.000 C 
ATOM     22  C   UNL     1       2.774   4.512  21.187  0.00  0.00    +0.000 C 
ATOM     23  O   UNL     1       2.360   3.469  22.075  0.00  0.00    +0.000 OA
ATOM     24  C   UNL     1       1.152   2.843  21.642  0.00  0.00    +0.000 C 
ATOM     25  C   UNL     1       1.388   2.153  20.308  0.00  0.00    +0.000 C 
ATOM     26  C   UNL     1       1.862   3.175  19.273  0.00  0.00    +0.000 C 
BRANCH  26  27
ATOM     27  C   UNL     1       2.184   2.478  17.961  0.00  0.00    +0.000 C 
ATOM     28  N   UNL     1       2.450   1.901  16.872  0.00  0.00    +0.000 NA
ENDBRANCH  26  27
ENDBRANCH   4  21
BRANCH   6  29
ATOM     29  C   UNL     1       5.257   6.707  16.254  0.00  0.00    +0.000 C 
ATOM     30  N   UNL     1       6.604   6.692  16.494  0.00  0.00    +0.000 N 
ATOM     31  O   UNL     1       4.813   7.111  15.184  0.00  0.00    +0.000 OA
ATOM     32  H   UNL     1       7.012   6.267  17.313  0.00  0.00    +0.000 HD
ATOM     33  H   UNL     1       7.218   6.976  15.744  0.00  0.00    +0.000 HD
ENDBRANCH   6  29
TORSDOF 4
ENDMDL
MODEL 8
REMARK VINA RESULT:      -7.3      1.400      1.888
REMARK  Name = 
REMARK  5 active torsions:
REMARK  status: ('A' for Active; 'I' for Inactive)
REMARK    1  A    between atoms: C_1  and  C_2
REMARK    2  A    between atoms: C_10  and  N_11
REMARK    3  A    between atoms: N_14  and  C_15
REMARK    4  A    between atoms: C_20  and  C_21
REMARK    5  A    between atoms: C_24  and  C_25
REMARK                            x       y       z     vdW  Elec       q    Type
REMARK                         _______ _______ _______ _____ _____    ______ ____
ROOT
ATOM      1  N   UNL     1       1.560   6.664  20.634  0.00  0.00    +0.000 N 
ATOM      2  C   UNL     1       2.615   5.926  20.205  0.00  0.00    +0.000 A 
ATOM      3  N   UNL     1       3.649   6.381  19.491  0.00  0.00    +0.000 NA
ATOM      4  N   UNL     1       4.399   5.306  19.242  0.00  0.00    +0.000 N 
ATOM      5  C   UNL     1       3.913   4.164  19.795  0.00  0.00    +0.000 A 
ATOM      6  C   UNL     1       2.732   4.518  20.425  0.00  0.00    +0.000 A 
ATOM      7  H   UNL     1       0.789   6.159  21.073  0.00  0.00    +0.000 HD
ENDROOT
BRANCH   1  17
ATOM      8  C   UNL     1      -1.379  10.506  23.110  0.00  0.00    +0.000 C 
ATOM      9  C   UNL     1      -0.012  10.985  22.637  0.00  0.00    +0.000 C 
ATOM     10  N   UNL     1      -0.152  12.377  22.104  0.00  0.00    +0.000 NA
ATOM     11  S   UNL     1       0.146  12.401  20.423  0.00  0.00    +0.000 S 
ATOM     12  O   UNL     1      -1.109  12.557  19.731  0.00  0.00    +0.000 OA
ATOM     13  O   UNL     1       1.291  13.258  20.227  0.00  0.00    +0.000 OA
ATOM     14  C   UNL     1       0.651  10.738  20.320  0.00  0.00    +0.000 A 
ATOM     15  C   UNL     1       1.064  10.091  19.174  0.00  0.00    +0.000 A 
ATOM     16  C   UNL     1       1.388   8.737  19.286  0.00  0.00    +0.000 A 
ATOM     17  C   UNL     1       1.327   8.054  20.520  0.00  0.00    +0.000 A 
ATOM     18  C   UNL     1       0.900   8.762  21.660  0.00  0.00    +0.000 A 
ATOM     19  C   UNL     1       0.544  10.104  21.552  0.00  0.00    +0.000 A 
ATOM     20  H   UNL     1       0.502  13.026  22.543  0.00  0.00    +0.000 HD
ENDBRANCH   1  17
BRANCH   4  21
ATOM     21  C   UNL     1       5.610   5.460  18.456  0.00  0.00    +0.000 C 
ATOM     22  C   UNL     1       6.581   4.308  18.732  0.00  0.00    +0.000 C 
ATOM     23  O   UNL     1       7.762   4.434  17.934  0.00  0.00    +0.000 OA
ATOM     24  C   UNL     1       7.476   4.369  16.537  0.00  0.00    +0.000 C 
ATOM     25  C   UNL     1       6.606   5.551  16.142  0.00  0.00    +0.000 C 
ATOM     26  C   UNL     1       5.310   5.536  16.955  0.00  0.00    +0.000 C 
BRANCH  26  27
ATOM     27  C   UNL     1       4.475   6.763  16.628  0.00  0.00    +0.000 C 
ATOM     28  N   UNL     1       3.782   7.780  16.356  0.00  0.00    +0.000 NA
ENDBRANCH  26  27
ENDBRANCH   4  21
BRANCH   6  29
ATOM     29  C   UNL     1       1.809   3.653  21.129  0.00  0.00    +0.000 C 
ATOM     30  N   UNL     1       0.643   3.355  20.480  0.00  0.00    +0.000 N 
ATOM     31  O   UNL     1       2.038   3.207  22.249  0.00  0.00    +0.000 OA
ATOM     32  H   UNL     1       0.467   3.610  19.520  0.00  0.00    +0.000 HD
ATOM     33  H   UNL     1       0.002   2.717  20.932  0.00  0.00    +0.000 HD
ENDBRANCH   6  29
TORSDOF 4
ENDMDL
MODEL 9
REMARK VINA RESULT:      -7.2      3.236      8.628
REMARK  Name = 
REMARK  5 active torsions:
REMARK  status: ('A' for Active; 'I' for Inactive)
REMARK    1  A    between atoms: C_1  and  C_2
REMARK    2  A    between atoms: C_10  and  N_11
REMARK    3  A    between atoms: N_14  and  C_15
REMARK    4  A    between atoms: C_20  and  C_21
REMARK    5  A    between atoms: C_24  and  C_25
REMARK                            x       y       z     vdW  Elec       q    Type
REMARK                         _______ _______ _______ _____ _____    ______ ____
ROOT
ATOM      1  N   UNL     1       0.974   8.850  18.277  0.00  0.00    +0.000 N 
ATOM      2  C   UNL     1       0.831  10.143  18.662  0.00  0.00    +0.000 A 
ATOM      3  N   UNL     1       1.688  10.833  19.421  0.00  0.00    +0.000 NA
ATOM      4  N   UNL     1       1.115  12.024  19.596  0.00  0.00    +0.000 N 
ATOM      5  C   UNL     1      -0.074  12.157  18.952  0.00  0.00    +0.000 A 
ATOM      6  C   UNL     1      -0.311  10.940  18.336  0.00  0.00    +0.000 A 
ATOM      7  H   UNL     1       0.186   8.422  17.791  0.00  0.00    +0.000 HD
ENDROOT
BRANCH   1  17
ATOM      8  C   UNL     1       4.946   6.504  15.404  0.00  0.00    +0.000 C 
ATOM      9  C   UNL     1       5.356   6.893  16.819  0.00  0.00    +0.000 C 
ATOM     10  N   UNL     1       6.239   5.819  17.372  0.00  0.00    +0.000 NA
ATOM     11  S   UNL     1       5.467   5.027  18.673  0.00  0.00    +0.000 S 
ATOM     12  O   UNL     1       5.027   3.728  18.228  0.00  0.00    +0.000 OA
ATOM     13  O   UNL     1       6.297   5.249  19.833  0.00  0.00    +0.000 OA
ATOM     14  C   UNL     1       4.099   6.102  18.733  0.00  0.00    +0.000 A 
ATOM     15  C   UNL     1       3.049   6.020  19.623  0.00  0.00    +0.000 A 
ATOM     16  C   UNL     1       2.018   6.952  19.483  0.00  0.00    +0.000 A 
ATOM     17  C   UNL     1       2.051   7.959  18.493  0.00  0.00    +0.000 A 
ATOM     18  C   UNL     1       3.147   7.999  17.610  0.00  0.00    +0.000 A 
ATOM     19  C   UNL     1       4.164   7.054  17.722  0.00  0.00    +0.000 A 
ATOM     20  H   UNL     1       7.126   6.189  17.718  0.00  0.00    +0.000 HD
ENDBRANCH   1  17
BRANCH   4  21
ATOM     21  C   UNL     1       1.795  13.019  20.407  0.00  0.00    +0.000 C 
ATOM     22  C   UNL     1       2.736  13.866  19.544  0.00  0.00    +0.000 C 
ATOM     23  O   UNL     1       3.383  14.872  20.330  0.00  0.00    +0.000 OA
ATOM     24  C   UNL     1       2.450  15.791  20.899  0.00  0.00    +0.000 C 
ATOM     25  C   UNL     1       1.541  15.056  21.871  0.00  0.00    +0.000 C 
ATOM     26  C   UNL     1       0.806  13.930  21.142  0.00  0.00    +0.000 C 
BRANCH  26  27
ATOM     27  C   UNL     1      -0.039  13.136  22.125  0.00  0.00    +0.000 C 
ATOM     28  N   UNL     1      -0.740  12.478  22.940  0.00  0.00    +0.000 NA
ENDBRANCH  26  27
ENDBRANCH   4  21
BRANCH   6  29
ATOM     29  C   UNL     1      -1.467  10.551  17.557  0.00  0.00    +0.000 C 
ATOM     30  N   UNL     1      -1.904  11.455  16.628  0.00  0.00    +0.000 N 
ATOM     31  O   UNL     1      -2.042   9.478  17.710  0.00  0.00    +0.000 OA
ATOM     32  H   UNL     1      -1.396  12.295  16.396  0.00  0.00    +0.000 HD
ATOM     33  H   UNL     1      -2.682  11.187  16.041  0.00  0.00    +0.000 HD
ENDBRANCH   6  29
TORSDOF 4
ENDMDL
