MODEL 1
REMARK VINA RESULT:      -8.7      0.000      0.000
REMARK  Name = 
REMARK  6 active torsions:
REMARK  status: ('A' for Active; 'I' for Inactive)
REMARK    1  A    between atoms: C_2  and  C_3
REMARK    2  A    between atoms: C_2  and  O_17
REMARK    3  A    between atoms: C_3  and  N_4
REMARK    4  A    between atoms: C_5  and  C_7
REMARK    5  A    between atoms: O_17  and  C_18
REMARK    6  A    between atoms: C_18  and  C_19
REMARK                            x       y       z     vdW  Elec       q    Type
REMARK                         _______ _______ _______ _____ _____    ______ ____
ROOT
ATOM      1  N   UNL     1       6.450   5.868  18.937  0.00  0.00    +0.000 N 
ATOM      2  C   UNL     1       6.060   4.760  18.218  0.00  0.00    +0.000 C 
ATOM      3  O   UNL     1       6.830   4.208  17.439  0.00  0.00    +0.000 OA
ATOM      4  H   UNL     1       5.869   6.222  19.685  0.00  0.00    +0.000 HD
ENDROOT
BRANCH   2   5
ATOM      5  C   UNL     1       4.632   4.239  18.467  0.00  0.00    +0.000 C 
ATOM      6  C   UNL     1       3.693   5.331  19.034  0.00  0.00    +0.000 C 
ATOM      7  C   UNL     1       2.266   4.770  19.217  0.00  0.00    +0.000 C 
ATOM      8  C   UNL     1       1.721   4.291  17.860  0.00  0.00    +0.000 C 
ATOM      9  C   UNL     1       2.631   3.192  17.290  0.00  0.00    +0.000 C 
ATOM     10  C   UNL     1       2.690   2.008  18.268  0.00  0.00    +0.000 C 
ATOM     11  C   UNL     1       3.228   2.476  19.629  0.00  0.00    +0.000 C 
ATOM     12  C   UNL     1       2.306   3.576  20.186  0.00  0.00    +0.000 C 
ATOM     13  C   UNL     1       4.647   3.046  19.450  0.00  0.00    +0.000 C 
ATOM     14  C   UNL     1       4.044   3.758  17.112  0.00  0.00    +0.000 C 
ENDBRANCH   2   5
BRANCH   1  15
ATOM     15  C   UNL     1       7.827   6.330  18.853  0.00  0.00    +0.000 C 
BRANCH  15  17
ATOM     16  O   UNL     1       7.517   7.497  16.751  0.00  0.00    +0.000 OA
ATOM     17  C   UNL     1       7.971   7.502  17.890  0.00  0.00    +0.000 C 
BRANCH  17  18
ATOM     18  O   UNL     1       8.587   8.556  18.491  0.00  0.00    +0.000 OA
BRANCH  18  19
ATOM     19  C   UNL     1       8.154   9.876  18.107  0.00  0.00    +0.000 C 
BRANCH  19  20
ATOM     20  C   UNL     1       9.042  10.958  18.692  0.00  0.00    +0.000 A 
ATOM     21  C   UNL     1      10.027  10.630  19.644  0.00  0.00    +0.000 A 
ATOM     22  C   UNL     1      10.890  11.607  20.151  0.00  0.00    +0.000 A 
ATOM     23  C   UNL     1      10.783  12.915  19.703  0.00  0.00    +0.000 A 
ATOM     24  F   UNL     1      11.612  13.849  20.187  0.00  0.00    +0.000 F 
ATOM     25  C   UNL     1       9.836  13.269  18.753  0.00  0.00    +0.000 A 
ATOM     26  C   UNL     1       8.975  12.293  18.243  0.00  0.00    +0.000 A 
ATOM     27 CL   UNL     1       7.850  12.796  17.030  0.00  0.00    +0.000 Cl
ENDBRANCH  19  20
ENDBRANCH  18  19
ENDBRANCH  17  18
ENDBRANCH  15  17
ENDBRANCH   1  15
TORSDOF 6
ENDMDL
MODEL 2
REMARK VINA RESULT:      -8.7      4.853      6.685
REMARK  Name = 
REMARK  6 active torsions:
REMARK  status: ('A' for Active; 'I' for Inactive)
REMARK    1  A    between atoms: C_2  and  C_3
REMARK    2  A    between atoms: C_2  and  O_17
REMARK    3  A    between atoms: C_3  and  N_4
REMARK    4  A    between atoms: C_5  and  C_7
REMARK    5  A    between atoms: O_17  and  C_18
REMARK    6  A    between atoms: C_18  and  C_19
REMARK                            x       y       z     vdW  Elec       q    Type
REMARK                         _______ _______ _______ _____ _____    ______ ____
ROOT
ATOM      1  N   UNL     1       4.941   6.031  18.135  0.00  0.00    +0.000 N 
ATOM      2  C   UNL     1       3.596   6.141  18.405  0.00  0.00    +0.000 C 
ATOM      3  O   UNL     1       2.983   7.175  18.160  0.00  0.00    +0.000 OA
ATOM      4  H   UNL     1       5.403   5.134  18.195  0.00  0.00    +0.000 HD
ENDROOT
BRANCH   2   5
ATOM      5  C   UNL     1       2.904   4.899  18.997  0.00  0.00    +0.000 C 
ATOM      6  C   UNL     1       1.955   4.210  17.987  0.00  0.00    +0.000 C 
ATOM      7  C   UNL     1       1.328   2.946  18.614  0.00  0.00    +0.000 C 
ATOM      8  C   UNL     1       2.440   1.961  19.013  0.00  0.00    +0.000 C 
ATOM      9  C   UNL     1       3.382   2.621  20.032  0.00  0.00    +0.000 C 
ATOM     10  C   UNL     1       2.589   3.034  21.281  0.00  0.00    +0.000 C 
ATOM     11  C   UNL     1       1.471   4.015  20.893  0.00  0.00    +0.000 C 
ATOM     12  C   UNL     1       0.537   3.338  19.874  0.00  0.00    +0.000 C 
ATOM     13  C   UNL     1       2.090   5.273  20.258  0.00  0.00    +0.000 C 
ATOM     14  C   UNL     1       3.999   3.874  19.401  0.00  0.00    +0.000 C 
ENDBRANCH   2   5
BRANCH   1  15
ATOM     15  C   UNL     1       5.627   7.117  17.450  0.00  0.00    +0.000 C 
BRANCH  15  17
ATOM     16  O   UNL     1       7.874   6.996  18.350  0.00  0.00    +0.000 OA
ATOM     17  C   UNL     1       7.131   6.880  17.382  0.00  0.00    +0.000 C 
BRANCH  17  18
ATOM     18  O   UNL     1       7.503   6.452  16.146  0.00  0.00    +0.000 OA
BRANCH  18  19
ATOM     19  C   UNL     1       7.598   5.028  15.945  0.00  0.00    +0.000 C 
BRANCH  19  20
ATOM     20  C   UNL     1       6.928   4.590  14.656  0.00  0.00    +0.000 A 
ATOM     21  C   UNL     1       7.565   4.800  13.417  0.00  0.00    +0.000 A 
ATOM     22  C   UNL     1       6.986   4.352  12.227  0.00  0.00    +0.000 A 
ATOM     23  C   UNL     1       5.772   3.683  12.264  0.00  0.00    +0.000 A 
ATOM     24  F   UNL     1       5.219   3.252  11.122  0.00  0.00    +0.000 F 
ATOM     25  C   UNL     1       5.126   3.444  13.468  0.00  0.00    +0.000 A 
ATOM     26  C   UNL     1       5.706   3.888  14.660  0.00  0.00    +0.000 A 
ATOM     27 CL   UNL     1       4.867   3.516  16.126  0.00  0.00    +0.000 Cl
ENDBRANCH  19  20
ENDBRANCH  18  19
ENDBRANCH  17  18
ENDBRANCH  15  17
ENDBRANCH   1  15
TORSDOF 6
ENDMDL
MODEL 3
REMARK VINA RESULT:      -8.5      6.579      8.373
REMARK  Name = 
REMARK  6 active torsions:
REMARK  status: ('A' for Active; 'I' for Inactive)
REMARK    1  A    between atoms: C_2  and  C_3
REMARK    2  A    between atoms: C_2  and  O_17
REMARK    3  A    between atoms: C_3  and  N_4
REMARK    4  A    between atoms: C_5  and  C_7
REMARK    5  A    between atoms: O_17  and  C_18
REMARK    6  A    between atoms: C_18  and  C_19
REMARK                            x       y       z     vdW  Elec       q    Type
REMARK                         _______ _______ _______ _____ _____    ______ ____
ROOT
ATOM      1  N   UNL     1       1.582   7.207  20.821  0.00  0.00    +0.000 N 
ATOM      2  C   UNL     1       2.185   6.863  19.633  0.00  0.00    +0.000 C 
ATOM      3  O   UNL     1       2.533   7.720  18.827  0.00  0.00    +0.000 OA
ATOM      4  H   UNL     1       1.439   6.513  21.542  0.00  0.00    +0.000 HD
ENDROOT
BRANCH   2   5
ATOM      5  C   UNL     1       2.426   5.362  19.387  0.00  0.00    +0.000 C 
ATOM      6  C   UNL     1       3.910   4.961  19.567  0.00  0.00    +0.000 C 
ATOM      7  C   UNL     1       4.086   3.441  19.358  0.00  0.00    +0.000 C 
ATOM      8  C   UNL     1       3.229   2.676  20.381  0.00  0.00    +0.000 C 
ATOM      9  C   UNL     1       1.748   3.047  20.204  0.00  0.00    +0.000 C 
ATOM     10  C   UNL     1       1.290   2.690  18.782  0.00  0.00    +0.000 C 
ATOM     11  C   UNL     1       2.143   3.445  17.750  0.00  0.00    +0.000 C 
ATOM     12  C   UNL     1       3.622   3.063  17.941  0.00  0.00    +0.000 C 
ATOM     13  C   UNL     1       1.980   4.961  17.961  0.00  0.00    +0.000 C 
ATOM     14  C   UNL     1       1.584   4.556  20.414  0.00  0.00    +0.000 C 
ENDBRANCH   2   5
BRANCH   1  15
ATOM     15  C   UNL     1       1.449   8.612  21.178  0.00  0.00    +0.000 C 
BRANCH  15  17
ATOM     16  O   UNL     1      -0.829   8.162  21.877  0.00  0.00    +0.000 OA
ATOM     17  C   UNL     1       0.003   8.978  21.497  0.00  0.00    +0.000 C 
BRANCH  17  18
ATOM     18  O   UNL     1      -0.198  10.319  21.381  0.00  0.00    +0.000 OA
BRANCH  18  19
ATOM     19  C   UNL     1       0.195  10.937  20.140  0.00  0.00    +0.000 C 
BRANCH  19  20
ATOM     20  C   UNL     1      -0.919  10.903  19.110  0.00  0.00    +0.000 A 
ATOM     21  C   UNL     1      -0.856  10.008  18.024  0.00  0.00    +0.000 A 
ATOM     22  C   UNL     1      -1.900   9.926  17.099  0.00  0.00    +0.000 A 
ATOM     23  C   UNL     1      -3.020  10.730  17.257  0.00  0.00    +0.000 A 
ATOM     24  F   UNL     1      -4.021  10.648  16.370  0.00  0.00    +0.000 F 
ATOM     25  C   UNL     1      -3.123  11.608  18.324  0.00  0.00    +0.000 A 
ATOM     26  C   UNL     1      -2.081  11.689  19.253  0.00  0.00    +0.000 A 
ATOM     27 CL   UNL     1      -2.297  12.773  20.581  0.00  0.00    +0.000 Cl
ENDBRANCH  19  20
ENDBRANCH  18  19
ENDBRANCH  17  18
ENDBRANCH  15  17
ENDBRANCH   1  15
TORSDOF 6
ENDMDL
MODEL 4
REMARK VINA RESULT:      -8.4      4.845      7.039
REMARK  Name = 
REMARK  6 active torsions:
REMARK  status: ('A' for Active; 'I' for Inactive)
REMARK    1  A    between atoms: C_2  and  C_3
REMARK    2  A    between atoms: C_2  and  O_17
REMARK    3  A    between atoms: C_3  and  N_4
REMARK    4  A    between atoms: C_5  and  C_7
REMARK    5  A    between atoms: O_17  and  C_18
REMARK    6  A    between atoms: C_18  and  C_19
REMARK                            x       y       z     vdW  Elec       q    Type
REMARK                         _______ _______ _______ _____ _____    ______ ____
ROOT
ATOM      1  N   UNL     1       3.249   3.479  18.783  0.00  0.00    +0.000 N 
ATOM      2  C   UNL     1       4.611   3.644  18.891  0.00  0.00    +0.000 C 
ATOM      3  O   UNL     1       5.240   3.127  19.809  0.00  0.00    +0.000 OA
ATOM      4  H   UNL     1       2.763   3.775  17.947  0.00  0.00    +0.000 HD
ENDROOT
BRANCH   2   5
ATOM      5  C   UNL     1       5.298   4.476  17.793  0.00  0.00    +0.000 C 
ATOM      6  C   UNL     1       4.713   4.201  16.386  0.00  0.00    +0.000 C 
ATOM      7  C   UNL     1       5.403   5.095  15.333  0.00  0.00    +0.000 C 
ATOM      8  C   UNL     1       5.184   6.576  15.689  0.00  0.00    +0.000 C 
ATOM      9  C   UNL     1       5.777   6.873  17.076  0.00  0.00    +0.000 C 
ATOM     10  C   UNL     1       7.281   6.561  17.075  0.00  0.00    +0.000 C 
ATOM     11  C   UNL     1       7.512   5.085  16.715  0.00  0.00    +0.000 C 
ATOM     12  C   UNL     1       6.914   4.805  15.325  0.00  0.00    +0.000 C 
ATOM     13  C   UNL     1       6.818   4.189  17.757  0.00  0.00    +0.000 C 
ATOM     14  C   UNL     1       5.087   5.981  18.114  0.00  0.00    +0.000 C 
ENDBRANCH   2   5
BRANCH   1  15
ATOM     15  C   UNL     1       2.557   2.593  19.707  0.00  0.00    +0.000 C 
BRANCH  15  17
ATOM     16  O   UNL     1       1.202   2.932  21.688  0.00  0.00    +0.000 OA
ATOM     17  C   UNL     1       1.595   3.359  20.609  0.00  0.00    +0.000 C 
BRANCH  17  18
ATOM     18  O   UNL     1       1.312   4.585  20.092  0.00  0.00    +0.000 OA
BRANCH  18  19
ATOM     19  C   UNL     1       1.833   5.730  20.795  0.00  0.00    +0.000 C 
BRANCH  19  20
ATOM     20  C   UNL     1       1.855   6.971  19.923  0.00  0.00    +0.000 A 
ATOM     21  C   UNL     1       2.205   6.877  18.562  0.00  0.00    +0.000 A 
ATOM     22  C   UNL     1       2.176   8.003  17.734  0.00  0.00    +0.000 A 
ATOM     23  C   UNL     1       1.787   9.228  18.255  0.00  0.00    +0.000 A 
ATOM     24  F   UNL     1       1.757  10.304  17.458  0.00  0.00    +0.000 F 
ATOM     25  C   UNL     1       1.419   9.352  19.586  0.00  0.00    +0.000 A 
ATOM     26  C   UNL     1       1.444   8.227  20.415  0.00  0.00    +0.000 A 
ATOM     27 CL   UNL     1       0.930   8.447  22.051  0.00  0.00    +0.000 Cl
ENDBRANCH  19  20
ENDBRANCH  18  19
ENDBRANCH  17  18
ENDBRANCH  15  17
ENDBRANCH   1  15
TORSDOF 6
ENDMDL
MODEL 5
REMARK VINA RESULT:      -8.4      4.932      7.027
REMARK  Name = 
REMARK  6 active torsions:
REMARK  status: ('A' for Active; 'I' for Inactive)
REMARK    1  A    between atoms: C_2  and  C_3
REMARK    2  A    between atoms: C_2  and  O_17
REMARK    3  A    between atoms: C_3  and  N_4
REMARK    4  A    between atoms: C_5  and  C_7
REMARK    5  A    between atoms: O_17  and  C_18
REMARK    6  A    between atoms: C_18  and  C_19
REMARK                            x       y       z     vdW  Elec       q    Type
REMARK                         _______ _______ _______ _____ _____    ______ ____
ROOT
ATOM      1  N   UNL     1       3.039   3.740  18.804  0.00  0.00    +0.000 N 
ATOM      2  C   UNL     1       4.414   3.731  18.857  0.00  0.00    +0.000 C 
ATOM      3  O   UNL     1       5.011   3.083  19.711  0.00  0.00    +0.000 OA
ATOM      4  H   UNL     1       2.560   4.147  18.011  0.00  0.00    +0.000 HD
ENDROOT
BRANCH   2   5
ATOM      5  C   UNL     1       5.155   4.544  17.779  0.00  0.00    +0.000 C 
ATOM      6  C   UNL     1       4.979   6.071  17.962  0.00  0.00    +0.000 C 
ATOM      7  C   UNL     1       5.781   6.837  16.887  0.00  0.00    +0.000 C 
ATOM      8  C   UNL     1       7.273   6.483  17.006  0.00  0.00    +0.000 C 
ATOM      9  C   UNL     1       7.470   4.972  16.806  0.00  0.00    +0.000 C 
ATOM     10  C   UNL     1       6.952   4.560  15.420  0.00  0.00    +0.000 C 
ATOM     11  C   UNL     1       5.462   4.914  15.289  0.00  0.00    +0.000 C 
ATOM     12  C   UNL     1       5.283   6.429  15.490  0.00  0.00    +0.000 C 
ATOM     13  C   UNL     1       4.659   4.160  16.365  0.00  0.00    +0.000 C 
ATOM     14  C   UNL     1       6.671   4.221  17.877  0.00  0.00    +0.000 C 
ENDBRANCH   2   5
BRANCH   1  15
ATOM     15  C   UNL     1       2.280   2.886  19.705  0.00  0.00    +0.000 C 
BRANCH  15  17
ATOM     16  O   UNL     1       1.854   3.241  22.065  0.00  0.00    +0.000 OA
ATOM     17  C   UNL     1       1.767   3.658  20.916  0.00  0.00    +0.000 C 
BRANCH  17  18
ATOM     18  O   UNL     1       1.289   4.879  20.550  0.00  0.00    +0.000 OA
BRANCH  18  19
ATOM     19  C   UNL     1       1.973   6.034  21.074  0.00  0.00    +0.000 C 
BRANCH  19  20
ATOM     20  C   UNL     1       1.842   7.236  20.156  0.00  0.00    +0.000 A 
ATOM     21  C   UNL     1       2.242   7.148  18.809  0.00  0.00    +0.000 A 
ATOM     22  C   UNL     1       2.076   8.229  17.938  0.00  0.00    +0.000 A 
ATOM     23  C   UNL     1       1.500   9.402  18.403  0.00  0.00    +0.000 A 
ATOM     24  F   UNL     1       1.339  10.435  17.566  0.00  0.00    +0.000 F 
ATOM     25  C   UNL     1       1.078   9.516  19.719  0.00  0.00    +0.000 A 
ATOM     26  C   UNL     1       1.241   8.435  20.591  0.00  0.00    +0.000 A 
ATOM     27 CL   UNL     1       0.652   8.633  22.204  0.00  0.00    +0.000 Cl
ENDBRANCH  19  20
ENDBRANCH  18  19
ENDBRANCH  17  18
ENDBRANCH  15  17
ENDBRANCH   1  15
TORSDOF 6
ENDMDL
MODEL 6
REMARK VINA RESULT:      -8.4      6.124      8.084
REMARK  Name = 
REMARK  6 active torsions:
REMARK  status: ('A' for Active; 'I' for Inactive)
REMARK    1  A    between atoms: C_2  and  C_3
REMARK    2  A    between atoms: C_2  and  O_17
REMARK    3  A    between atoms: C_3  and  N_4
REMARK    4  A    between atoms: C_5  and  C_7
REMARK    5  A    between atoms: O_17  and  C_18
REMARK    6  A    between atoms: C_18  and  C_19
REMARK                            x       y       z     vdW  Elec       q    Type
REMARK                         _______ _______ _______ _____ _____    ______ ____
ROOT
ATOM      1  N   UNL     1       2.312   7.304  18.112  0.00  0.00    +0.000 N 
ATOM      2  C   UNL     1       3.235   6.293  18.262  0.00  0.00    +0.000 C 
ATOM      3  O   UNL     1       4.393   6.432  17.879  0.00  0.00    +0.000 OA
ATOM      4  H   UNL     1       1.410   7.243  18.564  0.00  0.00    +0.000 HD
ENDROOT
BRANCH   2   5
ATOM      5  C   UNL     1       2.750   5.008  18.956  0.00  0.00    +0.000 C 
ATOM      6  C   UNL     1       1.886   5.299  20.207  0.00  0.00    +0.000 C 
ATOM      7  C   UNL     1       1.386   3.979  20.834  0.00  0.00    +0.000 C 
ATOM      8  C   UNL     1       0.541   3.206  19.806  0.00  0.00    +0.000 C 
ATOM      9  C   UNL     1       1.389   2.891  18.564  0.00  0.00    +0.000 C 
ATOM     10  C   UNL     1       2.607   2.046  18.967  0.00  0.00    +0.000 C 
ATOM     11  C   UNL     1       3.456   2.807  19.999  0.00  0.00    +0.000 C 
ATOM     12  C   UNL     1       2.593   3.114  21.235  0.00  0.00    +0.000 C 
ATOM     13  C   UNL     1       3.949   4.128  19.382  0.00  0.00    +0.000 C 
ATOM     14  C   UNL     1       1.881   4.206  17.949  0.00  0.00    +0.000 C 
ENDBRANCH   2   5
BRANCH   1  15
ATOM     15  C   UNL     1       2.738   8.594  17.589  0.00  0.00    +0.000 C 
BRANCH  15  17
ATOM     16  O   UNL     1       2.236  10.917  18.068  0.00  0.00    +0.000 OA
ATOM     17  C   UNL     1       1.918   9.738  18.176  0.00  0.00    +0.000 C 
BRANCH  17  18
ATOM     18  O   UNL     1       0.772   9.276  18.746  0.00  0.00    +0.000 OA
BRANCH  18  19
ATOM     19  C   UNL     1      -0.109  10.253  19.333  0.00  0.00    +0.000 C 
BRANCH  19  20
ATOM     20  C   UNL     1      -1.325  10.517  18.464  0.00  0.00    +0.000 A 
ATOM     21  C   UNL     1      -1.529   9.774  17.285  0.00  0.00    +0.000 A 
ATOM     22  C   UNL     1      -2.672   9.967  16.503  0.00  0.00    +0.000 A 
ATOM     23  C   UNL     1      -3.624  10.895  16.898  0.00  0.00    +0.000 A 
ATOM     24  F   UNL     1      -4.720  11.077  16.150  0.00  0.00    +0.000 F 
ATOM     25  C   UNL     1      -3.463  11.631  18.063  0.00  0.00    +0.000 A 
ATOM     26  C   UNL     1      -2.322  11.437  18.848  0.00  0.00    +0.000 A 
ATOM     27 CL   UNL     1      -2.209  12.355  20.307  0.00  0.00    +0.000 Cl
ENDBRANCH  19  20
ENDBRANCH  18  19
ENDBRANCH  17  18
ENDBRANCH  15  17
ENDBRANCH   1  15
TORSDOF 6
ENDMDL
MODEL 7
REMARK VINA RESULT:      -8.3      6.108      8.206
REMARK  Name = 
REMARK  6 active torsions:
REMARK  status: ('A' for Active; 'I' for Inactive)
REMARK    1  A    between atoms: C_2  and  C_3
REMARK    2  A    between atoms: C_2  and  O_17
REMARK    3  A    between atoms: C_3  and  N_4
REMARK    4  A    between atoms: C_5  and  C_7
REMARK    5  A    between atoms: O_17  and  C_18
REMARK    6  A    between atoms: C_18  and  C_19
REMARK                            x       y       z     vdW  Elec       q    Type
REMARK                         _______ _______ _______ _____ _____    ______ ____
ROOT
ATOM      1  N   UNL     1       2.479   7.296  18.283  0.00  0.00    +0.000 N 
ATOM      2  C   UNL     1       3.126   6.121  17.976  0.00  0.00    +0.000 C 
ATOM      3  O   UNL     1       4.047   6.098  17.165  0.00  0.00    +0.000 OA
ATOM      4  H   UNL     1       1.831   7.335  19.058  0.00  0.00    +0.000 HD
ENDROOT
BRANCH   2   5
ATOM      5  C   UNL     1       2.658   4.856  18.719  0.00  0.00    +0.000 C 
ATOM      6  C   UNL     1       3.829   3.905  19.068  0.00  0.00    +0.000 C 
ATOM      7  C   UNL     1       3.310   2.681  19.854  0.00  0.00    +0.000 C 
ATOM      8  C   UNL     1       2.635   3.150  21.155  0.00  0.00    +0.000 C 
ATOM      9  C   UNL     1       1.457   4.080  20.827  0.00  0.00    +0.000 C 
ATOM     10  C   UNL     1       0.433   3.335  19.957  0.00  0.00    +0.000 C 
ATOM     11  C   UNL     1       1.099   2.857  18.656  0.00  0.00    +0.000 C 
ATOM     12  C   UNL     1       2.275   1.927  19.002  0.00  0.00    +0.000 C 
ATOM     13  C   UNL     1       1.626   4.073  17.873  0.00  0.00    +0.000 C 
ATOM     14  C   UNL     1       1.981   5.291  20.048  0.00  0.00    +0.000 C 
ENDBRANCH   2   5
BRANCH   1  15
ATOM     15  C   UNL     1       2.960   8.549  17.721  0.00  0.00    +0.000 C 
BRANCH  15  17
ATOM     16  O   UNL     1       2.229  10.861  17.700  0.00  0.00    +0.000 OA
ATOM     17  C   UNL     1       1.980   9.691  17.968  0.00  0.00    +0.000 C 
BRANCH  17  18
ATOM     18  O   UNL     1       0.792   9.222  18.438  0.00  0.00    +0.000 OA
BRANCH  18  19
ATOM     19  C   UNL     1      -0.048  10.156  19.145  0.00  0.00    +0.000 C 
BRANCH  19  20
ATOM     20  C   UNL     1      -1.317  10.474  18.375  0.00  0.00    +0.000 A 
ATOM     21  C   UNL     1      -1.633   9.760  17.202  0.00  0.00    +0.000 A 
ATOM     22  C   UNL     1      -2.825  10.004  16.513  0.00  0.00    +0.000 A 
ATOM     23  C   UNL     1      -3.713  10.954  16.995  0.00  0.00    +0.000 A 
ATOM     24  F   UNL     1      -4.856  11.185  16.335  0.00  0.00    +0.000 F 
ATOM     25  C   UNL     1      -3.441  11.662  18.156  0.00  0.00    +0.000 A 
ATOM     26  C   UNL     1      -2.251  11.417  18.848  0.00  0.00    +0.000 A 
ATOM     27 CL   UNL     1      -1.999  12.304  20.311  0.00  0.00    +0.000 Cl
ENDBRANCH  19  20
ENDBRANCH  18  19
ENDBRANCH  17  18
ENDBRANCH  15  17
ENDBRANCH   1  15
TORSDOF 6
ENDMDL
MODEL 8
REMARK VINA RESULT:      -8.3      6.441      8.100
REMARK  Name = 
REMARK  6 active torsions:
REMARK  status: ('A' for Active; 'I' for Inactive)
REMARK    1  A    between atoms: C_2  and  C_3
REMARK    2  A    between atoms: C_2  and  O_17
REMARK    3  A    between atoms: C_3  and  N_4
REMARK    4  A    between atoms: C_5  and  C_7
REMARK    5  A    between atoms: O_17  and  C_18
REMARK    6  A    between atoms: C_18  and  C_19
REMARK                            x       y       z     vdW  Elec       q    Type
REMARK                         _______ _______ _______ _____ _____    ______ ____
ROOT
ATOM      1  N   UNL     1       1.627   7.153  20.891  0.00  0.00    +0.000 N 
ATOM      2  C   UNL     1       2.188   6.669  19.731  0.00  0.00    +0.000 C 
ATOM      3  O   UNL     1       2.680   7.428  18.901  0.00  0.00    +0.000 OA
ATOM      4  H   UNL     1       1.364   6.520  21.635  0.00  0.00    +0.000 HD
ENDROOT
BRANCH   2   5
ATOM      5  C   UNL     1       2.192   5.140  19.548  0.00  0.00    +0.000 C 
ATOM      6  C   UNL     1       1.876   4.716  18.093  0.00  0.00    +0.000 C 
ATOM      7  C   UNL     1       1.941   3.179  17.955  0.00  0.00    +0.000 C 
ATOM      8  C   UNL     1       3.350   2.686  18.330  0.00  0.00    +0.000 C 
ATOM      9  C   UNL     1       3.673   3.082  19.779  0.00  0.00    +0.000 C 
ATOM     10  C   UNL     1       2.641   2.458  20.730  0.00  0.00    +0.000 C 
ATOM     11  C   UNL     1       1.228   2.940  20.361  0.00  0.00    +0.000 C 
ATOM     12  C   UNL     1       0.920   2.536  18.909  0.00  0.00    +0.000 C 
ATOM     13  C   UNL     1       1.161   4.473  20.488  0.00  0.00    +0.000 C 
ATOM     14  C   UNL     1       3.606   4.608  19.906  0.00  0.00    +0.000 C 
ENDBRANCH   2   5
BRANCH   1  15
ATOM     15  C   UNL     1       1.712   8.574  21.191  0.00  0.00    +0.000 C 
BRANCH  15  17
ATOM     16  O   UNL     1      -0.607   8.427  21.883  0.00  0.00    +0.000 OA
ATOM     17  C   UNL     1       0.380   9.127  21.686  0.00  0.00    +0.000 C 
BRANCH  17  18
ATOM     18  O   UNL     1       0.471  10.459  21.949  0.00  0.00    +0.000 OA
BRANCH  18  19
ATOM     19  C   UNL     1       0.593  11.344  20.818  0.00  0.00    +0.000 C 
BRANCH  19  20
ATOM     20  C   UNL     1      -0.695  11.427  20.020  0.00  0.00    +0.000 A 
ATOM     21  C   UNL     1      -1.760  12.230  20.472  0.00  0.00    +0.000 A 
ATOM     22  C   UNL     1      -2.932  12.360  19.720  0.00  0.00    +0.000 A 
ATOM     23  C   UNL     1      -3.044  11.699  18.506  0.00  0.00    +0.000 A 
ATOM     24  F   UNL     1      -4.166  11.827  17.786  0.00  0.00    +0.000 F 
ATOM     25  C   UNL     1      -2.007  10.915  18.023  0.00  0.00    +0.000 A 
ATOM     26  C   UNL     1      -0.834  10.786  18.772  0.00  0.00    +0.000 A 
ATOM     27 CL   UNL     1       0.433   9.830  18.087  0.00  0.00    +0.000 Cl
ENDBRANCH  19  20
ENDBRANCH  18  19
ENDBRANCH  17  18
ENDBRANCH  15  17
ENDBRANCH   1  15
TORSDOF 6
ENDMDL
MODEL 9
REMARK VINA RESULT:      -8.3      5.001      6.677
REMARK  Name = 
REMARK  6 active torsions:
REMARK  status: ('A' for Active; 'I' for Inactive)
REMARK    1  A    between atoms: C_2  and  C_3
REMARK    2  A    between atoms: C_2  and  O_17
REMARK    3  A    between atoms: C_3  and  N_4
REMARK    4  A    between atoms: C_5  and  C_7
REMARK    5  A    between atoms: O_17  and  C_18
REMARK    6  A    between atoms: C_18  and  C_19
REMARK                            x       y       z     vdW  Elec       q    Type
REMARK                         _______ _______ _______ _____ _____    ______ ____
ROOT
ATOM      1  N   UNL     1       5.791   5.325  18.836  0.00  0.00    +0.000 N 
ATOM      2  C   UNL     1       4.485   5.516  18.444  0.00  0.00    +0.000 C 
ATOM      3  O   UNL     1       4.188   6.394  17.640  0.00  0.00    +0.000 OA
ATOM      4  H   UNL     1       6.049   4.509  19.374  0.00  0.00    +0.000 HD
ENDROOT
BRANCH   2   5
ATOM      5  C   UNL     1       3.435   4.560  19.039  0.00  0.00    +0.000 C 
ATOM      6  C   UNL     1       2.241   4.320  18.083  0.00  0.00    +0.000 C 
ATOM      7  C   UNL     1       1.246   3.318  18.707  0.00  0.00    +0.000 C 
ATOM      8  C   UNL     1       1.957   1.980  18.971  0.00  0.00    +0.000 C 
ATOM      9  C   UNL     1       3.135   2.194  19.934  0.00  0.00    +0.000 C 
ATOM     10  C   UNL     1       2.621   2.773  21.262  0.00  0.00    +0.000 C 
ATOM     11  C   UNL     1       1.904   4.109  21.009  0.00  0.00    +0.000 C 
ATOM     12  C   UNL     1       0.728   3.876  20.044  0.00  0.00    +0.000 C 
ATOM     13  C   UNL     1       2.889   5.109  20.378  0.00  0.00    +0.000 C 
ATOM     14  C   UNL     1       4.117   3.190  19.307  0.00  0.00    +0.000 C 
ENDBRANCH   2   5
BRANCH   1  15
ATOM     15  C   UNL     1       6.850   6.102  18.210  0.00  0.00    +0.000 C 
BRANCH  15  17
ATOM     16  O   UNL     1       8.044   4.154  17.400  0.00  0.00    +0.000 OA
ATOM     17  C   UNL     1       7.618   5.282  17.179  0.00  0.00    +0.000 C 
BRANCH  17  18
ATOM     18  O   UNL     1       7.684   5.934  15.987  0.00  0.00    +0.000 OA
BRANCH  18  19
ATOM     19  C   UNL     1       6.459   6.058  15.238  0.00  0.00    +0.000 C 
BRANCH  19  20
ATOM     20  C   UNL     1       6.331   4.983  14.175  0.00  0.00    +0.000 A 
ATOM     21  C   UNL     1       5.211   4.128  14.161  0.00  0.00    +0.000 A 
ATOM     22  C   UNL     1       5.052   3.169  13.156  0.00  0.00    +0.000 A 
ATOM     23  C   UNL     1       6.004   3.063  12.153  0.00  0.00    +0.000 A 
ATOM     24  F   UNL     1       5.849   2.146  11.189  0.00  0.00    +0.000 F 
ATOM     25  C   UNL     1       7.109   3.901  12.127  0.00  0.00    +0.000 A 
ATOM     26  C   UNL     1       7.268   4.862  13.129  0.00  0.00    +0.000 A 
ATOM     27 CL   UNL     1       8.646   5.900  13.009  0.00  0.00    +0.000 Cl
ENDBRANCH  19  20
ENDBRANCH  18  19
ENDBRANCH  17  18
ENDBRANCH  15  17
ENDBRANCH   1  15
TORSDOF 6
ENDMDL
