MODEL 1
REMARK VINA RESULT:     -10.0      0.000      0.000
REMARK  Name = 
REMARK  6 active torsions:
REMARK  status: ('A' for Active; 'I' for Inactive)
REMARK    1  A    between atoms: C_2  and  C_3
REMARK    2  A    between atoms: C_3  and  C_4
REMARK    3  A    between atoms: C_4  and  N_5
REMARK    4  A    between atoms: C_14  and  C_15
REMARK    5  A    between atoms: C_18  and  C_19
REMARK    6  A    between atoms: N_27  and  O_28
REMARK                            x       y       z     vdW  Elec       q    Type
REMARK                         _______ _______ _______ _____ _____    ______ ____
ROOT
ATOM      1  N   UNL     1       3.228   4.460  17.582  0.00  0.00    +0.000 NA
ATOM      2  C   UNL     1       4.081   3.538  18.340  0.00  0.00    +0.000 C 
ATOM      3  C   UNL     1       5.054   4.160  19.342  0.00  0.00    +0.000 C 
ATOM      4  C   UNL     1       5.842   5.250  18.676  0.00  0.00    +0.000 A 
ATOM      5  C   UNL     1       7.143   5.561  19.080  0.00  0.00    +0.000 A 
ATOM      6  C   UNL     1       7.839   6.587  18.445  0.00  0.00    +0.000 A 
ATOM      7  C   UNL     1       7.244   7.294  17.401  0.00  0.00    +0.000 A 
ATOM      8  C   UNL     1       5.924   7.024  17.028  0.00  0.00    +0.000 A 
ATOM      9  C   UNL     1       5.200   6.021  17.684  0.00  0.00    +0.000 A 
ATOM     10  C   UNL     1       3.679   5.874  17.499  0.00  0.00    +0.000 C 
ENDROOT
BRANCH  10  11
ATOM     11  C   UNL     1       2.915   6.853  18.411  0.00  0.00    +0.000 A 
ATOM     12  C   UNL     1       2.439   8.079  17.918  0.00  0.00    +0.000 A 
ATOM     13  C   UNL     1       1.664   8.929  18.721  0.00  0.00    +0.000 A 
ATOM     14  C   UNL     1       1.339   8.599  20.045  0.00  0.00    +0.000 A 
ATOM     15  C   UNL     1       1.868   7.402  20.545  0.00  0.00    +0.000 A 
ATOM     16  C   UNL     1       2.646   6.558  19.752  0.00  0.00    +0.000 A 
BRANCH  14  17
ATOM     17  C   UNL     1       0.459   9.435  20.894  0.00  0.00    +0.000 A 
ATOM     18  C   UNL     1       0.291   9.171  22.265  0.00  0.00    +0.000 A 
ATOM     19  C   UNL     1      -0.495   9.999  23.072  0.00  0.00    +0.000 A 
ATOM     20  C   UNL     1      -1.121  11.118  22.532  0.00  0.00    +0.000 A 
ATOM     21  C   UNL     1      -0.971  11.404  21.178  0.00  0.00    +0.000 A 
ATOM     22  C   UNL     1      -0.201  10.564  20.373  0.00  0.00    +0.000 A 
ENDBRANCH  14  17
ENDBRANCH  10  11
BRANCH   1  23
ATOM     23  C   UNL     1       1.784   4.213  17.701  0.00  0.00    +0.000 C 
BRANCH  23  24
ATOM     24  C   UNL     1       1.484   2.958  18.525  0.00  0.00    +0.000 C 
BRANCH  24  26
ATOM     25  O   UNL     1       0.453   4.136  20.397  0.00  0.00    +0.000 OA
ATOM     26  C   UNL     1       1.184   3.245  19.977  0.00  0.00    +0.000 C 
ATOM     27  N   UNL     1       1.825   2.352  20.818  0.00  0.00    +0.000 N 
ATOM     28  H   UNL     1       2.322   1.532  20.497  0.00  0.00    +0.000 HD
BRANCH  27  29
ATOM     29  O   UNL     1       1.553   2.441  22.197  0.00  0.00    +0.000 OA
ATOM     30  H   UNL     1       2.181   3.131  22.495  0.00  0.00    +0.000 HD
ENDBRANCH  27  29
ENDBRANCH  24  26
ENDBRANCH  23  24
ENDBRANCH   1  23
TORSDOF 6
ENDMDL
MODEL 2
REMARK VINA RESULT:      -9.9      0.327      1.307
REMARK  Name = 
REMARK  6 active torsions:
REMARK  status: ('A' for Active; 'I' for Inactive)
REMARK    1  A    between atoms: C_2  and  C_3
REMARK    2  A    between atoms: C_3  and  C_4
REMARK    3  A    between atoms: C_4  and  N_5
REMARK    4  A    between atoms: C_14  and  C_15
REMARK    5  A    between atoms: C_18  and  C_19
REMARK    6  A    between atoms: N_27  and  O_28
REMARK                            x       y       z     vdW  Elec       q    Type
REMARK                         _______ _______ _______ _____ _____    ______ ____
ROOT
ATOM      1  N   UNL     1       3.464   4.286  17.503  0.00  0.00    +0.000 NA
ATOM      2  C   UNL     1       4.347   3.419  18.289  0.00  0.00    +0.000 C 
ATOM      3  C   UNL     1       5.231   4.098  19.337  0.00  0.00    +0.000 C 
ATOM      4  C   UNL     1       5.966   5.248  18.714  0.00  0.00    +0.000 A 
ATOM      5  C   UNL     1       7.223   5.647  19.176  0.00  0.00    +0.000 A 
ATOM      6  C   UNL     1       7.871   6.726  18.579  0.00  0.00    +0.000 A 
ATOM      7  C   UNL     1       7.272   7.400  17.515  0.00  0.00    +0.000 A 
ATOM      8  C   UNL     1       5.992   7.041  17.083  0.00  0.00    +0.000 A 
ATOM      9  C   UNL     1       5.314   5.982  17.701  0.00  0.00    +0.000 A 
ATOM     10  C   UNL     1       3.817   5.729  17.449  0.00  0.00    +0.000 C 
ENDROOT
BRANCH  10  11
ATOM     11  C   UNL     1       2.947   6.643  18.335  0.00  0.00    +0.000 A 
ATOM     12  C   UNL     1       2.663   6.302  19.667  0.00  0.00    +0.000 A 
ATOM     13  C   UNL     1       1.950   7.175  20.501  0.00  0.00    +0.000 A 
ATOM     14  C   UNL     1       1.485   8.416  20.042  0.00  0.00    +0.000 A 
ATOM     15  C   UNL     1       1.722   8.721  18.696  0.00  0.00    +0.000 A 
ATOM     16  C   UNL     1       2.424   7.851  17.862  0.00  0.00    +0.000 A 
BRANCH  14  17
ATOM     17  C   UNL     1       0.798   9.396  20.916  0.00  0.00    +0.000 A 
ATOM     18  C   UNL     1       0.515  10.702  20.479  0.00  0.00    +0.000 A 
ATOM     19  C   UNL     1      -0.185  11.602  21.289  0.00  0.00    +0.000 A 
ATOM     20  C   UNL     1      -0.631  11.214  22.549  0.00  0.00    +0.000 A 
ATOM     21  C   UNL     1      -0.365   9.927  23.006  0.00  0.00    +0.000 A 
ATOM     22  C   UNL     1       0.350   9.038  22.202  0.00  0.00    +0.000 A 
ENDBRANCH  14  17
ENDBRANCH  10  11
BRANCH   1  23
ATOM     23  C   UNL     1       2.037   3.936  17.558  0.00  0.00    +0.000 C 
BRANCH  23  24
ATOM     24  C   UNL     1       1.782   2.712  18.440  0.00  0.00    +0.000 C 
BRANCH  24  26
ATOM     25  O   UNL     1       0.368   3.818  20.094  0.00  0.00    +0.000 OA
ATOM     26  C   UNL     1       1.293   3.057  19.827  0.00  0.00    +0.000 C 
ATOM     27  N   UNL     1       2.007   2.385  20.804  0.00  0.00    +0.000 N 
ATOM     28  H   UNL     1       2.680   1.655  20.610  0.00  0.00    +0.000 HD
BRANCH  27  29
ATOM     29  O   UNL     1       1.589   2.536  22.140  0.00  0.00    +0.000 OA
ATOM     30  H   UNL     1       2.415   2.371  22.642  0.00  0.00    +0.000 HD
ENDBRANCH  27  29
ENDBRANCH  24  26
ENDBRANCH  23  24
ENDBRANCH   1  23
TORSDOF 6
ENDMDL
MODEL 3
REMARK VINA RESULT:      -9.8      2.797      4.862
REMARK  Name = 
REMARK  6 active torsions:
REMARK  status: ('A' for Active; 'I' for Inactive)
REMARK    1  A    between atoms: C_2  and  C_3
REMARK    2  A    between atoms: C_3  and  C_4
REMARK    3  A    between atoms: C_4  and  N_5
REMARK    4  A    between atoms: C_14  and  C_15
REMARK    5  A    between atoms: C_18  and  C_19
REMARK    6  A    between atoms: N_27  and  O_28
REMARK                            x       y       z     vdW  Elec       q    Type
REMARK                         _______ _______ _______ _____ _____    ______ ____
ROOT
ATOM      1  N   UNL     1       4.608   5.335  18.126  0.00  0.00    +0.000 NA
ATOM      2  C   UNL     1       4.215   4.276  17.191  0.00  0.00    +0.000 C 
ATOM      3  C   UNL     1       2.734   3.896  17.157  0.00  0.00    +0.000 C 
ATOM      4  C   UNL     1       2.244   3.637  18.552  0.00  0.00    +0.000 A 
ATOM      5  C   UNL     1       1.211   2.730  18.806  0.00  0.00    +0.000 A 
ATOM      6  C   UNL     1       0.776   2.524  20.112  0.00  0.00    +0.000 A 
ATOM      7  C   UNL     1       1.376   3.212  21.167  0.00  0.00    +0.000 A 
ATOM      8  C   UNL     1       2.372   4.160  20.915  0.00  0.00    +0.000 A 
ATOM      9  C   UNL     1       2.792   4.404  19.600  0.00  0.00    +0.000 A 
ATOM     10  C   UNL     1       3.677   5.614  19.251  0.00  0.00    +0.000 C 
ENDROOT
BRANCH  10  11
ATOM     11  C   UNL     1       2.826   6.890  19.087  0.00  0.00    +0.000 A 
ATOM     12  C   UNL     1       2.080   7.403  20.159  0.00  0.00    +0.000 A 
ATOM     13  C   UNL     1       1.380   8.613  20.040  0.00  0.00    +0.000 A 
ATOM     14  C   UNL     1       1.389   9.355  18.849  0.00  0.00    +0.000 A 
ATOM     15  C   UNL     1       2.089   8.804  17.768  0.00  0.00    +0.000 A 
ATOM     16  C   UNL     1       2.779   7.597  17.881  0.00  0.00    +0.000 A 
BRANCH  14  17
ATOM     17  C   UNL     1       0.727  10.673  18.712  0.00  0.00    +0.000 A 
ATOM     18  C   UNL     1       1.459  11.873  18.754  0.00  0.00    +0.000 A 
ATOM     19  C   UNL     1       0.835  13.110  18.566  0.00  0.00    +0.000 A 
ATOM     20  C   UNL     1      -0.533  13.177  18.318  0.00  0.00    +0.000 A 
ATOM     21  C   UNL     1      -1.282  12.005  18.271  0.00  0.00    +0.000 A 
ATOM     22  C   UNL     1      -0.658  10.774  18.477  0.00  0.00    +0.000 A 
ENDBRANCH  14  17
ENDBRANCH  10  11
BRANCH   1  23
ATOM     23  C   UNL     1       5.300   6.480  17.516  0.00  0.00    +0.000 C 
BRANCH  23  24
ATOM     24  C   UNL     1       6.784   6.188  17.275  0.00  0.00    +0.000 C 
BRANCH  24  26
ATOM     25  O   UNL     1       8.411   7.292  18.721  0.00  0.00    +0.000 OA
ATOM     26  C   UNL     1       7.641   6.361  18.507  0.00  0.00    +0.000 C 
ATOM     27  N   UNL     1       7.445   5.336  19.416  0.00  0.00    +0.000 N 
ATOM     28  H   UNL     1       6.723   4.633  19.326  0.00  0.00    +0.000 HD
BRANCH  27  29
ATOM     29  O   UNL     1       8.107   5.425  20.656  0.00  0.00    +0.000 OA
ATOM     30  H   UNL     1       8.711   6.185  20.522  0.00  0.00    +0.000 HD
ENDBRANCH  27  29
ENDBRANCH  24  26
ENDBRANCH  23  24
ENDBRANCH   1  23
TORSDOF 6
ENDMDL
MODEL 4
REMARK VINA RESULT:      -9.8      2.793      4.806
REMARK  Name = 
REMARK  6 active torsions:
REMARK  status: ('A' for Active; 'I' for Inactive)
REMARK    1  A    between atoms: C_2  and  C_3
REMARK    2  A    between atoms: C_3  and  C_4
REMARK    3  A    between atoms: C_4  and  N_5
REMARK    4  A    between atoms: C_14  and  C_15
REMARK    5  A    between atoms: C_18  and  C_19
REMARK    6  A    between atoms: N_27  and  O_28
REMARK                            x       y       z     vdW  Elec       q    Type
REMARK                         _______ _______ _______ _____ _____    ______ ____
ROOT
ATOM      1  N   UNL     1       4.698   5.415  18.266  0.00  0.00    +0.000 NA
ATOM      2  C   UNL     1       4.415   4.375  17.272  0.00  0.00    +0.000 C 
ATOM      3  C   UNL     1       2.954   3.953  17.108  0.00  0.00    +0.000 C 
ATOM      4  C   UNL     1       2.362   3.637  18.450  0.00  0.00    +0.000 A 
ATOM      5  C   UNL     1       1.341   2.693  18.593  0.00  0.00    +0.000 A 
ATOM      6  C   UNL     1       0.810   2.434  19.854  0.00  0.00    +0.000 A 
ATOM      7  C   UNL     1       1.301   3.106  20.973  0.00  0.00    +0.000 A 
ATOM      8  C   UNL     1       2.284   4.090  20.829  0.00  0.00    +0.000 A 
ATOM      9  C   UNL     1       2.800   4.387  19.561  0.00  0.00    +0.000 A 
ATOM     10  C   UNL     1       3.671   5.633  19.319  0.00  0.00    +0.000 C 
ENDROOT
BRANCH  10  11
ATOM     11  C   UNL     1       2.797   6.887  19.123  0.00  0.00    +0.000 A 
ATOM     12  C   UNL     1       2.102   7.460  20.200  0.00  0.00    +0.000 A 
ATOM     13  C   UNL     1       1.382   8.653  20.044  0.00  0.00    +0.000 A 
ATOM     14  C   UNL     1       1.317   9.318  18.811  0.00  0.00    +0.000 A 
ATOM     15  C   UNL     1       1.965   8.708  17.730  0.00  0.00    +0.000 A 
ATOM     16  C   UNL     1       2.675   7.517  17.880  0.00  0.00    +0.000 A 
BRANCH  14  17
ATOM     17  C   UNL     1       0.632  10.619  18.629  0.00  0.00    +0.000 A 
ATOM     18  C   UNL     1      -0.746  10.695  18.360  0.00  0.00    +0.000 A 
ATOM     19  C   UNL     1      -1.397  11.928  18.247  0.00  0.00    +0.000 A 
ATOM     20  C   UNL     1      -0.688  13.114  18.414  0.00  0.00    +0.000 A 
ATOM     21  C   UNL     1       0.676  13.068  18.681  0.00  0.00    +0.000 A 
ATOM     22  C   UNL     1       1.325  11.836  18.775  0.00  0.00    +0.000 A 
ENDBRANCH  14  17
ENDBRANCH  10  11
BRANCH   1  23
ATOM     23  C   UNL     1       5.400   6.598  17.747  0.00  0.00    +0.000 C 
BRANCH  23  24
ATOM     24  C   UNL     1       6.865   6.295  17.419  0.00  0.00    +0.000 C 
BRANCH  24  26
ATOM     25  O   UNL     1       8.003   4.278  18.191  0.00  0.00    +0.000 OA
ATOM     26  C   UNL     1       7.533   5.388  18.425  0.00  0.00    +0.000 C 
ATOM     27  N   UNL     1       7.586   5.966  19.681  0.00  0.00    +0.000 N 
ATOM     28  H   UNL     1       7.330   6.926  19.872  0.00  0.00    +0.000 HD
BRANCH  27  29
ATOM     29  O   UNL     1       8.275   5.271  20.694  0.00  0.00    +0.000 OA
ATOM     30  H   UNL     1       8.522   4.434  20.248  0.00  0.00    +0.000 HD
ENDBRANCH  27  29
ENDBRANCH  24  26
ENDBRANCH  23  24
ENDBRANCH   1  23
TORSDOF 6
ENDMDL
MODEL 5
REMARK VINA RESULT:      -9.7      2.802      4.747
REMARK  Name = 
REMARK  6 active torsions:
REMARK  status: ('A' for Active; 'I' for Inactive)
REMARK    1  A    between atoms: C_2  and  C_3
REMARK    2  A    between atoms: C_3  and  C_4
REMARK    3  A    between atoms: C_4  and  N_5
REMARK    4  A    between atoms: C_14  and  C_15
REMARK    5  A    between atoms: C_18  and  C_19
REMARK    6  A    between atoms: N_27  and  O_28
REMARK                            x       y       z     vdW  Elec       q    Type
REMARK                         _______ _______ _______ _____ _____    ______ ____
ROOT
ATOM      1  N   UNL     1       4.745   5.271  18.212  0.00  0.00    +0.000 NA
ATOM      2  C   UNL     1       4.382   4.270  17.205  0.00  0.00    +0.000 C 
ATOM      3  C   UNL     1       2.895   3.940  17.060  0.00  0.00    +0.000 C 
ATOM      4  C   UNL     1       2.309   3.634  18.407  0.00  0.00    +0.000 A 
ATOM      5  C   UNL     1       1.236   2.751  18.552  0.00  0.00    +0.000 A 
ATOM      6  C   UNL     1       0.712   2.500  19.818  0.00  0.00    +0.000 A 
ATOM      7  C   UNL     1       1.263   3.119  20.939  0.00  0.00    +0.000 A 
ATOM      8  C   UNL     1       2.301   4.044  20.796  0.00  0.00    +0.000 A 
ATOM      9  C   UNL     1       2.812   4.334  19.524  0.00  0.00    +0.000 A 
ATOM     10  C   UNL     1       3.753   5.529  19.288  0.00  0.00    +0.000 C 
ENDROOT
BRANCH  10  11
ATOM     11  C   UNL     1       2.953   6.838  19.133  0.00  0.00    +0.000 A 
ATOM     12  C   UNL     1       2.940   7.537  17.916  0.00  0.00    +0.000 A 
ATOM     13  C   UNL     1       2.141   8.677  17.745  0.00  0.00    +0.000 A 
ATOM     14  C   UNL     1       1.330   9.169  18.777  0.00  0.00    +0.000 A 
ATOM     15  C   UNL     1       1.394   8.499  20.005  0.00  0.00    +0.000 A 
ATOM     16  C   UNL     1       2.195   7.370  20.182  0.00  0.00    +0.000 A 
BRANCH  14  17
ATOM     17  C   UNL     1       0.415  10.322  18.607  0.00  0.00    +0.000 A 
ATOM     18  C   UNL     1       0.832  11.639  18.869  0.00  0.00    +0.000 A 
ATOM     19  C   UNL     1      -0.020  12.727  18.651  0.00  0.00    +0.000 A 
ATOM     20  C   UNL     1      -1.304  12.525  18.153  0.00  0.00    +0.000 A 
ATOM     21  C   UNL     1      -1.742  11.232  17.885  0.00  0.00    +0.000 A 
ATOM     22  C   UNL     1      -0.896  10.149  18.121  0.00  0.00    +0.000 A 
ENDBRANCH  14  17
ENDBRANCH  10  11
BRANCH   1  23
ATOM     23  C   UNL     1       5.509   6.419  17.703  0.00  0.00    +0.000 C 
BRANCH  23  24
ATOM     24  C   UNL     1       6.937   6.028  17.313  0.00  0.00    +0.000 C 
BRANCH  24  26
ATOM     25  O   UNL     1       8.234   4.142  18.161  0.00  0.00    +0.000 OA
ATOM     26  C   UNL     1       7.644   5.199  18.359  0.00  0.00    +0.000 C 
ATOM     27  N   UNL     1       7.575   5.787  19.610  0.00  0.00    +0.000 N 
ATOM     28  H   UNL     1       7.214   6.717  19.777  0.00  0.00    +0.000 HD
BRANCH  27  29
ATOM     29  O   UNL     1       8.280   5.171  20.663  0.00  0.00    +0.000 OA
ATOM     30  H   UNL     1       7.756   4.359  20.825  0.00  0.00    +0.000 HD
ENDBRANCH  27  29
ENDBRANCH  24  26
ENDBRANCH  23  24
ENDBRANCH   1  23
TORSDOF 6
ENDMDL
MODEL 6
REMARK VINA RESULT:      -9.7      2.766      4.776
REMARK  Name = 
REMARK  6 active torsions:
REMARK  status: ('A' for Active; 'I' for Inactive)
REMARK    1  A    between atoms: C_2  and  C_3
REMARK    2  A    between atoms: C_3  and  C_4
REMARK    3  A    between atoms: C_4  and  N_5
REMARK    4  A    between atoms: C_14  and  C_15
REMARK    5  A    between atoms: C_18  and  C_19
REMARK    6  A    between atoms: N_27  and  O_28
REMARK                            x       y       z     vdW  Elec       q    Type
REMARK                         _______ _______ _______ _____ _____    ______ ____
ROOT
ATOM      1  N   UNL     1       4.640   5.315  18.136  0.00  0.00    +0.000 NA
ATOM      2  C   UNL     1       4.241   4.264  17.194  0.00  0.00    +0.000 C 
ATOM      3  C   UNL     1       2.756   3.900  17.152  0.00  0.00    +0.000 C 
ATOM      4  C   UNL     1       2.257   3.640  18.543  0.00  0.00    +0.000 A 
ATOM      5  C   UNL     1       1.213   2.743  18.788  0.00  0.00    +0.000 A 
ATOM      6  C   UNL     1       0.770   2.536  20.091  0.00  0.00    +0.000 A 
ATOM      7  C   UNL     1       1.372   3.213  21.151  0.00  0.00    +0.000 A 
ATOM      8  C   UNL     1       2.379   4.152  20.908  0.00  0.00    +0.000 A 
ATOM      9  C   UNL     1       2.808   4.397  19.597  0.00  0.00    +0.000 A 
ATOM     10  C   UNL     1       3.707   5.599  19.257  0.00  0.00    +0.000 C 
ENDROOT
BRANCH  10  11
ATOM     11  C   UNL     1       2.870   6.884  19.095  0.00  0.00    +0.000 A 
ATOM     12  C   UNL     1       2.757   7.521  17.849  0.00  0.00    +0.000 A 
ATOM     13  C   UNL     1       1.923   8.636  17.679  0.00  0.00    +0.000 A 
ATOM     14  C   UNL     1       1.176   9.165  18.741  0.00  0.00    +0.000 A 
ATOM     15  C   UNL     1       1.341   8.559  19.993  0.00  0.00    +0.000 A 
ATOM     16  C   UNL     1       2.176   7.455  20.167  0.00  0.00    +0.000 A 
BRANCH  14  17
ATOM     17  C   UNL     1       0.227  10.291  18.580  0.00  0.00    +0.000 A 
ATOM     18  C   UNL     1      -0.984  10.140  17.882  0.00  0.00    +0.000 A 
ATOM     19  C   UNL     1      -1.901  11.192  17.784  0.00  0.00    +0.000 A 
ATOM     20  C   UNL     1      -1.636  12.414  18.394  0.00  0.00    +0.000 A 
ATOM     21  C   UNL     1      -0.446  12.591  19.092  0.00  0.00    +0.000 A 
ATOM     22  C   UNL     1       0.475  11.545  19.171  0.00  0.00    +0.000 A 
ENDBRANCH  14  17
ENDBRANCH  10  11
BRANCH   1  23
ATOM     23  C   UNL     1       5.347   6.455  17.534  0.00  0.00    +0.000 C 
BRANCH  23  24
ATOM     24  C   UNL     1       6.833   6.155  17.315  0.00  0.00    +0.000 C 
BRANCH  24  26
ATOM     25  O   UNL     1       8.423   7.289  18.778  0.00  0.00    +0.000 OA
ATOM     26  C   UNL     1       7.676   6.342  18.554  0.00  0.00    +0.000 C 
ATOM     27  N   UNL     1       7.497   5.308  19.456  0.00  0.00    +0.000 N 
ATOM     28  H   UNL     1       6.792   4.590  19.358  0.00  0.00    +0.000 HD
BRANCH  27  29
ATOM     29  O   UNL     1       8.147   5.406  20.702  0.00  0.00    +0.000 OA
ATOM     30  H   UNL     1       7.840   6.276  21.035  0.00  0.00    +0.000 HD
ENDBRANCH  27  29
ENDBRANCH  24  26
ENDBRANCH  23  24
ENDBRANCH   1  23
TORSDOF 6
ENDMDL
MODEL 7
REMARK VINA RESULT:      -9.5      3.076      4.905
REMARK  Name = 
REMARK  6 active torsions:
REMARK  status: ('A' for Active; 'I' for Inactive)
REMARK    1  A    between atoms: C_2  and  C_3
REMARK    2  A    between atoms: C_3  and  C_4
REMARK    3  A    between atoms: C_4  and  N_5
REMARK    4  A    between atoms: C_14  and  C_15
REMARK    5  A    between atoms: C_18  and  C_19
REMARK    6  A    between atoms: N_27  and  O_28
REMARK                            x       y       z     vdW  Elec       q    Type
REMARK                         _______ _______ _______ _____ _____    ______ ____
ROOT
ATOM      1  N   UNL     1       4.199   5.187  17.764  0.00  0.00    +0.000 NA
ATOM      2  C   UNL     1       3.578   4.066  17.053  0.00  0.00    +0.000 C 
ATOM      3  C   UNL     1       2.122   3.748  17.398  0.00  0.00    +0.000 C 
ATOM      4  C   UNL     1       1.964   3.637  18.886  0.00  0.00    +0.000 A 
ATOM      5  C   UNL     1       1.001   2.802  19.458  0.00  0.00    +0.000 A 
ATOM      6  C   UNL     1       0.877   2.734  20.843  0.00  0.00    +0.000 A 
ATOM      7  C   UNL     1       1.720   3.489  21.659  0.00  0.00    +0.000 A 
ATOM      8  C   UNL     1       2.649   4.367  21.093  0.00  0.00    +0.000 A 
ATOM      9  C   UNL     1       2.758   4.473  19.700  0.00  0.00    +0.000 A 
ATOM     10  C   UNL     1       3.561   5.607  19.040  0.00  0.00    +0.000 C 
ENDROOT
BRANCH  10  11
ATOM     11  C   UNL     1       2.722   6.897  18.951  0.00  0.00    +0.000 A 
ATOM     12  C   UNL     1       2.081   7.423  20.085  0.00  0.00    +0.000 A 
ATOM     13  C   UNL     1       1.396   8.645  20.027  0.00  0.00    +0.000 A 
ATOM     14  C   UNL     1       1.313   9.388  18.840  0.00  0.00    +0.000 A 
ATOM     15  C   UNL     1       1.905   8.826  17.701  0.00  0.00    +0.000 A 
ATOM     16  C   UNL     1       2.581   7.608  17.754  0.00  0.00    +0.000 A 
BRANCH  14  17
ATOM     17  C   UNL     1       0.665  10.718  18.761  0.00  0.00    +0.000 A 
ATOM     18  C   UNL     1       1.409  11.907  18.857  0.00  0.00    +0.000 A 
ATOM     19  C   UNL     1       0.798  13.158  18.724  0.00  0.00    +0.000 A 
ATOM     20  C   UNL     1      -0.568  13.250  18.478  0.00  0.00    +0.000 A 
ATOM     21  C   UNL     1      -1.329  12.089  18.378  0.00  0.00    +0.000 A 
ATOM     22  C   UNL     1      -0.718  10.843  18.530  0.00  0.00    +0.000 A 
ENDBRANCH  14  17
ENDBRANCH  10  11
BRANCH   1  23
ATOM     23  C   UNL     1       4.754   6.241  16.903  0.00  0.00    +0.000 C 
BRANCH  23  24
ATOM     24  C   UNL     1       5.377   5.668  15.627  0.00  0.00    +0.000 C 
BRANCH  24  26
ATOM     25  O   UNL     1       7.738   5.443  15.052  0.00  0.00    +0.000 OA
ATOM     26  C   UNL     1       6.802   5.203  15.808  0.00  0.00    +0.000 C 
ATOM     27  N   UNL     1       6.957   4.468  16.971  0.00  0.00    +0.000 N 
ATOM     28  H   UNL     1       6.239   4.368  17.675  0.00  0.00    +0.000 HD
BRANCH  27  29
ATOM     29  O   UNL     1       8.259   4.056  17.316  0.00  0.00    +0.000 OA
ATOM     30  H   UNL     1       8.110   3.546  18.140  0.00  0.00    +0.000 HD
ENDBRANCH  27  29
ENDBRANCH  24  26
ENDBRANCH  23  24
ENDBRANCH   1  23
TORSDOF 6
ENDMDL
MODEL 8
REMARK VINA RESULT:      -9.5      3.076      4.752
REMARK  Name = 
REMARK  6 active torsions:
REMARK  status: ('A' for Active; 'I' for Inactive)
REMARK    1  A    between atoms: C_2  and  C_3
REMARK    2  A    between atoms: C_3  and  C_4
REMARK    3  A    between atoms: C_4  and  N_5
REMARK    4  A    between atoms: C_14  and  C_15
REMARK    5  A    between atoms: C_18  and  C_19
REMARK    6  A    between atoms: N_27  and  O_28
REMARK                            x       y       z     vdW  Elec       q    Type
REMARK                         _______ _______ _______ _____ _____    ______ ____
ROOT
ATOM      1  N   UNL     1       4.134   5.015  17.584  0.00  0.00    +0.000 NA
ATOM      2  C   UNL     1       3.357   3.946  16.949  0.00  0.00    +0.000 C 
ATOM      3  C   UNL     1       1.929   3.736  17.452  0.00  0.00    +0.000 C 
ATOM      4  C   UNL     1       1.927   3.631  18.949  0.00  0.00    +0.000 A 
ATOM      5  C   UNL     1       0.972   2.868  19.626  0.00  0.00    +0.000 A 
ATOM      6  C   UNL     1       0.996   2.804  21.017  0.00  0.00    +0.000 A 
ATOM      7  C   UNL     1       1.977   3.490  21.732  0.00  0.00    +0.000 A 
ATOM      8  C   UNL     1       2.901   4.298  21.065  0.00  0.00    +0.000 A 
ATOM      9  C   UNL     1       2.864   4.402  19.668  0.00  0.00    +0.000 A 
ATOM     10  C   UNL     1       3.673   5.476  18.919  0.00  0.00    +0.000 C 
ENDROOT
BRANCH  10  11
ATOM     11  C   UNL     1       2.928   6.826  18.918  0.00  0.00    +0.000 A 
ATOM     12  C   UNL     1       2.957   7.667  17.795  0.00  0.00    +0.000 A 
ATOM     13  C   UNL     1       2.206   8.850  17.757  0.00  0.00    +0.000 A 
ATOM     14  C   UNL     1       1.402   9.248  18.836  0.00  0.00    +0.000 A 
ATOM     15  C   UNL     1       1.426   8.431  19.974  0.00  0.00    +0.000 A 
ATOM     16  C   UNL     1       2.178   7.258  20.018  0.00  0.00    +0.000 A 
BRANCH  14  17
ATOM     17  C   UNL     1       0.536  10.449  18.801  0.00  0.00    +0.000 A 
ATOM     18  C   UNL     1      -0.864  10.350  18.883  0.00  0.00    +0.000 A 
ATOM     19  C   UNL     1      -1.672  11.492  18.907  0.00  0.00    +0.000 A 
ATOM     20  C   UNL     1      -1.099  12.759  18.864  0.00  0.00    +0.000 A 
ATOM     21  C   UNL     1       0.285  12.886  18.784  0.00  0.00    +0.000 A 
ATOM     22  C   UNL     1       1.085  11.744  18.741  0.00  0.00    +0.000 A 
ENDBRANCH  14  17
ENDBRANCH  10  11
BRANCH   1  23
ATOM     23  C   UNL     1       4.669   6.029  16.663  0.00  0.00    +0.000 C 
BRANCH  23  24
ATOM     24  C   UNL     1       5.374   5.394  15.461  0.00  0.00    +0.000 C 
BRANCH  24  26
ATOM     25  O   UNL     1       7.773   5.349  15.012  0.00  0.00    +0.000 OA
ATOM     26  C   UNL     1       6.820   5.047  15.724  0.00  0.00    +0.000 C 
ATOM     27  N   UNL     1       6.971   4.345  16.907  0.00  0.00    +0.000 N 
ATOM     28  H   UNL     1       6.226   4.200  17.576  0.00  0.00    +0.000 HD
BRANCH  27  29
ATOM     29  O   UNL     1       8.281   4.044  17.327  0.00  0.00    +0.000 OA
ATOM     30  H   UNL     1       8.165   3.190  17.794  0.00  0.00    +0.000 HD
ENDBRANCH  27  29
ENDBRANCH  24  26
ENDBRANCH  23  24
ENDBRANCH   1  23
TORSDOF 6
ENDMDL
MODEL 9
REMARK VINA RESULT:      -9.5      2.767      4.718
REMARK  Name = 
REMARK  6 active torsions:
REMARK  status: ('A' for Active; 'I' for Inactive)
REMARK    1  A    between atoms: C_2  and  C_3
REMARK    2  A    between atoms: C_3  and  C_4
REMARK    3  A    between atoms: C_4  and  N_5
REMARK    4  A    between atoms: C_14  and  C_15
REMARK    5  A    between atoms: C_18  and  C_19
REMARK    6  A    between atoms: N_27  and  O_28
REMARK                            x       y       z     vdW  Elec       q    Type
REMARK                         _______ _______ _______ _____ _____    ______ ____
ROOT
ATOM      1  N   UNL     1       4.146   5.533  17.821  0.00  0.00    +0.000 NA
ATOM      2  C   UNL     1       3.560   4.440  17.040  0.00  0.00    +0.000 C 
ATOM      3  C   UNL     1       2.133   4.022  17.395  0.00  0.00    +0.000 C 
ATOM      4  C   UNL     1       2.023   3.791  18.874  0.00  0.00    +0.000 A 
ATOM      5  C   UNL     1       1.119   2.866  19.403  0.00  0.00    +0.000 A 
ATOM      6  C   UNL     1       1.039   2.686  20.781  0.00  0.00    +0.000 A 
ATOM      7  C   UNL     1       1.867   3.418  21.632  0.00  0.00    +0.000 A 
ATOM      8  C   UNL     1       2.735   4.383  21.113  0.00  0.00    +0.000 A 
ATOM      9  C   UNL     1       2.798   4.601  19.730  0.00  0.00    +0.000 A 
ATOM     10  C   UNL     1       3.525   5.821  19.141  0.00  0.00    +0.000 C 
ENDROOT
BRANCH  10  11
ATOM     11  C   UNL     1       2.623   7.070  19.174  0.00  0.00    +0.000 A 
ATOM     12  C   UNL     1       2.333   7.785  18.001  0.00  0.00    +0.000 A 
ATOM     13  C   UNL     1       1.438   8.865  18.014  0.00  0.00    +0.000 A 
ATOM     14  C   UNL     1       0.804   9.282  19.193  0.00  0.00    +0.000 A 
ATOM     15  C   UNL     1       1.145   8.600  20.368  0.00  0.00    +0.000 A 
ATOM     16  C   UNL     1       2.040   7.531  20.360  0.00  0.00    +0.000 A 
BRANCH  14  17
ATOM     17  C   UNL     1      -0.204  10.367  19.229  0.00  0.00    +0.000 A 
ATOM     18  C   UNL     1      -1.030  10.642  18.125  0.00  0.00    +0.000 A 
ATOM     19  C   UNL     1      -2.019  11.630  18.188  0.00  0.00    +0.000 A 
ATOM     20  C   UNL     1      -2.215  12.355  19.359  0.00  0.00    +0.000 A 
ATOM     21  C   UNL     1      -1.412  12.103  20.467  0.00  0.00    +0.000 A 
ATOM     22  C   UNL     1      -0.414  11.130  20.394  0.00  0.00    +0.000 A 
ENDBRANCH  14  17
ENDBRANCH  10  11
BRANCH   1  23
ATOM     23  C   UNL     1       4.624   6.677  17.031  0.00  0.00    +0.000 C 
BRANCH  23  24
ATOM     24  C   UNL     1       6.094   6.996  17.317  0.00  0.00    +0.000 C 
BRANCH  24  26
ATOM     25  O   UNL     1       7.545   5.802  15.759  0.00  0.00    +0.000 OA
ATOM     26  C   UNL     1       7.045   5.909  16.874  0.00  0.00    +0.000 C 
ATOM     27  N   UNL     1       7.324   5.023  17.900  0.00  0.00    +0.000 N 
ATOM     28  H   UNL     1       7.034   5.161  18.859  0.00  0.00    +0.000 HD
BRANCH  27  29
ATOM     29  O   UNL     1       8.277   4.016  17.655  0.00  0.00    +0.000 OA
ATOM     30  H   UNL     1       8.410   3.626  18.544  0.00  0.00    +0.000 HD
ENDBRANCH  27  29
ENDBRANCH  24  26
ENDBRANCH  23  24
ENDBRANCH   1  23
TORSDOF 6
ENDMDL
