MODEL 1
REMARK VINA RESULT:      -7.1      0.000      0.000
REMARK  Name = 
REMARK  5 active torsions:
REMARK  status: ('A' for Active; 'I' for Inactive)
REMARK    1  A    between atoms: C_2  and  C_12
REMARK    2  A    between atoms: N_3  and  C_4
REMARK    3  A    between atoms: C_4  and  C_5
REMARK    4  A    between atoms: C_16  and  O_17
REMARK    5  A    between atoms: C_18  and  O_19
REMARK                            x       y       z     vdW  Elec       q    Type
REMARK                         _______ _______ _______ _____ _____    ______ ____
ROOT
ATOM      1  O   UNL     1       3.710   5.385  17.343  0.00  0.00    +0.000 OA
ATOM      2  C   UNL     1       4.042   4.336  17.884  0.00  0.00    +0.000 C 
ATOM      3  N   UNL     1       5.225   3.703  17.596  0.00  0.00    +0.000 N 
ATOM      4  H   UNL     1       5.501   2.914  18.177  0.00  0.00    +0.000 HD
ENDROOT
BRANCH   2   5
ATOM      5  C   UNL     1       3.136   3.705  18.886  0.00  0.00    +0.000 A 
ATOM      6  C   UNL     1       3.713   3.305  20.106  0.00  0.00    +0.000 A 
ATOM      7  C   UNL     1       2.942   2.716  21.114  0.00  0.00    +0.000 A 
ATOM      8  C   UNL     1       1.579   2.512  20.919  0.00  0.00    +0.000 A 
ATOM      9  C   UNL     1       1.004   2.900  19.714  0.00  0.00    +0.000 A 
ATOM     10  C   UNL     1       1.768   3.494  18.702  0.00  0.00    +0.000 A 
BRANCH   9  11
ATOM     11  O   UNL     1      -0.331   2.713  19.467  0.00  0.00    +0.000 OA
ATOM     12  H   UNL     1      -0.463   2.712  18.503  0.00  0.00    +0.000 HD
ENDBRANCH   9  11
BRANCH  10  13
ATOM     13  O   UNL     1       1.119   3.849  17.545  0.00  0.00    +0.000 OA
ATOM     14  H   UNL     1       0.171   3.678  17.733  0.00  0.00    +0.000 HD
ENDBRANCH  10  13
ENDBRANCH   2   5
BRANCH   3  15
ATOM     15  C   UNL     1       6.171   4.279  16.672  0.00  0.00    +0.000 C 
BRANCH  15  16
ATOM     16  C   UNL     1       6.937   5.431  17.272  0.00  0.00    +0.000 A 
ATOM     17  C   UNL     1       6.949   6.685  16.637  0.00  0.00    +0.000 A 
ATOM     18  C   UNL     1       7.597   7.771  17.229  0.00  0.00    +0.000 A 
ATOM     19  C   UNL     1       8.229   7.604  18.456  0.00  0.00    +0.000 A 
ATOM     20  F   UNL     1       8.839   8.649  19.031  0.00  0.00    +0.000 F 
ATOM     21  C   UNL     1       8.229   6.373  19.099  0.00  0.00    +0.000 A 
ATOM     22  C   UNL     1       7.583   5.286  18.508  0.00  0.00    +0.000 A 
ENDBRANCH  15  16
ENDBRANCH   3  15
TORSDOF 5
ENDMDL
MODEL 2
REMARK VINA RESULT:      -7.1      4.254      6.281
REMARK  Name = 
REMARK  5 active torsions:
REMARK  status: ('A' for Active; 'I' for Inactive)
REMARK    1  A    between atoms: C_2  and  C_12
REMARK    2  A    between atoms: N_3  and  C_4
REMARK    3  A    between atoms: C_4  and  C_5
REMARK    4  A    between atoms: C_16  and  O_17
REMARK    5  A    between atoms: C_18  and  O_19
REMARK                            x       y       z     vdW  Elec       q    Type
REMARK                         _______ _______ _______ _____ _____    ______ ____
ROOT
ATOM      1  O   UNL     1       2.554   4.873  17.605  0.00  0.00    +0.000 OA
ATOM      2  C   UNL     1       3.600   5.369  18.009  0.00  0.00    +0.000 C 
ATOM      3  N   UNL     1       3.651   6.181  19.114  0.00  0.00    +0.000 N 
ATOM      4  H   UNL     1       4.565   6.447  19.475  0.00  0.00    +0.000 HD
ENDROOT
BRANCH   2   5
ATOM      5  C   UNL     1       4.873   5.098  17.281  0.00  0.00    +0.000 A 
ATOM      6  C   UNL     1       4.865   5.289  15.887  0.00  0.00    +0.000 A 
ATOM      7  C   UNL     1       6.015   5.074  15.119  0.00  0.00    +0.000 A 
ATOM      8  C   UNL     1       7.194   4.658  15.732  0.00  0.00    +0.000 A 
ATOM      9  C   UNL     1       7.207   4.463  17.108  0.00  0.00    +0.000 A 
ATOM     10  C   UNL     1       6.062   4.681  17.884  0.00  0.00    +0.000 A 
BRANCH   9  11
ATOM     11  O   UNL     1       8.338   4.046  17.759  0.00  0.00    +0.000 OA
ATOM     12  H   UNL     1       8.274   4.329  18.688  0.00  0.00    +0.000 HD
ENDBRANCH   9  11
BRANCH  10  13
ATOM     13  O   UNL     1       6.164   4.465  19.236  0.00  0.00    +0.000 OA
ATOM     14  H   UNL     1       6.355   5.352  19.612  0.00  0.00    +0.000 HD
ENDBRANCH  10  13
ENDBRANCH   2   5
BRANCH   3  15
ATOM     15  C   UNL     1       2.467   6.450  19.894  0.00  0.00    +0.000 C 
BRANCH  15  16
ATOM     16  C   UNL     1       1.889   7.814  19.614  0.00  0.00    +0.000 A 
ATOM     17  C   UNL     1       1.245   8.536  20.633  0.00  0.00    +0.000 A 
ATOM     18  C   UNL     1       0.774   9.829  20.395  0.00  0.00    +0.000 A 
ATOM     19  C   UNL     1       0.949  10.400  19.139  0.00  0.00    +0.000 A 
ATOM     20  F   UNL     1       0.510  11.645  18.913  0.00  0.00    +0.000 F 
ATOM     21  C   UNL     1       1.583   9.703  18.118  0.00  0.00    +0.000 A 
ATOM     22  C   UNL     1       2.053   8.410  18.355  0.00  0.00    +0.000 A 
ENDBRANCH  15  16
ENDBRANCH   3  15
TORSDOF 5
ENDMDL
MODEL 3
REMARK VINA RESULT:      -7.1      5.536      6.594
REMARK  Name = 
REMARK  5 active torsions:
REMARK  status: ('A' for Active; 'I' for Inactive)
REMARK    1  A    between atoms: C_2  and  C_12
REMARK    2  A    between atoms: N_3  and  C_4
REMARK    3  A    between atoms: C_4  and  C_5
REMARK    4  A    between atoms: C_16  and  O_17
REMARK    5  A    between atoms: C_18  and  O_19
REMARK                            x       y       z     vdW  Elec       q    Type
REMARK                         _______ _______ _______ _____ _____    ______ ____
ROOT
ATOM      1  O   UNL     1       2.580   6.597  18.274  0.00  0.00    +0.000 OA
ATOM      2  C   UNL     1       2.416   6.364  19.466  0.00  0.00    +0.000 C 
ATOM      3  N   UNL     1       1.987   7.322  20.350  0.00  0.00    +0.000 N 
ATOM      4  H   UNL     1       1.742   7.030  21.294  0.00  0.00    +0.000 HD
ENDROOT
BRANCH   2   5
ATOM      5  C   UNL     1       2.697   4.999  19.995  0.00  0.00    +0.000 A 
ATOM      6  C   UNL     1       1.830   4.509  20.990  0.00  0.00    +0.000 A 
ATOM      7  C   UNL     1       2.003   3.234  21.538  0.00  0.00    +0.000 A 
ATOM      8  C   UNL     1       3.051   2.425  21.105  0.00  0.00    +0.000 A 
ATOM      9  C   UNL     1       3.914   2.906  20.127  0.00  0.00    +0.000 A 
ATOM     10  C   UNL     1       3.744   4.179  19.570  0.00  0.00    +0.000 A 
BRANCH   9  11
ATOM     11  O   UNL     1       4.965   2.155  19.672  0.00  0.00    +0.000 OA
ATOM     12  H   UNL     1       5.382   1.722  20.438  0.00  0.00    +0.000 HD
ENDBRANCH   9  11
BRANCH  10  13
ATOM     13  O   UNL     1       4.641   4.573  18.607  0.00  0.00    +0.000 OA
ATOM     14  H   UNL     1       4.939   3.735  18.192  0.00  0.00    +0.000 HD
ENDBRANCH  10  13
ENDBRANCH   2   5
BRANCH   3  15
ATOM     15  C   UNL     1       1.653   8.652  19.902  0.00  0.00    +0.000 C 
BRANCH  15  16
ATOM     16  C   UNL     1       0.806   9.402  20.899  0.00  0.00    +0.000 A 
ATOM     17  C   UNL     1       0.037  10.505  20.491  0.00  0.00    +0.000 A 
ATOM     18  C   UNL     1      -0.805  11.154  21.397  0.00  0.00    +0.000 A 
ATOM     19  C   UNL     1      -0.880  10.699  22.708  0.00  0.00    +0.000 A 
ATOM     20  F   UNL     1      -1.697  11.312  23.574  0.00  0.00    +0.000 F 
ATOM     21  C   UNL     1      -0.128   9.610  23.131  0.00  0.00    +0.000 A 
ATOM     22  C   UNL     1       0.715   8.961  22.227  0.00  0.00    +0.000 A 
ENDBRANCH  15  16
ENDBRANCH   3  15
TORSDOF 5
ENDMDL
MODEL 4
REMARK VINA RESULT:      -7.1      1.327      1.814
REMARK  Name = 
REMARK  5 active torsions:
REMARK  status: ('A' for Active; 'I' for Inactive)
REMARK    1  A    between atoms: C_2  and  C_12
REMARK    2  A    between atoms: N_3  and  C_4
REMARK    3  A    between atoms: C_4  and  C_5
REMARK    4  A    between atoms: C_16  and  O_17
REMARK    5  A    between atoms: C_18  and  O_19
REMARK                            x       y       z     vdW  Elec       q    Type
REMARK                         _______ _______ _______ _____ _____    ______ ____
ROOT
ATOM      1  O   UNL     1       3.669   5.437  17.198  0.00  0.00    +0.000 OA
ATOM      2  C   UNL     1       3.949   4.363  17.717  0.00  0.00    +0.000 C 
ATOM      3  N   UNL     1       5.107   3.686  17.426  0.00  0.00    +0.000 N 
ATOM      4  H   UNL     1       5.343   2.872  17.991  0.00  0.00    +0.000 HD
ENDROOT
BRANCH   2   5
ATOM      5  C   UNL     1       3.007   3.749  18.696  0.00  0.00    +0.000 A 
ATOM      6  C   UNL     1       1.653   3.677  18.320  0.00  0.00    +0.000 A 
ATOM      7  C   UNL     1       0.695   3.106  19.165  0.00  0.00    +0.000 A 
ATOM      8  C   UNL     1       1.074   2.599  20.405  0.00  0.00    +0.000 A 
ATOM      9  C   UNL     1       2.409   2.671  20.784  0.00  0.00    +0.000 A 
ATOM     10  C   UNL     1       3.374   3.237  19.942  0.00  0.00    +0.000 A 
BRANCH   9  11
ATOM     11  O   UNL     1       2.834   2.195  21.997  0.00  0.00    +0.000 OA
ATOM     12  H   UNL     1       2.234   1.477  22.267  0.00  0.00    +0.000 HD
ENDBRANCH   9  11
BRANCH  10  13
ATOM     13  O   UNL     1       4.671   3.266  20.395  0.00  0.00    +0.000 OA
ATOM     14  H   UNL     1       4.588   3.303  21.372  0.00  0.00    +0.000 HD
ENDBRANCH  10  13
ENDBRANCH   2   5
BRANCH   3  15
ATOM     15  C   UNL     1       6.086   4.241  16.525  0.00  0.00    +0.000 C 
BRANCH  15  16
ATOM     16  C   UNL     1       6.868   5.371  17.145  0.00  0.00    +0.000 A 
ATOM     17  C   UNL     1       6.894   6.638  16.537  0.00  0.00    +0.000 A 
ATOM     18  C   UNL     1       7.556   7.704  17.149  0.00  0.00    +0.000 A 
ATOM     19  C   UNL     1       8.190   7.504  18.369  0.00  0.00    +0.000 A 
ATOM     20  F   UNL     1       8.815   8.529  18.964  0.00  0.00    +0.000 F 
ATOM     21  C   UNL     1       8.178   6.260  18.987  0.00  0.00    +0.000 A 
ATOM     22  C   UNL     1       7.517   5.193  18.376  0.00  0.00    +0.000 A 
ENDBRANCH  15  16
ENDBRANCH   3  15
TORSDOF 5
ENDMDL
MODEL 5
REMARK VINA RESULT:      -7.0      2.941      3.748
REMARK  Name = 
REMARK  5 active torsions:
REMARK  status: ('A' for Active; 'I' for Inactive)
REMARK    1  A    between atoms: C_2  and  C_12
REMARK    2  A    between atoms: N_3  and  C_4
REMARK    3  A    between atoms: C_4  and  C_5
REMARK    4  A    between atoms: C_16  and  O_17
REMARK    5  A    between atoms: C_18  and  O_19
REMARK                            x       y       z     vdW  Elec       q    Type
REMARK                         _______ _______ _______ _____ _____    ______ ____
ROOT
ATOM      1  O   UNL     1       3.460   6.856  17.929  0.00  0.00    +0.000 OA
ATOM      2  C   UNL     1       3.593   5.637  17.917  0.00  0.00    +0.000 C 
ATOM      3  N   UNL     1       4.605   5.015  17.229  0.00  0.00    +0.000 N 
ATOM      4  H   UNL     1       4.740   4.016  17.371  0.00  0.00    +0.000 HD
ENDROOT
BRANCH   2   5
ATOM      5  C   UNL     1       2.626   4.782  18.664  0.00  0.00    +0.000 A 
ATOM      6  C   UNL     1       2.368   5.131  20.003  0.00  0.00    +0.000 A 
ATOM      7  C   UNL     1       1.466   4.397  20.781  0.00  0.00    +0.000 A 
ATOM      8  C   UNL     1       0.808   3.298  20.236  0.00  0.00    +0.000 A 
ATOM      9  C   UNL     1       1.063   2.946  18.915  0.00  0.00    +0.000 A 
ATOM     10  C   UNL     1       1.961   3.678  18.129  0.00  0.00    +0.000 A 
BRANCH   9  11
ATOM     11  O   UNL     1       0.450   1.868  18.333  0.00  0.00    +0.000 OA
ATOM     12  H   UNL     1      -0.464   1.823  18.667  0.00  0.00    +0.000 HD
ENDBRANCH   9  11
BRANCH  10  13
ATOM     13  O   UNL     1       2.152   3.261  16.834  0.00  0.00    +0.000 OA
ATOM     14  H   UNL     1       1.640   3.901  16.293  0.00  0.00    +0.000 HD
ENDBRANCH  10  13
ENDBRANCH   2   5
BRANCH   3  15
ATOM     15  C   UNL     1       5.603   5.780  16.522  0.00  0.00    +0.000 C 
BRANCH  15  16
ATOM     16  C   UNL     1       5.966   5.167  15.193  0.00  0.00    +0.000 A 
ATOM     17  C   UNL     1       7.203   5.454  14.591  0.00  0.00    +0.000 A 
ATOM     18  C   UNL     1       7.571   4.831  13.397  0.00  0.00    +0.000 A 
ATOM     19  C   UNL     1       6.704   3.917  12.808  0.00  0.00    +0.000 A 
ATOM     20  F   UNL     1       7.062   3.308  11.670  0.00  0.00    +0.000 F 
ATOM     21  C   UNL     1       5.477   3.619  13.386  0.00  0.00    +0.000 A 
ATOM     22  C   UNL     1       5.107   4.243  14.579  0.00  0.00    +0.000 A 
ENDBRANCH  15  16
ENDBRANCH   3  15
TORSDOF 5
ENDMDL
MODEL 6
REMARK VINA RESULT:      -7.0      6.300      7.558
REMARK  Name = 
REMARK  5 active torsions:
REMARK  status: ('A' for Active; 'I' for Inactive)
REMARK    1  A    between atoms: C_2  and  C_12
REMARK    2  A    between atoms: N_3  and  C_4
REMARK    3  A    between atoms: C_4  and  C_5
REMARK    4  A    between atoms: C_16  and  O_17
REMARK    5  A    between atoms: C_18  and  O_19
REMARK                            x       y       z     vdW  Elec       q    Type
REMARK                         _______ _______ _______ _____ _____    ______ ____
ROOT
ATOM      1  O   UNL     1       1.274   9.177  18.801  0.00  0.00    +0.000 OA
ATOM      2  C   UNL     1       1.223   8.822  19.973  0.00  0.00    +0.000 C 
ATOM      3  N   UNL     1       1.881   7.709  20.433  0.00  0.00    +0.000 N 
ATOM      4  H   UNL     1       1.909   7.548  21.438  0.00  0.00    +0.000 HD
ENDROOT
BRANCH   2   5
ATOM      5  C   UNL     1       0.416   9.611  20.948  0.00  0.00    +0.000 A 
ATOM      6  C   UNL     1       0.304   9.093  22.252  0.00  0.00    +0.000 A 
ATOM      7  C   UNL     1      -0.420   9.767  23.240  0.00  0.00    +0.000 A 
ATOM      8  C   UNL     1      -1.051  10.972  22.942  0.00  0.00    +0.000 A 
ATOM      9  C   UNL     1      -0.948  11.487  21.654  0.00  0.00    +0.000 A 
ATOM     10  C   UNL     1      -0.221  10.820  20.661  0.00  0.00    +0.000 A 
BRANCH   9  11
ATOM     11  O   UNL     1      -1.556  12.663  21.306  0.00  0.00    +0.000 OA
ATOM     12  H   UNL     1      -2.519  12.541  21.382  0.00  0.00    +0.000 HD
ENDBRANCH   9  11
BRANCH  10  13
ATOM     13  O   UNL     1      -0.170  11.400  19.417  0.00  0.00    +0.000 OA
ATOM     14  H   UNL     1       0.454  12.151  19.523  0.00  0.00    +0.000 HD
ENDBRANCH  10  13
ENDBRANCH   2   5
BRANCH   3  15
ATOM     15  C   UNL     1       2.716   6.924  19.558  0.00  0.00    +0.000 C 
BRANCH  15  16
ATOM     16  C   UNL     1       2.171   5.537  19.328  0.00  0.00    +0.000 A 
ATOM     17  C   UNL     1       1.587   4.818  20.385  0.00  0.00    +0.000 A 
ATOM     18  C   UNL     1       1.015   3.565  20.157  0.00  0.00    +0.000 A 
ATOM     19  C   UNL     1       1.024   3.033  18.873  0.00  0.00    +0.000 A 
ATOM     20  F   UNL     1       0.464   1.836  18.650  0.00  0.00    +0.000 F 
ATOM     21  C   UNL     1       1.597   3.727  17.814  0.00  0.00    +0.000 A 
ATOM     22  C   UNL     1       2.170   4.980  18.041  0.00  0.00    +0.000 A 
ENDBRANCH  15  16
ENDBRANCH   3  15
TORSDOF 5
ENDMDL
MODEL 7
REMARK VINA RESULT:      -7.0      2.946      3.712
REMARK  Name = 
REMARK  5 active torsions:
REMARK  status: ('A' for Active; 'I' for Inactive)
REMARK    1  A    between atoms: C_2  and  C_12
REMARK    2  A    between atoms: N_3  and  C_4
REMARK    3  A    between atoms: C_4  and  C_5
REMARK    4  A    between atoms: C_16  and  O_17
REMARK    5  A    between atoms: C_18  and  O_19
REMARK                            x       y       z     vdW  Elec       q    Type
REMARK                         _______ _______ _______ _____ _____    ______ ____
ROOT
ATOM      1  O   UNL     1       3.479   6.783  18.192  0.00  0.00    +0.000 OA
ATOM      2  C   UNL     1       3.554   5.571  18.028  0.00  0.00    +0.000 C 
ATOM      3  N   UNL     1       4.456   4.999  17.165  0.00  0.00    +0.000 N 
ATOM      4  H   UNL     1       4.559   3.987  17.179  0.00  0.00    +0.000 HD
ENDROOT
BRANCH   2   5
ATOM      5  C   UNL     1       2.633   4.667  18.777  0.00  0.00    +0.000 A 
ATOM      6  C   UNL     1       2.471   4.920  20.152  0.00  0.00    +0.000 A 
ATOM      7  C   UNL     1       1.618   4.135  20.937  0.00  0.00    +0.000 A 
ATOM      8  C   UNL     1       0.916   3.080  20.361  0.00  0.00    +0.000 A 
ATOM      9  C   UNL     1       1.076   2.823  19.004  0.00  0.00    +0.000 A 
ATOM     10  C   UNL     1       1.924   3.606  18.211  0.00  0.00    +0.000 A 
BRANCH   9  11
ATOM     11  O   UNL     1       0.416   1.792  18.390  0.00  0.00    +0.000 OA
ATOM     12  H   UNL     1      -0.243   2.174  17.783  0.00  0.00    +0.000 HD
ENDBRANCH   9  11
BRANCH  10  13
ATOM     13  O   UNL     1       2.022   3.284  16.880  0.00  0.00    +0.000 OA
ATOM     14  H   UNL     1       1.694   4.081  16.410  0.00  0.00    +0.000 HD
ENDBRANCH  10  13
ENDBRANCH   2   5
BRANCH   3  15
ATOM     15  C   UNL     1       5.407   5.807  16.443  0.00  0.00    +0.000 C 
BRANCH  15  16
ATOM     16  C   UNL     1       5.904   5.131  15.190  0.00  0.00    +0.000 A 
ATOM     17  C   UNL     1       5.064   4.269  14.464  0.00  0.00    +0.000 A 
ATOM     18  C   UNL     1       5.498   3.701  13.265  0.00  0.00    +0.000 A 
ATOM     19  C   UNL     1       6.771   3.997  12.790  0.00  0.00    +0.000 A 
ATOM     20  F   UNL     1       7.184   3.464  11.632  0.00  0.00    +0.000 F 
ATOM     21  C   UNL     1       7.617   4.846  13.492  0.00  0.00    +0.000 A 
ATOM     22  C   UNL     1       7.185   5.414  14.691  0.00  0.00    +0.000 A 
ENDBRANCH  15  16
ENDBRANCH   3  15
TORSDOF 5
ENDMDL
MODEL 8
REMARK VINA RESULT:      -7.0      5.450      6.614
REMARK  Name = 
REMARK  5 active torsions:
REMARK  status: ('A' for Active; 'I' for Inactive)
REMARK    1  A    between atoms: C_2  and  C_12
REMARK    2  A    between atoms: N_3  and  C_4
REMARK    3  A    between atoms: C_4  and  C_5
REMARK    4  A    between atoms: C_16  and  O_17
REMARK    5  A    between atoms: C_18  and  O_19
REMARK                            x       y       z     vdW  Elec       q    Type
REMARK                         _______ _______ _______ _____ _____    ______ ____
ROOT
ATOM      1  O   UNL     1       2.233   6.295  18.239  0.00  0.00    +0.000 OA
ATOM      2  C   UNL     1       2.267   6.149  19.456  0.00  0.00    +0.000 C 
ATOM      3  N   UNL     1       2.018   7.179  20.328  0.00  0.00    +0.000 N 
ATOM      4  H   UNL     1       1.928   6.960  21.318  0.00  0.00    +0.000 HD
ENDROOT
BRANCH   2   5
ATOM      5  C   UNL     1       2.597   4.812  20.028  0.00  0.00    +0.000 A 
ATOM      6  C   UNL     1       1.742   4.317  21.030  0.00  0.00    +0.000 A 
ATOM      7  C   UNL     1       1.961   3.067  21.618  0.00  0.00    +0.000 A 
ATOM      8  C   UNL     1       3.044   2.289  21.217  0.00  0.00    +0.000 A 
ATOM      9  C   UNL     1       3.896   2.774  20.232  0.00  0.00    +0.000 A 
ATOM     10  C   UNL     1       3.680   4.023  19.635  0.00  0.00    +0.000 A 
BRANCH   9  11
ATOM     11  O   UNL     1       4.981   2.054  19.808  0.00  0.00    +0.000 OA
ATOM     12  H   UNL     1       5.755   2.645  19.806  0.00  0.00    +0.000 HD
ENDBRANCH   9  11
BRANCH  10  13
ATOM     13  O   UNL     1       4.569   4.424  18.669  0.00  0.00    +0.000 OA
ATOM     14  H   UNL     1       4.004   4.776  17.947  0.00  0.00    +0.000 HD
ENDBRANCH  10  13
ENDBRANCH   2   5
BRANCH   3  15
ATOM     15  C   UNL     1       1.648   8.487  19.847  0.00  0.00    +0.000 C 
BRANCH  15  16
ATOM     16  C   UNL     1       0.753   9.225  20.810  0.00  0.00    +0.000 A 
ATOM     17  C   UNL     1       0.708   8.855  22.165  0.00  0.00    +0.000 A 
ATOM     18  C   UNL     1      -0.064   9.584  23.072  0.00  0.00    +0.000 A 
ATOM     19  C   UNL     1      -0.788  10.683  22.625  0.00  0.00    +0.000 A 
ATOM     20  F   UNL     1      -1.519  11.392  23.496  0.00  0.00    +0.000 F 
ATOM     21  C   UNL     1      -0.758  11.065  21.289  0.00  0.00    +0.000 A 
ATOM     22  C   UNL     1       0.012  10.336  20.381  0.00  0.00    +0.000 A 
ENDBRANCH  15  16
ENDBRANCH   3  15
TORSDOF 5
ENDMDL
MODEL 9
REMARK VINA RESULT:      -7.0      2.875      3.655
REMARK  Name = 
REMARK  5 active torsions:
REMARK  status: ('A' for Active; 'I' for Inactive)
REMARK    1  A    between atoms: C_2  and  C_12
REMARK    2  A    between atoms: N_3  and  C_4
REMARK    3  A    between atoms: C_4  and  C_5
REMARK    4  A    between atoms: C_16  and  O_17
REMARK    5  A    between atoms: C_18  and  O_19
REMARK                            x       y       z     vdW  Elec       q    Type
REMARK                         _______ _______ _______ _____ _____    ______ ____
ROOT
ATOM      1  O   UNL     1       5.600   3.680  19.610  0.00  0.00    +0.000 OA
ATOM      2  C   UNL     1       4.697   4.010  18.849  0.00  0.00    +0.000 C 
ATOM      3  N   UNL     1       4.939   4.615  17.641  0.00  0.00    +0.000 N 
ATOM      4  H   UNL     1       4.157   4.738  17.001  0.00  0.00    +0.000 HD
ENDROOT
BRANCH   2   5
ATOM      5  C   UNL     1       3.279   3.762  19.236  0.00  0.00    +0.000 A 
ATOM      6  C   UNL     1       2.774   4.501  20.322  0.00  0.00    +0.000 A 
ATOM      7  C   UNL     1       1.451   4.347  20.752  0.00  0.00    +0.000 A 
ATOM      8  C   UNL     1       0.609   3.447  20.104  0.00  0.00    +0.000 A 
ATOM      9  C   UNL     1       1.103   2.711  19.034  0.00  0.00    +0.000 A 
ATOM     10  C   UNL     1       2.424   2.862  18.595  0.00  0.00    +0.000 A 
BRANCH   9  11
ATOM     11  O   UNL     1       0.319   1.806  18.368  0.00  0.00    +0.000 OA
ATOM     12  H   UNL     1       0.559   0.914  18.675  0.00  0.00    +0.000 HD
ENDBRANCH   9  11
BRANCH  10  13
ATOM     13  O   UNL     1       2.829   2.097  17.530  0.00  0.00    +0.000 OA
ATOM     14  H   UNL     1       2.765   2.699  16.757  0.00  0.00    +0.000 HD
ENDBRANCH  10  13
ENDBRANCH   2   5
BRANCH   3  15
ATOM     15  C   UNL     1       6.286   4.845  17.181  0.00  0.00    +0.000 C 
BRANCH  15  16
ATOM     16  C   UNL     1       6.444   4.590  15.704  0.00  0.00    +0.000 A 
ATOM     17  C   UNL     1       5.487   3.833  15.006  0.00  0.00    +0.000 A 
ATOM     18  C   UNL     1       5.593   3.657  13.625  0.00  0.00    +0.000 A 
ATOM     19  C   UNL     1       6.653   4.241  12.941  0.00  0.00    +0.000 A 
ATOM     20  F   UNL     1       6.748   4.085  11.614  0.00  0.00    +0.000 F 
ATOM     21  C   UNL     1       7.610   4.993  13.611  0.00  0.00    +0.000 A 
ATOM     22  C   UNL     1       7.505   5.168  14.993  0.00  0.00    +0.000 A 
ENDBRANCH  15  16
ENDBRANCH   3  15
TORSDOF 5
ENDMDL
