MODEL 1
REMARK VINA RESULT:      -8.6      0.000      0.000
REMARK  Name = 
REMARK  6 active torsions:
REMARK  status: ('A' for Active; 'I' for Inactive)
REMARK    1  A    between atoms: C_1  and  O_2
REMARK    2  A    between atoms: O_2  and  C_3
REMARK    3  A    between atoms: C_3  and  C_5
REMARK    4  A    between atoms: C_8  and  N_9
REMARK    5  A    between atoms: C_10  and  C_12
REMARK    6  A    between atoms: C_12  and  N_13
REMARK                            x       y       z     vdW  Elec       q    Type
REMARK                         _______ _______ _______ _____ _____    ______ ____
ROOT
ATOM      1  N   UNL     1       0.650  10.307  20.528  0.00  0.00    +0.000 N 
ATOM      2  N   UNL     1       0.795   9.119  21.232  0.00  0.00    +0.000 NA
ATOM      3  C   UNL     1       1.323   8.309  20.358  0.00  0.00    +0.000 A 
ATOM      4  N   UNL     1       1.659   7.017  20.625  0.00  0.00    +0.000 NA
ATOM      5  C   UNL     1       2.298   6.345  19.694  0.00  0.00    +0.000 A 
ATOM      6  N   UNL     1       2.671   5.022  19.935  0.00  0.00    +0.000 N 
ATOM      7  C   UNL     1       3.853   4.429  19.316  0.00  0.00    +0.000 C 
ATOM      8  C   UNL     1       3.451   3.635  18.076  0.00  0.00    +0.000 C 
ATOM      9  C   UNL     1       2.813   2.284  18.384  0.00  0.00    +0.000 C 
ATOM     10  C   UNL     1       1.616   2.335  19.337  0.00  0.00    +0.000 C 
ATOM     11  C   UNL     1       2.000   2.743  20.761  0.00  0.00    +0.000 C 
ATOM     12  C   UNL     1       2.020   4.257  21.005  0.00  0.00    +0.000 C 
ATOM     13  C   UNL     1       2.617   6.975  18.357  0.00  0.00    +0.000 A 
ATOM     14  C   UNL     1       2.205   8.224  18.145  0.00  0.00    +0.000 A 
ATOM     15  N   UNL     1       1.561   8.865  19.147  0.00  0.00    +0.000 N 
ATOM     16  C   UNL     1       1.146  10.166  19.225  0.00  0.00    +0.000 A 
ATOM     17  O   UNL     1       1.232  11.029  18.366  0.00  0.00    +0.000 OA
ENDROOT
BRANCH   1  18
ATOM     18  C   UNL     1       0.339  11.576  21.143  0.00  0.00    +0.000 C 
BRANCH  18  20
ATOM     19  N   UNL     1      -1.907  12.455  21.582  0.00  0.00    +0.000 N 
ATOM     20  C   UNL     1      -0.946  11.535  21.974  0.00  0.00    +0.000 C 
ATOM     21  O   UNL     1      -1.002  10.821  22.974  0.00  0.00    +0.000 OA
ATOM     22  H   UNL     1      -1.650  13.026  20.775  0.00  0.00    +0.000 HD
BRANCH  19  26
ATOM     23  C   UNL     1      -5.754  13.114  23.224  0.00  0.00    +0.000 A 
ATOM     24  C   UNL     1      -4.631  13.145  24.053  0.00  0.00    +0.000 A 
ATOM     25  C   UNL     1      -3.352  12.929  23.527  0.00  0.00    +0.000 A 
ATOM     26  C   UNL     1      -3.170  12.681  22.164  0.00  0.00    +0.000 A 
ATOM     27  C   UNL     1      -4.297  12.648  21.333  0.00  0.00    +0.000 A 
ATOM     28  C   UNL     1      -5.582  12.862  21.857  0.00  0.00    +0.000 A 
BRANCH  23  29
ATOM     29  C   UNL     1      -7.083  13.362  23.847  0.00  0.00    +0.000 C 
ATOM     30  O   UNL     1      -7.915  12.491  24.032  0.00  0.00    +0.000 OA
BRANCH  29  32
ATOM     31  C   UNL     1      -7.912  15.441  23.184  0.00  0.00    +0.000 C 
ATOM     32  O   UNL     1      -7.224  14.672  24.173  0.00  0.00    +0.000 OA
ENDBRANCH  29  32
ENDBRANCH  23  29
ENDBRANCH  19  26
ENDBRANCH  18  20
ENDBRANCH   1  18
TORSDOF 5
ENDMDL
MODEL 2
REMARK VINA RESULT:      -8.4      1.102      1.383
REMARK  Name = 
REMARK  6 active torsions:
REMARK  status: ('A' for Active; 'I' for Inactive)
REMARK    1  A    between atoms: C_1  and  O_2
REMARK    2  A    between atoms: O_2  and  C_3
REMARK    3  A    between atoms: C_3  and  C_5
REMARK    4  A    between atoms: C_8  and  N_9
REMARK    5  A    between atoms: C_10  and  C_12
REMARK    6  A    between atoms: C_12  and  N_13
REMARK                            x       y       z     vdW  Elec       q    Type
REMARK                         _______ _______ _______ _____ _____    ______ ____
ROOT
ATOM      1  N   UNL     1       1.143  10.146  19.543  0.00  0.00    +0.000 N 
ATOM      2  N   UNL     1       1.110   9.041  20.384  0.00  0.00    +0.000 NA
ATOM      3  C   UNL     1       1.724   8.118  19.698  0.00  0.00    +0.000 A 
ATOM      4  N   UNL     1       1.944   6.854  20.153  0.00  0.00    +0.000 NA
ATOM      5  C   UNL     1       2.683   6.057  19.415  0.00  0.00    +0.000 A 
ATOM      6  N   UNL     1       2.941   4.758  19.854  0.00  0.00    +0.000 N 
ATOM      7  C   UNL     1       4.173   4.055  19.502  0.00  0.00    +0.000 C 
ATOM      8  C   UNL     1       3.928   3.141  18.306  0.00  0.00    +0.000 C 
ATOM      9  C   UNL     1       3.177   1.858  18.648  0.00  0.00    +0.000 C 
ATOM     10  C   UNL     1       1.850   2.061  19.383  0.00  0.00    +0.000 C 
ATOM     11  C   UNL     1       2.026   2.614  20.798  0.00  0.00    +0.000 C 
ATOM     12  C   UNL     1       2.090   4.144  20.879  0.00  0.00    +0.000 C 
ATOM     13  C   UNL     1       3.243   6.518  18.089  0.00  0.00    +0.000 A 
ATOM     14  C   UNL     1       2.938   7.749  17.680  0.00  0.00    +0.000 A 
ATOM     15  N   UNL     1       2.180   8.524  18.490  0.00  0.00    +0.000 N 
ATOM     16  C   UNL     1       1.829   9.839  18.360  0.00  0.00    +0.000 A 
ATOM     17  O   UNL     1       2.096  10.595  17.439  0.00  0.00    +0.000 OA
ENDROOT
BRANCH   1  18
ATOM     18  C   UNL     1       0.808  11.487  19.959  0.00  0.00    +0.000 C 
BRANCH  18  20
ATOM     19  N   UNL     1      -0.978  12.276  21.443  0.00  0.00    +0.000 N 
ATOM     20  C   UNL     1      -0.688  11.670  20.229  0.00  0.00    +0.000 C 
ATOM     21  O   UNL     1      -1.510  11.176  19.460  0.00  0.00    +0.000 OA
ATOM     22  H   UNL     1      -0.160  12.546  21.993  0.00  0.00    +0.000 HD
BRANCH  19  26
ATOM     23  C   UNL     1      -4.761  13.049  23.180  0.00  0.00    +0.000 A 
ATOM     24  C   UNL     1      -4.486  13.497  21.886  0.00  0.00    +0.000 A 
ATOM     25  C   UNL     1      -3.241  13.250  21.297  0.00  0.00    +0.000 A 
ATOM     26  C   UNL     1      -2.248  12.550  21.986  0.00  0.00    +0.000 A 
ATOM     27  C   UNL     1      -2.523  12.103  23.285  0.00  0.00    +0.000 A 
ATOM     28  C   UNL     1      -3.770  12.350  23.881  0.00  0.00    +0.000 A 
BRANCH  23  29
ATOM     29  C   UNL     1      -6.108  13.337  23.742  0.00  0.00    +0.000 C 
ATOM     30  O   UNL     1      -6.830  12.488  24.238  0.00  0.00    +0.000 OA
BRANCH  29  32
ATOM     31  C   UNL     1      -7.805  14.939  23.677  0.00  0.00    +0.000 C 
ATOM     32  O   UNL     1      -6.405  14.657  23.626  0.00  0.00    +0.000 OA
ENDBRANCH  29  32
ENDBRANCH  23  29
ENDBRANCH  19  26
ENDBRANCH  18  20
ENDBRANCH   1  18
TORSDOF 5
ENDMDL
MODEL 3
REMARK VINA RESULT:      -8.3      2.825     10.616
REMARK  Name = 
REMARK  6 active torsions:
REMARK  status: ('A' for Active; 'I' for Inactive)
REMARK    1  A    between atoms: C_1  and  O_2
REMARK    2  A    between atoms: O_2  and  C_3
REMARK    3  A    between atoms: C_3  and  C_5
REMARK    4  A    between atoms: C_8  and  N_9
REMARK    5  A    between atoms: C_10  and  C_12
REMARK    6  A    between atoms: C_12  and  N_13
REMARK                            x       y       z     vdW  Elec       q    Type
REMARK                         _______ _______ _______ _____ _____    ______ ____
ROOT
ATOM      1  N   UNL     1       0.220  11.071  19.994  0.00  0.00    +0.000 N 
ATOM      2  N   UNL     1      -0.943  11.706  19.575  0.00  0.00    +0.000 NA
ATOM      3  C   UNL     1      -1.636  11.826  20.673  0.00  0.00    +0.000 A 
ATOM      4  N   UNL     1      -2.859  12.420  20.737  0.00  0.00    +0.000 NA
ATOM      5  C   UNL     1      -3.397  12.589  21.924  0.00  0.00    +0.000 A 
ATOM      6  N   UNL     1      -4.645  13.205  22.031  0.00  0.00    +0.000 N 
ATOM      7  C   UNL     1      -5.020  13.985  23.208  0.00  0.00    +0.000 C 
ATOM      8  C   UNL     1      -5.844  13.126  24.162  0.00  0.00    +0.000 C 
ATOM      9  C   UNL     1      -7.289  12.914  23.718  0.00  0.00    +0.000 C 
ATOM     10  C   UNL     1      -7.456  12.362  22.301  0.00  0.00    +0.000 C 
ATOM     11  C   UNL     1      -7.020  13.349  21.216  0.00  0.00    +0.000 C 
ATOM     12  C   UNL     1      -5.529  13.287  20.863  0.00  0.00    +0.000 C 
ATOM     13  C   UNL     1      -2.696  12.108  23.173  0.00  0.00    +0.000 A 
ATOM     14  C   UNL     1      -1.528  11.483  23.029  0.00  0.00    +0.000 A 
ATOM     15  N   UNL     1      -1.023  11.349  21.781  0.00  0.00    +0.000 N 
ATOM     16  C   UNL     1       0.189  10.860  21.380  0.00  0.00    +0.000 A 
ATOM     17  O   UNL     1       1.072  10.388  22.078  0.00  0.00    +0.000 OA
ENDROOT
BRANCH   1  18
ATOM     18  C   UNL     1       1.406  10.943  19.182  0.00  0.00    +0.000 C 
BRANCH  18  20
ATOM     19  N   UNL     1       1.800   8.555  19.571  0.00  0.00    +0.000 N 
ATOM     20  C   UNL     1       1.589   9.534  18.612  0.00  0.00    +0.000 C 
ATOM     21  O   UNL     1       1.669   9.375  17.395  0.00  0.00    +0.000 OA
ATOM     22  H   UNL     1       1.782   8.889  20.536  0.00  0.00    +0.000 HD
BRANCH  19  26
ATOM     23  C   UNL     1       2.443   4.402  19.050  0.00  0.00    +0.000 A 
ATOM     24  C   UNL     1       2.799   5.293  18.035  0.00  0.00    +0.000 A 
ATOM     25  C   UNL     1       2.593   6.668  18.191  0.00  0.00    +0.000 A 
ATOM     26  C   UNL     1       2.031   7.181  19.362  0.00  0.00    +0.000 A 
ATOM     27  C   UNL     1       1.671   6.287  20.379  0.00  0.00    +0.000 A 
ATOM     28  C   UNL     1       1.873   4.906  20.227  0.00  0.00    +0.000 A 
BRANCH  23  29
ATOM     29  C   UNL     1       2.697   2.953  18.823  0.00  0.00    +0.000 C 
ATOM     30  O   UNL     1       2.570   2.406  17.741  0.00  0.00    +0.000 OA
BRANCH  29  32
ATOM     31  C   UNL     1       4.504   2.219  20.105  0.00  0.00    +0.000 C 
ATOM     32  O   UNL     1       3.087   2.348  19.974  0.00  0.00    +0.000 OA
ENDBRANCH  29  32
ENDBRANCH  23  29
ENDBRANCH  19  26
ENDBRANCH  18  20
ENDBRANCH   1  18
TORSDOF 5
ENDMDL
MODEL 4
REMARK VINA RESULT:      -8.2      3.024     10.329
REMARK  Name = 
REMARK  6 active torsions:
REMARK  status: ('A' for Active; 'I' for Inactive)
REMARK    1  A    between atoms: C_1  and  O_2
REMARK    2  A    between atoms: O_2  and  C_3
REMARK    3  A    between atoms: C_3  and  C_5
REMARK    4  A    between atoms: C_8  and  N_9
REMARK    5  A    between atoms: C_10  and  C_12
REMARK    6  A    between atoms: C_12  and  N_13
REMARK                            x       y       z     vdW  Elec       q    Type
REMARK                         _______ _______ _______ _____ _____    ______ ____
ROOT
ATOM      1  N   UNL     1       0.458  10.809  19.013  0.00  0.00    +0.000 N 
ATOM      2  N   UNL     1      -0.761  10.853  18.348  0.00  0.00    +0.000 NA
ATOM      3  C   UNL     1      -1.564  11.395  19.220  0.00  0.00    +0.000 A 
ATOM      4  N   UNL     1      -2.879  11.653  18.983  0.00  0.00    +0.000 NA
ATOM      5  C   UNL     1      -3.549  12.315  19.900  0.00  0.00    +0.000 A 
ATOM      6  N   UNL     1      -4.897  12.609  19.688  0.00  0.00    +0.000 N 
ATOM      7  C   UNL     1      -5.525  13.798  20.258  0.00  0.00    +0.000 C 
ATOM      8  C   UNL     1      -6.253  13.436  21.549  0.00  0.00    +0.000 C 
ATOM      9  C   UNL     1      -7.581  12.717  21.333  0.00  0.00    +0.000 C 
ATOM     10  C   UNL     1      -7.505  11.467  20.452  0.00  0.00    +0.000 C 
ATOM     11  C   UNL     1      -7.168  11.781  18.992  0.00  0.00    +0.000 C 
ATOM     12  C   UNL     1      -5.666  11.858  18.689  0.00  0.00    +0.000 C 
ATOM     13  C   UNL     1      -2.889  12.745  21.189  0.00  0.00    +0.000 A 
ATOM     14  C   UNL     1      -1.614  12.407  21.378  0.00  0.00    +0.000 A 
ATOM     15  N   UNL     1      -0.977  11.733  20.391  0.00  0.00    +0.000 N 
ATOM     16  C   UNL     1       0.339  11.377  20.289  0.00  0.00    +0.000 A 
ATOM     17  O   UNL     1       1.227  11.556  21.107  0.00  0.00    +0.000 OA
ENDROOT
BRANCH   1  18
ATOM     18  C   UNL     1       1.718  10.520  18.369  0.00  0.00    +0.000 C 
BRANCH  18  20
ATOM     19  N   UNL     1       2.013   8.354  19.479  0.00  0.00    +0.000 N 
ATOM     20  C   UNL     1       2.001   9.020  18.262  0.00  0.00    +0.000 C 
ATOM     21  O   UNL     1       2.319   8.537  17.177  0.00  0.00    +0.000 OA
ATOM     22  H   UNL     1       1.808   8.940  20.290  0.00  0.00    +0.000 HD
BRANCH  19  26
ATOM     23  C   UNL     1       2.696   4.246  20.243  0.00  0.00    +0.000 A 
ATOM     24  C   UNL     1       3.551   4.944  19.387  0.00  0.00    +0.000 A 
ATOM     25  C   UNL     1       3.339   6.302  19.123  0.00  0.00    +0.000 A 
ATOM     26  C   UNL     1       2.274   6.989  19.710  0.00  0.00    +0.000 A 
ATOM     27  C   UNL     1       1.416   6.288  20.567  0.00  0.00    +0.000 A 
ATOM     28  C   UNL     1       1.622   4.925  20.833  0.00  0.00    +0.000 A 
BRANCH  23  29
ATOM     29  C   UNL     1       2.983   2.806  20.487  0.00  0.00    +0.000 C 
ATOM     30  O   UNL     1       3.259   2.348  21.583  0.00  0.00    +0.000 OA
BRANCH  29  32
ATOM     31  C   UNL     1       1.562   2.004  18.818  0.00  0.00    +0.000 C 
ATOM     32  O   UNL     1       2.892   2.095  19.333  0.00  0.00    +0.000 OA
ENDBRANCH  29  32
ENDBRANCH  23  29
ENDBRANCH  19  26
ENDBRANCH  18  20
ENDBRANCH   1  18
TORSDOF 5
ENDMDL
MODEL 5
REMARK VINA RESULT:      -8.2      2.674      3.148
REMARK  Name = 
REMARK  6 active torsions:
REMARK  status: ('A' for Active; 'I' for Inactive)
REMARK    1  A    between atoms: C_1  and  O_2
REMARK    2  A    between atoms: O_2  and  C_3
REMARK    3  A    between atoms: C_3  and  C_5
REMARK    4  A    between atoms: C_8  and  N_9
REMARK    5  A    between atoms: C_10  and  C_12
REMARK    6  A    between atoms: C_12  and  N_13
REMARK                            x       y       z     vdW  Elec       q    Type
REMARK                         _______ _______ _______ _____ _____    ______ ____
ROOT
ATOM      1  N   UNL     1       1.336  10.651  19.639  0.00  0.00    +0.000 N 
ATOM      2  N   UNL     1       1.131   9.518  20.416  0.00  0.00    +0.000 NA
ATOM      3  C   UNL     1       1.628   8.556  19.689  0.00  0.00    +0.000 A 
ATOM      4  N   UNL     1       1.660   7.252  20.075  0.00  0.00    +0.000 NA
ATOM      5  C   UNL     1       2.300   6.400  19.305  0.00  0.00    +0.000 A 
ATOM      6  N   UNL     1       2.365   5.056  19.674  0.00  0.00    +0.000 N 
ATOM      7  C   UNL     1       3.496   4.209  19.303  0.00  0.00    +0.000 C 
ATOM      8  C   UNL     1       3.156   3.403  18.053  0.00  0.00    +0.000 C 
ATOM      9  C   UNL     1       2.227   2.220  18.310  0.00  0.00    +0.000 C 
ATOM     10  C   UNL     1       0.924   2.566  19.033  0.00  0.00    +0.000 C 
ATOM     11  C   UNL     1       1.140   3.013  20.481  0.00  0.00    +0.000 C 
ATOM     12  C   UNL     1       1.413   4.512  20.649  0.00  0.00    +0.000 C 
ATOM     13  C   UNL     1       2.949   6.850  18.017  0.00  0.00    +0.000 A 
ATOM     14  C   UNL     1       2.827   8.131  17.673  0.00  0.00    +0.000 A 
ATOM     15  N   UNL     1       2.164   8.959  18.513  0.00  0.00    +0.000 N 
ATOM     16  C   UNL     1       2.002  10.315  18.452  0.00  0.00    +0.000 A 
ATOM     17  O   UNL     1       2.392  11.076  17.580  0.00  0.00    +0.000 OA
ENDROOT
BRANCH   1  18
ATOM     18  C   UNL     1       1.180  12.002  20.125  0.00  0.00    +0.000 C 
BRANCH  18  20
ATOM     19  N   UNL     1      -1.165  11.618  19.520  0.00  0.00    +0.000 N 
ATOM     20  C   UNL     1      -0.216  12.571  19.861  0.00  0.00    +0.000 C 
ATOM     21  O   UNL     1      -0.382  13.789  19.835  0.00  0.00    +0.000 OA
ATOM     22  H   UNL     1      -0.822  10.656  19.512  0.00  0.00    +0.000 HD
BRANCH  19  26
ATOM     23  C   UNL     1      -5.245  12.320  18.632  0.00  0.00    +0.000 A 
ATOM     24  C   UNL     1      -4.448  11.616  17.727  0.00  0.00    +0.000 A 
ATOM     25  C   UNL     1      -3.098  11.376  18.004  0.00  0.00    +0.000 A 
ATOM     26  C   UNL     1      -2.518  11.830  19.191  0.00  0.00    +0.000 A 
ATOM     27  C   UNL     1      -3.317  12.538  20.098  0.00  0.00    +0.000 A 
ATOM     28  C   UNL     1      -4.671  12.784  19.823  0.00  0.00    +0.000 A 
BRANCH  23  29
ATOM     29  C   UNL     1      -6.675  12.533  18.279  0.00  0.00    +0.000 C 
ATOM     30  O   UNL     1      -7.486  11.629  18.169  0.00  0.00    +0.000 OA
BRANCH  29  32
ATOM     31  C   UNL     1      -6.913  14.270  16.739  0.00  0.00    +0.000 C 
ATOM     32  O   UNL     1      -6.935  13.854  18.105  0.00  0.00    +0.000 OA
ENDBRANCH  29  32
ENDBRANCH  23  29
ENDBRANCH  19  26
ENDBRANCH  18  20
ENDBRANCH   1  18
TORSDOF 5
ENDMDL
MODEL 6
REMARK VINA RESULT:      -8.1      2.188      2.647
REMARK  Name = 
REMARK  6 active torsions:
REMARK  status: ('A' for Active; 'I' for Inactive)
REMARK    1  A    between atoms: C_1  and  O_2
REMARK    2  A    between atoms: O_2  and  C_3
REMARK    3  A    between atoms: C_3  and  C_5
REMARK    4  A    between atoms: C_8  and  N_9
REMARK    5  A    between atoms: C_10  and  C_12
REMARK    6  A    between atoms: C_12  and  N_13
REMARK                            x       y       z     vdW  Elec       q    Type
REMARK                         _______ _______ _______ _____ _____    ______ ____
ROOT
ATOM      1  N   UNL     1       1.199  10.141  19.582  0.00  0.00    +0.000 N 
ATOM      2  N   UNL     1       1.163   9.022  20.404  0.00  0.00    +0.000 NA
ATOM      3  C   UNL     1       1.759   8.104  19.695  0.00  0.00    +0.000 A 
ATOM      4  N   UNL     1       1.969   6.830  20.125  0.00  0.00    +0.000 NA
ATOM      5  C   UNL     1       2.691   6.038  19.366  0.00  0.00    +0.000 A 
ATOM      6  N   UNL     1       2.939   4.728  19.779  0.00  0.00    +0.000 N 
ATOM      7  C   UNL     1       4.158   4.018  19.401  0.00  0.00    +0.000 C 
ATOM      8  C   UNL     1       3.891   3.128  18.192  0.00  0.00    +0.000 C 
ATOM      9  C   UNL     1       3.129   1.847  18.519  0.00  0.00    +0.000 C 
ATOM     10  C   UNL     1       1.812   2.052  19.272  0.00  0.00    +0.000 C 
ATOM     11  C   UNL     1       2.009   2.578  20.695  0.00  0.00    +0.000 C 
ATOM     12  C   UNL     1       2.091   4.106  20.802  0.00  0.00    +0.000 C 
ATOM     13  C   UNL     1       3.242   6.516  18.042  0.00  0.00    +0.000 A 
ATOM     14  C   UNL     1       2.947   7.757  17.658  0.00  0.00    +0.000 A 
ATOM     15  N   UNL     1       2.207   8.526  18.490  0.00  0.00    +0.000 N 
ATOM     16  C   UNL     1       1.870   9.847  18.386  0.00  0.00    +0.000 A 
ATOM     17  O   UNL     1       2.135  10.617  17.476  0.00  0.00    +0.000 OA
ENDROOT
BRANCH   1  18
ATOM     18  C   UNL     1       0.884  11.479  20.025  0.00  0.00    +0.000 C 
BRANCH  18  20
ATOM     19  N   UNL     1      -1.427  11.809  19.276  0.00  0.00    +0.000 N 
ATOM     20  C   UNL     1      -0.596  11.656  20.375  0.00  0.00    +0.000 C 
ATOM     21  O   UNL     1      -0.932  11.782  21.552  0.00  0.00    +0.000 OA
ATOM     22  H   UNL     1      -0.955  11.759  18.372  0.00  0.00    +0.000 HD
BRANCH  19  26
ATOM     23  C   UNL     1      -5.600  12.520  19.362  0.00  0.00    +0.000 A 
ATOM     24  C   UNL     1      -5.052  11.723  18.355  0.00  0.00    +0.000 A 
ATOM     25  C   UNL     1      -3.675  11.478  18.311  0.00  0.00    +0.000 A 
ATOM     26  C   UNL     1      -2.819  12.021  19.273  0.00  0.00    +0.000 A 
ATOM     27  C   UNL     1      -3.369  12.822  20.282  0.00  0.00    +0.000 A 
ATOM     28  C   UNL     1      -4.750  13.072  20.329  0.00  0.00    +0.000 A 
BRANCH  23  29
ATOM     29  C   UNL     1      -7.073  12.732  19.355  0.00  0.00    +0.000 C 
ATOM     30  O   UNL     1      -7.599  13.813  19.154  0.00  0.00    +0.000 OA
BRANCH  29  32
ATOM     31  C   UNL     1      -7.732  11.185  20.973  0.00  0.00    +0.000 C 
ATOM     32  O   UNL     1      -7.728  11.567  19.597  0.00  0.00    +0.000 OA
ENDBRANCH  29  32
ENDBRANCH  23  29
ENDBRANCH  19  26
ENDBRANCH  18  20
ENDBRANCH   1  18
TORSDOF 5
ENDMDL
MODEL 7
REMARK VINA RESULT:      -8.1      2.818     10.538
REMARK  Name = 
REMARK  6 active torsions:
REMARK  status: ('A' for Active; 'I' for Inactive)
REMARK    1  A    between atoms: C_1  and  O_2
REMARK    2  A    between atoms: O_2  and  C_3
REMARK    3  A    between atoms: C_3  and  C_5
REMARK    4  A    between atoms: C_8  and  N_9
REMARK    5  A    between atoms: C_10  and  C_12
REMARK    6  A    between atoms: C_12  and  N_13
REMARK                            x       y       z     vdW  Elec       q    Type
REMARK                         _______ _______ _______ _____ _____    ______ ____
ROOT
ATOM      1  N   UNL     1       0.119  10.959  19.749  0.00  0.00    +0.000 N 
ATOM      2  N   UNL     1      -1.086  11.500  19.320  0.00  0.00    +0.000 NA
ATOM      3  C   UNL     1      -1.721  11.752  20.431  0.00  0.00    +0.000 A 
ATOM      4  N   UNL     1      -2.957  12.316  20.488  0.00  0.00    +0.000 NA
ATOM      5  C   UNL     1      -3.434  12.632  21.671  0.00  0.00    +0.000 A 
ATOM      6  N   UNL     1      -4.693  13.224  21.769  0.00  0.00    +0.000 N 
ATOM      7  C   UNL     1      -5.029  14.148  22.850  0.00  0.00    +0.000 C 
ATOM      8  C   UNL     1      -5.768  13.406  23.960  0.00  0.00    +0.000 C 
ATOM      9  C   UNL     1      -7.226  13.098  23.638  0.00  0.00    +0.000 C 
ATOM     10  C   UNL     1      -7.454  12.352  22.320  0.00  0.00    +0.000 C 
ATOM     11  C   UNL     1      -7.114  13.192  21.088  0.00  0.00    +0.000 C 
ATOM     12  C   UNL     1      -5.644  13.121  20.657  0.00  0.00    +0.000 C 
ATOM     13  C   UNL     1      -2.647  12.346  22.930  0.00  0.00    +0.000 A 
ATOM     14  C   UNL     1      -1.468  11.738  22.801  0.00  0.00    +0.000 A 
ATOM     15  N   UNL     1      -1.030  11.448  21.554  0.00  0.00    +0.000 N 
ATOM     16  C   UNL     1       0.174  10.940  21.150  0.00  0.00    +0.000 A 
ATOM     17  O   UNL     1       1.111  10.591  21.851  0.00  0.00    +0.000 OA
ENDROOT
BRANCH   1  18
ATOM     18  C   UNL     1       1.262  10.753  18.892  0.00  0.00    +0.000 C 
BRANCH  18  20
ATOM     19  N   UNL     1       1.877   8.510  19.668  0.00  0.00    +0.000 N 
ATOM     20  C   UNL     1       1.507   9.276  18.572  0.00  0.00    +0.000 C 
ATOM     21  O   UNL     1       1.494   8.896  17.403  0.00  0.00    +0.000 OA
ATOM     22  H   UNL     1       1.916   9.019  20.553  0.00  0.00    +0.000 HD
BRANCH  19  26
ATOM     23  C   UNL     1       2.919   4.406  19.641  0.00  0.00    +0.000 A 
ATOM     24  C   UNL     1       2.050   4.896  20.619  0.00  0.00    +0.000 A 
ATOM     25  C   UNL     1       1.696   6.249  20.643  0.00  0.00    +0.000 A 
ATOM     26  C   UNL     1       2.199   7.139  19.690  0.00  0.00    +0.000 A 
ATOM     27  C   UNL     1       3.071   6.648  18.711  0.00  0.00    +0.000 A 
ATOM     28  C   UNL     1       3.432   5.291  18.684  0.00  0.00    +0.000 A 
BRANCH  23  29
ATOM     29  C   UNL     1       3.247   2.955  19.669  0.00  0.00    +0.000 C 
ATOM     30  O   UNL     1       4.384   2.518  19.625  0.00  0.00    +0.000 OA
BRANCH  29  32
ATOM     31  C   UNL     1       1.314   2.246  18.570  0.00  0.00    +0.000 C 
ATOM     32  O   UNL     1       2.116   2.208  19.751  0.00  0.00    +0.000 OA
ENDBRANCH  29  32
ENDBRANCH  23  29
ENDBRANCH  19  26
ENDBRANCH  18  20
ENDBRANCH   1  18
TORSDOF 5
ENDMDL
MODEL 8
REMARK VINA RESULT:      -8.1      1.011      1.214
REMARK  Name = 
REMARK  6 active torsions:
REMARK  status: ('A' for Active; 'I' for Inactive)
REMARK    1  A    between atoms: C_1  and  O_2
REMARK    2  A    between atoms: O_2  and  C_3
REMARK    3  A    between atoms: C_3  and  C_5
REMARK    4  A    between atoms: C_8  and  N_9
REMARK    5  A    between atoms: C_10  and  C_12
REMARK    6  A    between atoms: C_12  and  N_13
REMARK                            x       y       z     vdW  Elec       q    Type
REMARK                         _______ _______ _______ _____ _____    ______ ____
ROOT
ATOM      1  N   UNL     1       0.891  10.186  20.643  0.00  0.00    +0.000 N 
ATOM      2  N   UNL     1       1.001   8.940  21.248  0.00  0.00    +0.000 NA
ATOM      3  C   UNL     1       1.447   8.175  20.291  0.00  0.00    +0.000 A 
ATOM      4  N   UNL     1       1.724   6.851  20.444  0.00  0.00    +0.000 NA
ATOM      5  C   UNL     1       2.286   6.222  19.437  0.00  0.00    +0.000 A 
ATOM      6  N   UNL     1       2.596   4.867  19.561  0.00  0.00    +0.000 N 
ATOM      7  C   UNL     1       3.718   4.265  18.845  0.00  0.00    +0.000 C 
ATOM      8  C   UNL     1       3.222   3.592  17.568  0.00  0.00    +0.000 C 
ATOM      9  C   UNL     1       2.525   2.255  17.801  0.00  0.00    +0.000 C 
ATOM     10  C   UNL     1       1.374   2.292  18.809  0.00  0.00    +0.000 C 
ATOM     11  C   UNL     1       1.837   2.567  20.241  0.00  0.00    +0.000 C 
ATOM     12  C   UNL     1       1.950   4.055  20.598  0.00  0.00    +0.000 C 
ATOM     13  C   UNL     1       2.583   6.937  18.139  0.00  0.00    +0.000 A 
ATOM     14  C   UNL     1       2.231   8.218  18.040  0.00  0.00    +0.000 A 
ATOM     15  N   UNL     1       1.665   8.811  19.117  0.00  0.00    +0.000 N 
ATOM     16  C   UNL     1       1.324  10.121  19.311  0.00  0.00    +0.000 A 
ATOM     17  O   UNL     1       1.421  11.044  18.517  0.00  0.00    +0.000 OA
ENDROOT
BRANCH   1  18
ATOM     18  C   UNL     1       0.675  11.417  21.365  0.00  0.00    +0.000 C 
BRANCH  18  20
ATOM     19  N   UNL     1      -1.210  12.471  22.526  0.00  0.00    +0.000 N 
ATOM     20  C   UNL     1      -0.789  11.865  21.351  0.00  0.00    +0.000 C 
ATOM     21  O   UNL     1      -1.510  11.560  20.403  0.00  0.00    +0.000 OA
ATOM     22  H   UNL     1      -0.488  12.565  23.242  0.00  0.00    +0.000 HD
BRANCH  19  26
ATOM     23  C   UNL     1      -5.061  14.021  23.357  0.00  0.00    +0.000 A 
ATOM     24  C   UNL     1      -4.625  12.862  24.004  0.00  0.00    +0.000 A 
ATOM     25  C   UNL     1      -3.355  12.336  23.740  0.00  0.00    +0.000 A 
ATOM     26  C   UNL     1      -2.496  12.957  22.830  0.00  0.00    +0.000 A 
ATOM     27  C   UNL     1      -2.935  14.118  22.181  0.00  0.00    +0.000 A 
ATOM     28  C   UNL     1      -4.209  14.649  22.440  0.00  0.00    +0.000 A 
BRANCH  23  29
ATOM     29  C   UNL     1      -6.419  14.531  23.691  0.00  0.00    +0.000 C 
ATOM     30  O   UNL     1      -6.637  15.664  24.086  0.00  0.00    +0.000 OA
BRANCH  29  32
ATOM     31  C   UNL     1      -7.702  13.380  22.118  0.00  0.00    +0.000 C 
ATOM     32  O   UNL     1      -7.356  13.569  23.491  0.00  0.00    +0.000 OA
ENDBRANCH  29  32
ENDBRANCH  23  29
ENDBRANCH  19  26
ENDBRANCH  18  20
ENDBRANCH   1  18
TORSDOF 5
ENDMDL
MODEL 9
REMARK VINA RESULT:      -8.1      2.656      3.125
REMARK  Name = 
REMARK  6 active torsions:
REMARK  status: ('A' for Active; 'I' for Inactive)
REMARK    1  A    between atoms: C_1  and  O_2
REMARK    2  A    between atoms: O_2  and  C_3
REMARK    3  A    between atoms: C_3  and  C_5
REMARK    4  A    between atoms: C_8  and  N_9
REMARK    5  A    between atoms: C_10  and  C_12
REMARK    6  A    between atoms: C_12  and  N_13
REMARK                            x       y       z     vdW  Elec       q    Type
REMARK                         _______ _______ _______ _____ _____    ______ ____
ROOT
ATOM      1  N   UNL     1       1.017  10.280  20.418  0.00  0.00    +0.000 N 
ATOM      2  N   UNL     1       1.098   9.071  21.096  0.00  0.00    +0.000 NA
ATOM      3  C   UNL     1       1.554   8.246  20.195  0.00  0.00    +0.000 A 
ATOM      4  N   UNL     1       1.810   6.930  20.431  0.00  0.00    +0.000 NA
ATOM      5  C   UNL     1       2.384   6.236  19.474  0.00  0.00    +0.000 A 
ATOM      6  N   UNL     1       2.674   4.888  19.683  0.00  0.00    +0.000 N 
ATOM      7  C   UNL     1       3.803   4.232  19.027  0.00  0.00    +0.000 C 
ATOM      8  C   UNL     1       3.324   3.491  17.782  0.00  0.00    +0.000 C 
ATOM      9  C   UNL     1       2.605   2.178  18.078  0.00  0.00    +0.000 C 
ATOM     10  C   UNL     1       1.434   2.288  19.058  0.00  0.00    +0.000 C 
ATOM     11  C   UNL     1       1.873   2.641  20.481  0.00  0.00    +0.000 C 
ATOM     12  C   UNL     1       1.997   4.145  20.752  0.00  0.00    +0.000 C 
ATOM     13  C   UNL     1       2.716   6.871  18.143  0.00  0.00    +0.000 A 
ATOM     14  C   UNL     1       2.382   8.148  17.963  0.00  0.00    +0.000 A 
ATOM     15  N   UNL     1       1.803   8.810  18.991  0.00  0.00    +0.000 N 
ATOM     16  C   UNL     1       1.475  10.133  19.101  0.00  0.00    +0.000 A 
ATOM     17  O   UNL     1       1.599  11.006  18.257  0.00  0.00    +0.000 OA
ENDROOT
BRANCH   1  18
ATOM     18  C   UNL     1       0.802  11.554  21.062  0.00  0.00    +0.000 C 
BRANCH  18  20
ATOM     19  N   UNL     1      -1.399  11.391  19.994  0.00  0.00    +0.000 N 
ATOM     20  C   UNL     1      -0.490  12.239  20.609  0.00  0.00    +0.000 C 
ATOM     21  O   UNL     1      -0.590  13.462  20.689  0.00  0.00    +0.000 OA
ATOM     22  H   UNL     1      -1.106  10.415  19.942  0.00  0.00    +0.000 HD
BRANCH  19  26
ATOM     23  C   UNL     1      -5.135  12.340  18.243  0.00  0.00    +0.000 A 
ATOM     24  C   UNL     1      -4.879  12.698  19.568  0.00  0.00    +0.000 A 
ATOM     25  C   UNL     1      -3.649  12.392  20.162  0.00  0.00    +0.000 A 
ATOM     26  C   UNL     1      -2.653  11.726  19.446  0.00  0.00    +0.000 A 
ATOM     27  C   UNL     1      -2.911  11.365  18.117  0.00  0.00    +0.000 A 
ATOM     28  C   UNL     1      -4.144  11.668  17.517  0.00  0.00    +0.000 A 
BRANCH  23  29
ATOM     29  C   UNL     1      -6.460  12.704  17.670  0.00  0.00    +0.000 C 
ATOM     30  O   UNL     1      -7.519  12.268  18.086  0.00  0.00    +0.000 OA
BRANCH  29  32
ATOM     31  C   UNL     1      -7.415  14.474  16.486  0.00  0.00    +0.000 C 
ATOM     32  O   UNL     1      -6.314  13.577  16.640  0.00  0.00    +0.000 OA
ENDBRANCH  29  32
ENDBRANCH  23  29
ENDBRANCH  19  26
ENDBRANCH  18  20
ENDBRANCH   1  18
TORSDOF 5
ENDMDL
