MODEL 1
REMARK VINA RESULT:      -7.0      0.000      0.000
REMARK  Name = 
REMARK  6 active torsions:
REMARK  status: ('A' for Active; 'I' for Inactive)
REMARK    1  A    between atoms: C_1  and  O_2
REMARK    2  A    between atoms: O_2  and  C_3
REMARK    3  A    between atoms: C_16  and  C_17
REMARK    4  A    between atoms: C_16  and  C_18
REMARK    5  A    between atoms: C_19  and  O_20
REMARK    6  A    between atoms: O_20  and  C_21
REMARK                            x       y       z     vdW  Elec       q    Type
REMARK                         _______ _______ _______ _____ _____    ______ ____
ROOT
ATOM      1  C   UNL     1       4.745   6.172  17.841  0.00  0.00    +0.000 C 
ATOM      2  C   UNL     1       4.151   4.803  18.025  0.00  0.00    +0.000 A 
ATOM      3  C   UNL     1       4.528   3.757  17.186  0.00  0.00    +0.000 A 
ATOM      4  C   UNL     1       3.873   2.522  17.244  0.00  0.00    +0.000 A 
ATOM      5  C   UNL     1       2.798   2.325  18.114  0.00  0.00    +0.000 A 
ATOM      6  C   UNL     1       2.410   3.353  18.969  0.00  0.00    +0.000 A 
ATOM      7  C   UNL     1       1.233   3.235  19.818  0.00  0.00    +0.000 A 
ATOM      8  C   UNL     1       0.848   4.271  20.569  0.00  0.00    +0.000 A 
ATOM      9  C   UNL     1       1.614   5.525  20.629  0.00  0.00    +0.000 A 
ATOM     10  O   UNL     1       1.246   6.462  21.330  0.00  0.00    +0.000 OA
ATOM     11  O   UNL     1       2.762   5.590  19.850  0.00  0.00    +0.000 OA
ATOM     12  C   UNL     1       3.119   4.557  18.948  0.00  0.00    +0.000 A 
ATOM     13  O   UNL     1       5.533   3.825  16.270  0.00  0.00    +0.000 OA
ATOM     14  C   UNL     1       6.113   5.113  15.958  0.00  0.00    +0.000 C 
ATOM     15  C   UNL     1       7.522   4.730  15.464  0.00  0.00    +0.000 C 
ATOM     16  C   UNL     1       5.356   5.698  14.757  0.00  0.00    +0.000 C 
ATOM     17  C   UNL     1       6.166   6.053  17.206  0.00  0.00    +0.000 C 
ENDROOT
BRANCH   1  19
ATOM     18  C   UNL     1       3.142   7.974  17.569  0.00  0.00    +0.000 C 
ATOM     19  O   UNL     1       3.917   6.957  16.957  0.00  0.00    +0.000 OA
ENDBRANCH   1  19
BRANCH  17  20
ATOM     20  O   UNL     1       6.631   7.395  16.964  0.00  0.00    +0.000 OA
ATOM     21  C   UNL     1       7.785   7.811  17.670  0.00  0.00    +0.000 C 
ENDBRANCH  17  20
TORSDOF 2
ENDMDL
MODEL 2
REMARK VINA RESULT:      -6.3      2.358      5.745
REMARK  Name = 
REMARK  6 active torsions:
REMARK  status: ('A' for Active; 'I' for Inactive)
REMARK    1  A    between atoms: C_1  and  O_2
REMARK    2  A    between atoms: O_2  and  C_3
REMARK    3  A    between atoms: C_16  and  C_17
REMARK    4  A    between atoms: C_16  and  C_18
REMARK    5  A    between atoms: C_19  and  O_20
REMARK    6  A    between atoms: O_20  and  C_21
REMARK                            x       y       z     vdW  Elec       q    Type
REMARK                         _______ _______ _______ _____ _____    ______ ____
ROOT
ATOM      1  C   UNL     1       4.057   3.582  19.860  0.00  0.00    +0.000 C 
ATOM      2  C   UNL     1       4.398   4.620  18.827  0.00  0.00    +0.000 A 
ATOM      3  C   UNL     1       3.547   4.838  17.745  0.00  0.00    +0.000 A 
ATOM      4  C   UNL     1       3.926   5.686  16.698  0.00  0.00    +0.000 A 
ATOM      5  C   UNL     1       5.182   6.298  16.694  0.00  0.00    +0.000 A 
ATOM      6  C   UNL     1       6.043   6.102  17.769  0.00  0.00    +0.000 A 
ATOM      7  C   UNL     1       7.400   6.631  17.764  0.00  0.00    +0.000 A 
ATOM      8  C   UNL     1       8.225   6.359  18.780  0.00  0.00    +0.000 A 
ATOM      9  C   UNL     1       7.791   5.591  19.958  0.00  0.00    +0.000 A 
ATOM     10  O   UNL     1       8.562   5.357  20.882  0.00  0.00    +0.000 OA
ATOM     11  O   UNL     1       6.476   5.145  19.960  0.00  0.00    +0.000 OA
ATOM     12  C   UNL     1       5.624   5.308  18.840  0.00  0.00    +0.000 A 
ATOM     13  O   UNL     1       2.314   4.279  17.607  0.00  0.00    +0.000 OA
ATOM     14  C   UNL     1       1.924   3.210  18.500  0.00  0.00    +0.000 C 
ATOM     15  C   UNL     1       0.385   3.311  18.484  0.00  0.00    +0.000 C 
ATOM     16  C   UNL     1       2.295   1.876  17.836  0.00  0.00    +0.000 C 
ATOM     17  C   UNL     1       2.509   3.399  19.937  0.00  0.00    +0.000 C 
ENDROOT
BRANCH   1  19
ATOM     18  C   UNL     1       5.159   1.542  20.575  0.00  0.00    +0.000 C 
ATOM     19  O   UNL     1       4.646   2.314  19.503  0.00  0.00    +0.000 OA
ENDBRANCH   1  19
BRANCH  17  20
ATOM     20  O   UNL     1       2.259   2.326  20.865  0.00  0.00    +0.000 OA
ATOM     21  C   UNL     1       1.411   2.610  21.962  0.00  0.00    +0.000 C 
ENDBRANCH  17  20
TORSDOF 2
ENDMDL
MODEL 3
REMARK VINA RESULT:      -6.1      1.646      1.649
REMARK  Name = 
REMARK  6 active torsions:
REMARK  status: ('A' for Active; 'I' for Inactive)
REMARK    1  A    between atoms: C_1  and  O_2
REMARK    2  A    between atoms: O_2  and  C_3
REMARK    3  A    between atoms: C_16  and  C_17
REMARK    4  A    between atoms: C_16  and  C_18
REMARK    5  A    between atoms: C_19  and  O_20
REMARK    6  A    between atoms: O_20  and  C_21
REMARK                            x       y       z     vdW  Elec       q    Type
REMARK                         _______ _______ _______ _____ _____    ______ ____
ROOT
ATOM      1  C   UNL     1       5.181   4.986  18.762  0.00  0.00    +0.000 C 
ATOM      2  C   UNL     1       4.168   3.976  18.297  0.00  0.00    +0.000 A 
ATOM      3  C   UNL     1       4.062   3.662  16.944  0.00  0.00    +0.000 A 
ATOM      4  C   UNL     1       3.025   2.846  16.480  0.00  0.00    +0.000 A 
ATOM      5  C   UNL     1       2.049   2.364  17.355  0.00  0.00    +0.000 A 
ATOM      6  C   UNL     1       2.141   2.657  18.713  0.00  0.00    +0.000 A 
ATOM      7  C   UNL     1       1.095   2.268  19.649  0.00  0.00    +0.000 A 
ATOM      8  C   UNL     1       1.180   2.634  20.932  0.00  0.00    +0.000 A 
ATOM      9  C   UNL     1       2.340   3.366  21.463  0.00  0.00    +0.000 A 
ATOM     10  O   UNL     1       2.401   3.687  22.645  0.00  0.00    +0.000 OA
ATOM     11  O   UNL     1       3.347   3.677  20.559  0.00  0.00    +0.000 OA
ATOM     12  C   UNL     1       3.220   3.416  19.172  0.00  0.00    +0.000 A 
ATOM     13  O   UNL     1       4.923   4.092  15.982  0.00  0.00    +0.000 OA
ATOM     14  C   UNL     1       5.881   5.126  16.307  0.00  0.00    +0.000 C 
ATOM     15  C   UNL     1       7.005   4.869  15.283  0.00  0.00    +0.000 C 
ATOM     16  C   UNL     1       5.254   6.484  15.958  0.00  0.00    +0.000 C 
ATOM     17  C   UNL     1       6.393   5.012  17.780  0.00  0.00    +0.000 C 
ENDROOT
BRANCH   1  19
ATOM     18  C   UNL     1       3.182   6.352  18.930  0.00  0.00    +0.000 C 
ATOM     19  O   UNL     1       4.592   6.303  18.792  0.00  0.00    +0.000 OA
ENDBRANCH   1  19
BRANCH  17  20
ATOM     20  O   UNL     1       7.271   6.065  18.224  0.00  0.00    +0.000 OA
ATOM     21  C   UNL     1       8.026   5.819  19.395  0.00  0.00    +0.000 C 
ENDBRANCH  17  20
TORSDOF 2
ENDMDL
MODEL 4
REMARK VINA RESULT:      -5.8      7.136      9.498
REMARK  Name = 
REMARK  6 active torsions:
REMARK  status: ('A' for Active; 'I' for Inactive)
REMARK    1  A    between atoms: C_1  and  O_2
REMARK    2  A    between atoms: O_2  and  C_3
REMARK    3  A    between atoms: C_16  and  C_17
REMARK    4  A    between atoms: C_16  and  C_18
REMARK    5  A    between atoms: C_19  and  O_20
REMARK    6  A    between atoms: O_20  and  C_21
REMARK                            x       y       z     vdW  Elec       q    Type
REMARK                         _______ _______ _______ _____ _____    ______ ____
ROOT
ATOM      1  C   UNL     1      -1.644  11.485  19.993  0.00  0.00    +0.000 C 
ATOM      2  C   UNL     1      -2.350  11.142  18.711  0.00  0.00    +0.000 A 
ATOM      3  C   UNL     1      -1.672  10.471  17.695  0.00  0.00    +0.000 A 
ATOM      4  C   UNL     1      -2.266  10.285  16.442  0.00  0.00    +0.000 A 
ATOM      5  C   UNL     1      -3.534  10.804  16.169  0.00  0.00    +0.000 A 
ATOM      6  C   UNL     1      -4.233  11.469  17.171  0.00  0.00    +0.000 A 
ATOM      7  C   UNL     1      -5.510  12.119  16.908  0.00  0.00    +0.000 A 
ATOM      8  C   UNL     1      -6.116  12.812  17.876  0.00  0.00    +0.000 A 
ATOM      9  C   UNL     1      -5.574  12.893  19.241  0.00  0.00    +0.000 A 
ATOM     10  O   UNL     1      -6.149  13.530  20.117  0.00  0.00    +0.000 OA
ATOM     11  O   UNL     1      -4.383  12.219  19.477  0.00  0.00    +0.000 OA
ATOM     12  C   UNL     1      -3.656  11.587  18.438  0.00  0.00    +0.000 A 
ATOM     13  O   UNL     1      -0.422   9.947  17.816  0.00  0.00    +0.000 OA
ATOM     14  C   UNL     1       0.373  10.287  18.976  0.00  0.00    +0.000 C 
ATOM     15  C   UNL     1       1.332   9.084  19.083  0.00  0.00    +0.000 C 
ATOM     16  C   UNL     1       1.226  11.515  18.625  0.00  0.00    +0.000 C 
ATOM     17  C   UNL     1      -0.501  10.456  20.261  0.00  0.00    +0.000 C 
ENDROOT
BRANCH   1  19
ATOM     18  C   UNL     1      -1.595  13.783  20.770  0.00  0.00    +0.000 C 
ATOM     19  O   UNL     1      -1.058  12.800  19.901  0.00  0.00    +0.000 OA
ENDBRANCH   1  19
BRANCH  17  20
ATOM     20  O   UNL     1       0.195  10.899  21.442  0.00  0.00    +0.000 OA
ATOM     21  C   UNL     1      -0.363  10.535  22.690  0.00  0.00    +0.000 C 
ENDBRANCH  17  20
TORSDOF 2
ENDMDL
MODEL 5
REMARK VINA RESULT:      -5.8      7.648     10.602
REMARK  Name = 
REMARK  6 active torsions:
REMARK  status: ('A' for Active; 'I' for Inactive)
REMARK    1  A    between atoms: C_1  and  O_2
REMARK    2  A    between atoms: O_2  and  C_3
REMARK    3  A    between atoms: C_16  and  C_17
REMARK    4  A    between atoms: C_16  and  C_18
REMARK    5  A    between atoms: C_19  and  O_20
REMARK    6  A    between atoms: O_20  and  C_21
REMARK                            x       y       z     vdW  Elec       q    Type
REMARK                         _______ _______ _______ _____ _____    ______ ____
ROOT
ATOM      1  C   UNL     1      -1.061  12.052  19.985  0.00  0.00    +0.000 C 
ATOM      2  C   UNL     1      -2.540  12.267  19.818  0.00  0.00    +0.000 A 
ATOM      3  C   UNL     1      -3.318  12.660  20.905  0.00  0.00    +0.000 A 
ATOM      4  C   UNL     1      -4.712  12.713  20.803  0.00  0.00    +0.000 A 
ATOM      5  C   UNL     1      -5.357  12.330  19.624  0.00  0.00    +0.000 A 
ATOM      6  C   UNL     1      -4.599  11.944  18.523  0.00  0.00    +0.000 A 
ATOM      7  C   UNL     1      -5.223  11.437  17.308  0.00  0.00    +0.000 A 
ATOM      8  C   UNL     1      -4.461  11.003  16.299  0.00  0.00    +0.000 A 
ATOM      9  C   UNL     1      -2.993  11.080  16.336  0.00  0.00    +0.000 A 
ATOM     10  O   UNL     1      -2.312  10.682  15.397  0.00  0.00    +0.000 OA
ATOM     11  O   UNL     1      -2.427  11.618  17.485  0.00  0.00    +0.000 OA
ATOM     12  C   UNL     1      -3.205  11.963  18.617  0.00  0.00    +0.000 A 
ATOM     13  O   UNL     1      -2.821  13.024  22.119  0.00  0.00    +0.000 OA
ATOM     14  C   UNL     1      -1.425  12.779  22.409  0.00  0.00    +0.000 C 
ATOM     15  C   UNL     1      -1.120  13.842  23.483  0.00  0.00    +0.000 C 
ATOM     16  C   UNL     1      -1.314  11.406  23.088  0.00  0.00    +0.000 C 
ATOM     17  C   UNL     1      -0.522  12.947  21.144  0.00  0.00    +0.000 C 
ENDROOT
BRANCH   1  19
ATOM     18  C   UNL     1       0.057   9.972  19.423  0.00  0.00    +0.000 C 
ATOM     19  O   UNL     1      -0.794  10.673  20.315  0.00  0.00    +0.000 OA
ENDBRANCH   1  19
BRANCH  17  20
ATOM     20  O   UNL     1       0.870  12.618  21.317  0.00  0.00    +0.000 OA
ATOM     21  C   UNL     1       1.799  13.312  20.505  0.00  0.00    +0.000 C 
ENDBRANCH  17  20
TORSDOF 2
ENDMDL
MODEL 6
REMARK VINA RESULT:      -5.6     10.007     13.327
REMARK  Name = 
REMARK  6 active torsions:
REMARK  status: ('A' for Active; 'I' for Inactive)
REMARK    1  A    between atoms: C_1  and  O_2
REMARK    2  A    between atoms: O_2  and  C_3
REMARK    3  A    between atoms: C_16  and  C_17
REMARK    4  A    between atoms: C_16  and  C_18
REMARK    5  A    between atoms: C_19  and  O_20
REMARK    6  A    between atoms: O_20  and  C_21
REMARK                            x       y       z     vdW  Elec       q    Type
REMARK                         _______ _______ _______ _____ _____    ______ ____
ROOT
ATOM      1  C   UNL     1      -4.597  13.309  22.030  0.00  0.00    +0.000 C 
ATOM      2  C   UNL     1      -5.371  12.739  20.873  0.00  0.00    +0.000 A 
ATOM      3  C   UNL     1      -6.754  12.598  20.957  0.00  0.00    +0.000 A 
ATOM      4  C   UNL     1      -7.466  11.928  19.956  0.00  0.00    +0.000 A 
ATOM      5  C   UNL     1      -6.800  11.349  18.873  0.00  0.00    +0.000 A 
ATOM      6  C   UNL     1      -5.420  11.487  18.763  0.00  0.00    +0.000 A 
ATOM      7  C   UNL     1      -4.668  10.816  17.712  0.00  0.00    +0.000 A 
ATOM      8  C   UNL     1      -3.335  10.909  17.684  0.00  0.00    +0.000 A 
ATOM      9  C   UNL     1      -2.585  11.732  18.645  0.00  0.00    +0.000 A 
ATOM     10  O   UNL     1      -1.362  11.808  18.598  0.00  0.00    +0.000 OA
ATOM     11  O   UNL     1      -3.333  12.404  19.604  0.00  0.00    +0.000 OA
ATOM     12  C   UNL     1      -4.731  12.218  19.735  0.00  0.00    +0.000 A 
ATOM     13  O   UNL     1      -7.520  13.082  21.973  0.00  0.00    +0.000 OA
ATOM     14  C   UNL     1      -6.871  13.574  23.169  0.00  0.00    +0.000 C 
ATOM     15  C   UNL     1      -7.913  14.565  23.725  0.00  0.00    +0.000 C 
ATOM     16  C   UNL     1      -6.772  12.413  24.169  0.00  0.00    +0.000 C 
ATOM     17  C   UNL     1      -5.508  14.272  22.854  0.00  0.00    +0.000 C 
ENDROOT
BRANCH   1  19
ATOM     18  C   UNL     1      -2.753  12.150  23.100  0.00  0.00    +0.000 C 
ATOM     19  O   UNL     1      -4.153  12.248  22.901  0.00  0.00    +0.000 OA
ENDBRANCH   1  19
BRANCH  17  20
ATOM     20  O   UNL     1      -4.741  14.699  23.997  0.00  0.00    +0.000 OA
ATOM     21  C   UNL     1      -4.159  15.987  23.934  0.00  0.00    +0.000 C 
ENDBRANCH  17  20
TORSDOF 2
ENDMDL
MODEL 7
REMARK VINA RESULT:      -5.6      8.556     11.626
REMARK  Name = 
REMARK  6 active torsions:
REMARK  status: ('A' for Active; 'I' for Inactive)
REMARK    1  A    between atoms: C_1  and  O_2
REMARK    2  A    between atoms: O_2  and  C_3
REMARK    3  A    between atoms: C_16  and  C_17
REMARK    4  A    between atoms: C_16  and  C_18
REMARK    5  A    between atoms: C_19  and  O_20
REMARK    6  A    between atoms: O_20  and  C_21
REMARK                            x       y       z     vdW  Elec       q    Type
REMARK                         _______ _______ _______ _____ _____    ______ ____
ROOT
ATOM      1  C   UNL     1      -4.255  12.988  20.341  0.00  0.00    +0.000 C 
ATOM      2  C   UNL     1      -3.556  12.085  19.364  0.00  0.00    +0.000 A 
ATOM      3  C   UNL     1      -4.284  11.412  18.385  0.00  0.00    +0.000 A 
ATOM      4  C   UNL     1      -3.673  10.452  17.572  0.00  0.00    +0.000 A 
ATOM      5  C   UNL     1      -2.329  10.117  17.752  0.00  0.00    +0.000 A 
ATOM      6  C   UNL     1      -1.579  10.783  18.716  0.00  0.00    +0.000 A 
ATOM      7  C   UNL     1      -0.206  10.398  19.014  0.00  0.00    +0.000 A 
ATOM      8  C   UNL     1       0.458  11.011  19.999  0.00  0.00    +0.000 A 
ATOM      9  C   UNL     1      -0.124  12.123  20.765  0.00  0.00    +0.000 A 
ATOM     10  O   UNL     1       0.504  12.675  21.661  0.00  0.00    +0.000 OA
ATOM     11  O   UNL     1      -1.415  12.504  20.423  0.00  0.00    +0.000 OA
ATOM     12  C   UNL     1      -2.185  11.788  19.474  0.00  0.00    +0.000 A 
ATOM     13  O   UNL     1      -5.606  11.617  18.129  0.00  0.00    +0.000 OA
ATOM     14  C   UNL     1      -6.388  12.402  19.058  0.00  0.00    +0.000 C 
ATOM     15  C   UNL     1      -7.527  12.933  18.165  0.00  0.00    +0.000 C 
ATOM     16  C   UNL     1      -7.022  11.443  20.076  0.00  0.00    +0.000 C 
ATOM     17  C   UNL     1      -5.556  13.561  19.696  0.00  0.00    +0.000 C 
ENDROOT
BRANCH   1  19
ATOM     18  C   UNL     1      -4.022  12.671  22.736  0.00  0.00    +0.000 C 
ATOM     19  O   UNL     1      -4.624  12.248  21.524  0.00  0.00    +0.000 OA
ENDBRANCH   1  19
BRANCH  17  20
ATOM     20  O   UNL     1      -6.225  14.330  20.714  0.00  0.00    +0.000 OA
ATOM     21  C   UNL     1      -6.362  15.720  20.483  0.00  0.00    +0.000 C 
ENDBRANCH  17  20
TORSDOF 2
ENDMDL
MODEL 8
REMARK VINA RESULT:      -5.5      1.855      5.835
REMARK  Name = 
REMARK  6 active torsions:
REMARK  status: ('A' for Active; 'I' for Inactive)
REMARK    1  A    between atoms: C_1  and  O_2
REMARK    2  A    between atoms: O_2  and  C_3
REMARK    3  A    between atoms: C_16  and  C_17
REMARK    4  A    between atoms: C_16  and  C_18
REMARK    5  A    between atoms: C_19  and  O_20
REMARK    6  A    between atoms: O_20  and  C_21
REMARK                            x       y       z     vdW  Elec       q    Type
REMARK                         _______ _______ _______ _____ _____    ______ ____
ROOT
ATOM      1  C   UNL     1       3.027   4.102  17.793  0.00  0.00    +0.000 C 
ATOM      2  C   UNL     1       4.492   4.384  17.988  0.00  0.00    +0.000 A 
ATOM      3  C   UNL     1       4.980   4.717  19.249  0.00  0.00    +0.000 A 
ATOM      4  C   UNL     1       6.305   5.133  19.416  0.00  0.00    +0.000 A 
ATOM      5  C   UNL     1       7.155   5.265  18.315  0.00  0.00    +0.000 A 
ATOM      6  C   UNL     1       6.692   4.928  17.047  0.00  0.00    +0.000 A 
ATOM      7  C   UNL     1       7.502   5.146  15.856  0.00  0.00    +0.000 A 
ATOM      8  C   UNL     1       6.995   4.882  14.648  0.00  0.00    +0.000 A 
ATOM      9  C   UNL     1       5.655   4.304  14.469  0.00  0.00    +0.000 A 
ATOM     10  O   UNL     1       5.211   4.064  13.352  0.00  0.00    +0.000 OA
ATOM     11  O   UNL     1       4.925   4.057  15.625  0.00  0.00    +0.000 OA
ATOM     12  C   UNL     1       5.387   4.448  16.905  0.00  0.00    +0.000 A 
ATOM     13  O   UNL     1       4.250   4.667  20.398  0.00  0.00    +0.000 OA
ATOM     14  C   UNL     1       2.818   4.486  20.312  0.00  0.00    +0.000 C 
ATOM     15  C   UNL     1       2.484   3.851  21.677  0.00  0.00    +0.000 C 
ATOM     16  C   UNL     1       2.162   5.874  20.288  0.00  0.00    +0.000 C 
ATOM     17  C   UNL     1       2.411   3.560  19.120  0.00  0.00    +0.000 C 
ENDROOT
BRANCH   1  19
ATOM     18  C   UNL     1       3.104   6.503  17.445  0.00  0.00    +0.000 C 
ATOM     19  O   UNL     1       2.332   5.314  17.432  0.00  0.00    +0.000 OA
ENDBRANCH   1  19
BRANCH  17  20
ATOM     20  O   UNL     1       0.996   3.409  18.895  0.00  0.00    +0.000 OA
ATOM     21  C   UNL     1       0.490   2.088  18.853  0.00  0.00    +0.000 C 
ENDBRANCH  17  20
TORSDOF 2
ENDMDL
MODEL 9
REMARK VINA RESULT:      -5.5      8.897     12.091
REMARK  Name = 
REMARK  6 active torsions:
REMARK  status: ('A' for Active; 'I' for Inactive)
REMARK    1  A    between atoms: C_1  and  O_2
REMARK    2  A    between atoms: O_2  and  C_3
REMARK    3  A    between atoms: C_16  and  C_17
REMARK    4  A    between atoms: C_16  and  C_18
REMARK    5  A    between atoms: C_19  and  O_20
REMARK    6  A    between atoms: O_20  and  C_21
REMARK                            x       y       z     vdW  Elec       q    Type
REMARK                         _______ _______ _______ _____ _____    ______ ____
ROOT
ATOM      1  C   UNL     1      -4.001  13.182  21.033  0.00  0.00    +0.000 C 
ATOM      2  C   UNL     1      -3.932  12.432  19.731  0.00  0.00    +0.000 A 
ATOM      3  C   UNL     1      -5.098  12.153  19.021  0.00  0.00    +0.000 A 
ATOM      4  C   UNL     1      -5.067  11.324  17.894  0.00  0.00    +0.000 A 
ATOM      5  C   UNL     1      -3.874  10.724  17.482  0.00  0.00    +0.000 A 
ATOM      6  C   UNL     1      -2.696  10.997  18.170  0.00  0.00    +0.000 A 
ATOM      7  C   UNL     1      -1.449  10.317  17.847  0.00  0.00    +0.000 A 
ATOM      8  C   UNL     1      -0.356  10.548  18.579  0.00  0.00    +0.000 A 
ATOM      9  C   UNL     1      -0.338  11.529  19.675  0.00  0.00    +0.000 A 
ATOM     10  O   UNL     1       0.678  11.730  20.331  0.00  0.00    +0.000 OA
ATOM     11  O   UNL     1      -1.527  12.201  19.927  0.00  0.00    +0.000 OA
ATOM     12  C   UNL     1      -2.730  11.881  19.252  0.00  0.00    +0.000 A 
ATOM     13  O   UNL     1      -6.329  12.642  19.334  0.00  0.00    +0.000 OA
ATOM     14  C   UNL     1      -6.519  13.306  20.605  0.00  0.00    +0.000 C 
ATOM     15  C   UNL     1      -7.721  14.228  20.320  0.00  0.00    +0.000 C 
ATOM     16  C   UNL     1      -6.985  12.257  21.625  0.00  0.00    +0.000 C 
ATOM     17  C   UNL     1      -5.254  14.113  21.043  0.00  0.00    +0.000 C 
ENDROOT
BRANCH   1  19
ATOM     18  C   UNL     1      -3.048  12.265  23.067  0.00  0.00    +0.000 C 
ATOM     19  O   UNL     1      -4.115  12.257  22.134  0.00  0.00    +0.000 OA
ENDBRANCH   1  19
BRANCH  17  20
ATOM     20  O   UNL     1      -5.315  14.720  22.348  0.00  0.00    +0.000 OA
ATOM     21  C   UNL     1      -4.852  16.053  22.457  0.00  0.00    +0.000 C 
ENDBRANCH  17  20
TORSDOF 2
ENDMDL
