MODEL 1
REMARK VINA RESULT:      -7.4      0.000      0.000
REMARK  Name = 
REMARK  10 active torsions:
REMARK  status: ('A' for Active; 'I' for Inactive)
REMARK    1  A    between atoms: C_4  and  C_5
REMARK    2  A    between atoms: C_5  and  C_6
REMARK    3  A    between atoms: C_5  and  O_12
REMARK    4  A    between atoms: C_6  and  C_7
REMARK    5  A    between atoms: C_7  and  C_8
REMARK    6  A    between atoms: C_8  and  C_9
REMARK    7  A    between atoms: C_9  and  C_10
REMARK    8  A    between atoms: C_10  and  O_11
REMARK    9  A    between atoms: O_12  and  C_13
REMARK   10  A    between atoms: C_13  and  C_15
REMARK                            x       y       z     vdW  Elec       q    Type
REMARK                         _______ _______ _______ _____ _____    ______ ____
ROOT
ATOM      1  C   UNL     1       5.526   4.723  16.775  0.00  0.00    +0.000 C 
ENDROOT
BRANCH   1   5
ATOM      2  O   UNL     1       8.054   5.322  20.766  0.00  0.00    +0.000 OA
ATOM      3  C   UNL     1       7.640   5.512  19.634  0.00  0.00    +0.000 C 
ATOM      4  N   UNL     1       6.756   4.696  18.973  0.00  0.00    +0.000 N 
ATOM      5  C   UNL     1       6.802   5.022  17.581  0.00  0.00    +0.000 C 
ATOM      6  C   UNL     1       7.202   6.481  17.654  0.00  0.00    +0.000 C 
ATOM      7  O   UNL     1       8.033   6.536  18.821  0.00  0.00    +0.000 OA
ATOM      8  H   UNL     1       6.635   3.765  19.351  0.00  0.00    +0.000 HD
ENDBRANCH   1   5
BRANCH   1   9
ATOM      9  C   UNL     1       5.484   5.541  15.467  0.00  0.00    +0.000 C 
BRANCH   9  10
ATOM     10  C   UNL     1       6.478   5.079  14.400  0.00  0.00    +0.000 C 
BRANCH  10  11
ATOM     11  C   UNL     1       6.154   3.678  13.873  0.00  0.00    +0.000 C 
BRANCH  11  12
ATOM     12  C   UNL     1       6.370   3.586  12.368  0.00  0.00    +0.000 C 
BRANCH  12  13
ATOM     13  C   UNL     1       5.339   2.683  11.706  0.00  0.00    +0.000 C 
BRANCH  13  14
ATOM     14  O   UNL     1       5.865   1.369  11.592  0.00  0.00    +0.000 OA
ATOM     15  H   UNL     1       5.113   0.756  11.520  0.00  0.00    +0.000 HD
ENDBRANCH  13  14
ENDBRANCH  12  13
ENDBRANCH  11  12
ENDBRANCH  10  11
ENDBRANCH   9  10
ENDBRANCH   1   9
BRANCH   1  16
ATOM     16  O   UNL     1       4.357   5.040  17.565  0.00  0.00    +0.000 OA
BRANCH  16  17
ATOM     17  C   UNL     1       3.417   4.063  17.604  0.00  0.00    +0.000 C 
ATOM     18  O   UNL     1       3.042   3.389  16.651  0.00  0.00    +0.000 OA
BRANCH  17  19
ATOM     19  C   UNL     1       2.883   3.869  18.968  0.00  0.00    +0.000 A 
ATOM     20  C   UNL     1       3.557   3.085  19.910  0.00  0.00    +0.000 A 
ATOM     21  C   UNL     1       2.928   2.754  21.109  0.00  0.00    +0.000 A 
ATOM     22  C   UNL     1       1.636   3.212  21.374  0.00  0.00    +0.000 A 
ATOM     23  C   UNL     1       0.980   4.035  20.456  0.00  0.00    +0.000 A 
ATOM     24  C   UNL     1       1.606   4.370  19.256  0.00  0.00    +0.000 A 
ENDBRANCH  17  19
ENDBRANCH  16  17
ENDBRANCH   1  16
TORSDOF 10
ENDMDL
MODEL 2
REMARK VINA RESULT:      -7.2      1.084      1.311
REMARK  Name = 
REMARK  10 active torsions:
REMARK  status: ('A' for Active; 'I' for Inactive)
REMARK    1  A    between atoms: C_4  and  C_5
REMARK    2  A    between atoms: C_5  and  C_6
REMARK    3  A    between atoms: C_5  and  O_12
REMARK    4  A    between atoms: C_6  and  C_7
REMARK    5  A    between atoms: C_7  and  C_8
REMARK    6  A    between atoms: C_8  and  C_9
REMARK    7  A    between atoms: C_9  and  C_10
REMARK    8  A    between atoms: C_10  and  O_11
REMARK    9  A    between atoms: O_12  and  C_13
REMARK   10  A    between atoms: C_13  and  C_15
REMARK                            x       y       z     vdW  Elec       q    Type
REMARK                         _______ _______ _______ _____ _____    ______ ____
ROOT
ATOM      1  C   UNL     1       5.733   4.258  16.259  0.00  0.00    +0.000 C 
ENDROOT
BRANCH   1   5
ATOM      2  O   UNL     1       7.849   5.356  20.381  0.00  0.00    +0.000 OA
ATOM      3  C   UNL     1       7.496   5.445  19.217  0.00  0.00    +0.000 C 
ATOM      4  N   UNL     1       6.789   4.486  18.534  0.00  0.00    +0.000 N 
ATOM      5  C   UNL     1       6.890   4.769  17.135  0.00  0.00    +0.000 C 
ATOM      6  C   UNL     1       7.069   6.272  17.171  0.00  0.00    +0.000 C 
ATOM      7  O   UNL     1       7.795   6.488  18.388  0.00  0.00    +0.000 OA
ATOM      8  H   UNL     1       6.777   3.560  18.944  0.00  0.00    +0.000 HD
ENDBRANCH   1   5
BRANCH   1   9
ATOM      9  C   UNL     1       5.788   4.870  14.844  0.00  0.00    +0.000 C 
BRANCH   9  10
ATOM     10  C   UNL     1       6.136   3.871  13.737  0.00  0.00    +0.000 C 
BRANCH  10  11
ATOM     11  C   UNL     1       4.988   3.688  12.741  0.00  0.00    +0.000 C 
BRANCH  11  12
ATOM     12  C   UNL     1       5.356   2.697  11.644  0.00  0.00    +0.000 C 
BRANCH  12  13
ATOM     13  C   UNL     1       6.863   2.499  11.547  0.00  0.00    +0.000 C 
BRANCH  13  14
ATOM     14  O   UNL     1       7.142   1.148  11.209  0.00  0.00    +0.000 OA
ATOM     15  H   UNL     1       7.458   0.703  12.014  0.00  0.00    +0.000 HD
ENDBRANCH  13  14
ENDBRANCH  12  13
ENDBRANCH  11  12
ENDBRANCH  10  11
ENDBRANCH   9  10
ENDBRANCH   1   9
BRANCH   1  16
ATOM     16  O   UNL     1       4.465   4.598  16.868  0.00  0.00    +0.000 OA
BRANCH  16  17
ATOM     17  C   UNL     1       3.812   3.554  17.437  0.00  0.00    +0.000 C 
ATOM     18  O   UNL     1       4.010   2.368  17.200  0.00  0.00    +0.000 OA
BRANCH  17  19
ATOM     19  C   UNL     1       2.812   4.007  18.426  0.00  0.00    +0.000 A 
ATOM     20  C   UNL     1       2.969   5.209  19.123  0.00  0.00    +0.000 A 
ATOM     21  C   UNL     1       2.123   5.503  20.191  0.00  0.00    +0.000 A 
ATOM     22  C   UNL     1       1.115   4.608  20.556  0.00  0.00    +0.000 A 
ATOM     23  C   UNL     1       0.926   3.430  19.831  0.00  0.00    +0.000 A 
ATOM     24  C   UNL     1       1.769   3.132  18.761  0.00  0.00    +0.000 A 
ENDBRANCH  17  19
ENDBRANCH  16  17
ENDBRANCH   1  16
TORSDOF 10
ENDMDL
MODEL 3
REMARK VINA RESULT:      -7.2      1.400      1.798
REMARK  Name = 
REMARK  10 active torsions:
REMARK  status: ('A' for Active; 'I' for Inactive)
REMARK    1  A    between atoms: C_4  and  C_5
REMARK    2  A    between atoms: C_5  and  C_6
REMARK    3  A    between atoms: C_5  and  O_12
REMARK    4  A    between atoms: C_6  and  C_7
REMARK    5  A    between atoms: C_7  and  C_8
REMARK    6  A    between atoms: C_8  and  C_9
REMARK    7  A    between atoms: C_9  and  C_10
REMARK    8  A    between atoms: C_10  and  O_11
REMARK    9  A    between atoms: O_12  and  C_13
REMARK   10  A    between atoms: C_13  and  C_15
REMARK                            x       y       z     vdW  Elec       q    Type
REMARK                         _______ _______ _______ _____ _____    ______ ____
ROOT
ATOM      1  C   UNL     1       5.667   4.903  16.658  0.00  0.00    +0.000 C 
ENDROOT
BRANCH   1   5
ATOM      2  O   UNL     1       8.133   8.831  17.735  0.00  0.00    +0.000 OA
ATOM      3  C   UNL     1       7.719   7.686  17.802  0.00  0.00    +0.000 C 
ATOM      4  N   UNL     1       6.733   7.158  17.006  0.00  0.00    +0.000 N 
ATOM      5  C   UNL     1       6.268   5.948  17.613  0.00  0.00    +0.000 C 
ATOM      6  C   UNL     1       7.516   5.516  18.354  0.00  0.00    +0.000 C 
ATOM      7  O   UNL     1       8.130   6.759  18.717  0.00  0.00    +0.000 OA
ATOM      8  H   UNL     1       6.153   7.823  16.509  0.00  0.00    +0.000 HD
ENDBRANCH   1   5
BRANCH   1   9
ATOM      9  C   UNL     1       5.971   5.247  15.185  0.00  0.00    +0.000 C 
BRANCH   9  10
ATOM     10  C   UNL     1       5.288   4.330  14.168  0.00  0.00    +0.000 C 
BRANCH  10  11
ATOM     11  C   UNL     1       6.293   3.637  13.246  0.00  0.00    +0.000 C 
BRANCH  11  12
ATOM     12  C   UNL     1       5.659   3.263  11.912  0.00  0.00    +0.000 C 
BRANCH  12  13
ATOM     13  C   UNL     1       5.900   1.800  11.564  0.00  0.00    +0.000 C 
BRANCH  13  14
ATOM     14  O   UNL     1       7.270   1.611  11.241  0.00  0.00    +0.000 OA
ATOM     15  H   UNL     1       7.685   2.490  11.190  0.00  0.00    +0.000 HD
ENDBRANCH  13  14
ENDBRANCH  12  13
ENDBRANCH  11  12
ENDBRANCH  10  11
ENDBRANCH   9  10
ENDBRANCH   1   9
BRANCH   1  16
ATOM     16  O   UNL     1       4.233   4.836  16.838  0.00  0.00    +0.000 OA
BRANCH  16  17
ATOM     17  C   UNL     1       3.793   3.726  17.482  0.00  0.00    +0.000 C 
ATOM     18  O   UNL     1       4.187   2.582  17.291  0.00  0.00    +0.000 OA
BRANCH  17  19
ATOM     19  C   UNL     1       2.765   4.050  18.492  0.00  0.00    +0.000 A 
ATOM     20  C   UNL     1       2.884   5.172  19.320  0.00  0.00    +0.000 A 
ATOM     21  C   UNL     1       2.011   5.332  20.395  0.00  0.00    +0.000 A 
ATOM     22  C   UNL     1       1.015   4.384  20.638  0.00  0.00    +0.000 A 
ATOM     23  C   UNL     1       0.864   3.289  19.784  0.00  0.00    +0.000 A 
ATOM     24  C   UNL     1       1.734   3.125  18.707  0.00  0.00    +0.000 A 
ENDBRANCH  17  19
ENDBRANCH  16  17
ENDBRANCH   1  16
TORSDOF 10
ENDMDL
MODEL 4
REMARK VINA RESULT:      -7.2      1.322      1.533
REMARK  Name = 
REMARK  10 active torsions:
REMARK  status: ('A' for Active; 'I' for Inactive)
REMARK    1  A    between atoms: C_4  and  C_5
REMARK    2  A    between atoms: C_5  and  C_6
REMARK    3  A    between atoms: C_5  and  O_12
REMARK    4  A    between atoms: C_6  and  C_7
REMARK    5  A    between atoms: C_7  and  C_8
REMARK    6  A    between atoms: C_8  and  C_9
REMARK    7  A    between atoms: C_9  and  C_10
REMARK    8  A    between atoms: C_10  and  O_11
REMARK    9  A    between atoms: O_12  and  C_13
REMARK   10  A    between atoms: C_13  and  C_15
REMARK                            x       y       z     vdW  Elec       q    Type
REMARK                         _______ _______ _______ _____ _____    ______ ____
ROOT
ATOM      1  C   UNL     1       5.507   4.005  16.225  0.00  0.00    +0.000 C 
ENDROOT
BRANCH   1   5
ATOM      2  O   UNL     1       7.748   5.406  20.186  0.00  0.00    +0.000 OA
ATOM      3  C   UNL     1       7.350   5.412  19.033  0.00  0.00    +0.000 C 
ATOM      4  N   UNL     1       6.641   4.398  18.439  0.00  0.00    +0.000 N 
ATOM      5  C   UNL     1       6.683   4.593  17.022  0.00  0.00    +0.000 C 
ATOM      6  C   UNL     1       6.829   6.100  16.957  0.00  0.00    +0.000 C 
ATOM      7  O   UNL     1       7.595   6.407  18.129  0.00  0.00    +0.000 OA
ATOM      8  H   UNL     1       6.665   3.500  18.906  0.00  0.00    +0.000 HD
ENDBRANCH   1   5
BRANCH   1   9
ATOM      9  C   UNL     1       5.482   4.544  14.780  0.00  0.00    +0.000 C 
BRANCH   9  10
ATOM     10  C   UNL     1       6.651   4.076  13.910  0.00  0.00    +0.000 C 
BRANCH  10  11
ATOM     11  C   UNL     1       6.180   3.362  12.641  0.00  0.00    +0.000 C 
BRANCH  11  12
ATOM     12  C   UNL     1       4.767   3.785  12.257  0.00  0.00    +0.000 C 
BRANCH  12  13
ATOM     13  C   UNL     1       4.209   2.926  11.130  0.00  0.00    +0.000 C 
BRANCH  13  14
ATOM     14  O   UNL     1       3.308   3.697  10.350  0.00  0.00    +0.000 OA
ATOM     15  H   UNL     1       3.500   4.636  10.520  0.00  0.00    +0.000 HD
ENDBRANCH  13  14
ENDBRANCH  12  13
ENDBRANCH  11  12
ENDBRANCH  10  11
ENDBRANCH   9  10
ENDBRANCH   1   9
BRANCH   1  16
ATOM     16  O   UNL     1       4.256   4.337  16.871  0.00  0.00    +0.000 OA
BRANCH  16  17
ATOM     17  C   UNL     1       3.642   3.296  17.487  0.00  0.00    +0.000 C 
ATOM     18  O   UNL     1       3.857   2.109  17.275  0.00  0.00    +0.000 OA
BRANCH  17  19
ATOM     19  C   UNL     1       2.661   3.755  18.493  0.00  0.00    +0.000 A 
ATOM     20  C   UNL     1       2.653   5.076  18.952  0.00  0.00    +0.000 A 
ATOM     21  C   UNL     1       1.859   5.422  20.045  0.00  0.00    +0.000 A 
ATOM     22  C   UNL     1       1.067   4.456  20.670  0.00  0.00    +0.000 A 
ATOM     23  C   UNL     1       1.037   3.148  20.182  0.00  0.00    +0.000 A 
ATOM     24  C   UNL     1       1.828   2.798  19.089  0.00  0.00    +0.000 A 
ENDBRANCH  17  19
ENDBRANCH  16  17
ENDBRANCH   1  16
TORSDOF 10
ENDMDL
MODEL 5
REMARK VINA RESULT:      -7.2      2.664      5.015
REMARK  Name = 
REMARK  10 active torsions:
REMARK  status: ('A' for Active; 'I' for Inactive)
REMARK    1  A    between atoms: C_4  and  C_5
REMARK    2  A    between atoms: C_5  and  C_6
REMARK    3  A    between atoms: C_5  and  O_12
REMARK    4  A    between atoms: C_6  and  C_7
REMARK    5  A    between atoms: C_7  and  C_8
REMARK    6  A    between atoms: C_8  and  C_9
REMARK    7  A    between atoms: C_9  and  C_10
REMARK    8  A    between atoms: C_10  and  O_11
REMARK    9  A    between atoms: O_12  and  C_13
REMARK   10  A    between atoms: C_13  and  C_15
REMARK                            x       y       z     vdW  Elec       q    Type
REMARK                         _______ _______ _______ _____ _____    ______ ____
ROOT
ATOM      1  C   UNL     1       4.652   4.758  16.645  0.00  0.00    +0.000 C 
ENDROOT
BRANCH   1   5
ATOM      2  O   UNL     1       8.289   5.745  13.735  0.00  0.00    +0.000 OA
ATOM      3  C   UNL     1       7.294   5.195  14.177  0.00  0.00    +0.000 C 
ATOM      4  N   UNL     1       6.714   5.475  15.390  0.00  0.00    +0.000 N 
ATOM      5  C   UNL     1       5.826   4.401  15.718  0.00  0.00    +0.000 C 
ATOM      6  C   UNL     1       5.444   3.927  14.332  0.00  0.00    +0.000 C 
ATOM      7  O   UNL     1       6.628   4.173  13.562  0.00  0.00    +0.000 OA
ATOM      8  H   UNL     1       7.283   5.986  16.053  0.00  0.00    +0.000 HD
ENDBRANCH   1   5
BRANCH   1   9
ATOM      9  C   UNL     1       4.998   5.954  17.556  0.00  0.00    +0.000 C 
BRANCH   9  10
ATOM     10  C   UNL     1       3.993   7.106  17.497  0.00  0.00    +0.000 C 
BRANCH  10  11
ATOM     11  C   UNL     1       2.713   6.800  18.277  0.00  0.00    +0.000 C 
BRANCH  11  12
ATOM     12  C   UNL     1       2.068   8.073  18.811  0.00  0.00    +0.000 C 
BRANCH  12  13
ATOM     13  C   UNL     1       2.082   9.187  17.774  0.00  0.00    +0.000 C 
BRANCH  13  14
ATOM     14  O   UNL     1       0.805   9.807  17.729  0.00  0.00    +0.000 OA
ATOM     15  H   UNL     1       0.135   9.104  17.772  0.00  0.00    +0.000 HD
ENDBRANCH  13  14
ENDBRANCH  12  13
ENDBRANCH  11  12
ENDBRANCH  10  11
ENDBRANCH   9  10
ENDBRANCH   1   9
BRANCH   1  16
ATOM     16  O   UNL     1       4.312   3.621  17.473  0.00  0.00    +0.000 OA
BRANCH  16  17
ATOM     17  C   UNL     1       2.989   3.324  17.512  0.00  0.00    +0.000 C 
ATOM     18  O   UNL     1       2.245   3.230  16.543  0.00  0.00    +0.000 OA
BRANCH  17  19
ATOM     19  C   UNL     1       2.519   3.095  18.895  0.00  0.00    +0.000 A 
ATOM     20  C   UNL     1       1.218   3.429  19.286  0.00  0.00    +0.000 A 
ATOM     21  C   UNL     1       0.874   3.397  20.637  0.00  0.00    +0.000 A 
ATOM     22  C   UNL     1       1.820   3.021  21.593  0.00  0.00    +0.000 A 
ATOM     23  C   UNL     1       3.105   2.641  21.199  0.00  0.00    +0.000 A 
ATOM     24  C   UNL     1       3.453   2.671  19.850  0.00  0.00    +0.000 A 
ENDBRANCH  17  19
ENDBRANCH  16  17
ENDBRANCH   1  16
TORSDOF 10
ENDMDL
MODEL 6
REMARK VINA RESULT:      -7.0      1.894      4.147
REMARK  Name = 
REMARK  10 active torsions:
REMARK  status: ('A' for Active; 'I' for Inactive)
REMARK    1  A    between atoms: C_4  and  C_5
REMARK    2  A    between atoms: C_5  and  C_6
REMARK    3  A    between atoms: C_5  and  O_12
REMARK    4  A    between atoms: C_6  and  C_7
REMARK    5  A    between atoms: C_7  and  C_8
REMARK    6  A    between atoms: C_8  and  C_9
REMARK    7  A    between atoms: C_9  and  C_10
REMARK    8  A    between atoms: C_10  and  O_11
REMARK    9  A    between atoms: O_12  and  C_13
REMARK   10  A    between atoms: C_13  and  C_15
REMARK                            x       y       z     vdW  Elec       q    Type
REMARK                         _______ _______ _______ _____ _____    ______ ____
ROOT
ATOM      1  C   UNL     1       4.577   4.788  16.048  0.00  0.00    +0.000 C 
ENDROOT
BRANCH   1   5
ATOM      2  O   UNL     1       8.462   5.576  13.410  0.00  0.00    +0.000 OA
ATOM      3  C   UNL     1       7.412   5.077  13.780  0.00  0.00    +0.000 C 
ATOM      4  N   UNL     1       6.758   5.396  14.944  0.00  0.00    +0.000 N 
ATOM      5  C   UNL     1       5.799   4.368  15.213  0.00  0.00    +0.000 C 
ATOM      6  C   UNL     1       5.499   3.898  13.805  0.00  0.00    +0.000 C 
ATOM      7  O   UNL     1       6.747   4.082  13.124  0.00  0.00    +0.000 OA
ATOM      8  H   UNL     1       7.300   5.887  15.645  0.00  0.00    +0.000 HD
ENDBRANCH   1   5
BRANCH   1   9
ATOM      9  C   UNL     1       4.705   6.245  16.537  0.00  0.00    +0.000 C 
BRANCH   9  10
ATOM     10  C   UNL     1       5.374   6.397  17.905  0.00  0.00    +0.000 C 
BRANCH  10  11
ATOM     11  C   UNL     1       6.644   7.249  17.837  0.00  0.00    +0.000 C 
BRANCH  11  12
ATOM     12  C   UNL     1       7.878   6.439  18.214  0.00  0.00    +0.000 C 
BRANCH  12  13
ATOM     13  C   UNL     1       7.527   4.989  18.519  0.00  0.00    +0.000 C 
BRANCH  13  14
ATOM     14  O   UNL     1       8.193   4.137  17.598  0.00  0.00    +0.000 OA
ATOM     15  H   UNL     1       7.694   3.303  17.555  0.00  0.00    +0.000 HD
ENDBRANCH  13  14
ENDBRANCH  12  13
ENDBRANCH  11  12
ENDBRANCH  10  11
ENDBRANCH   9  10
ENDBRANCH   1   9
BRANCH   1  16
ATOM     16  O   UNL     1       4.440   3.918  17.196  0.00  0.00    +0.000 OA
BRANCH  16  17
ATOM     17  C   UNL     1       3.170   3.520  17.457  0.00  0.00    +0.000 C 
ATOM     18  O   UNL     1       2.354   3.134  16.629  0.00  0.00    +0.000 OA
BRANCH  17  19
ATOM     19  C   UNL     1       2.862   3.581  18.901  0.00  0.00    +0.000 A 
ATOM     20  C   UNL     1       3.439   2.686  19.808  0.00  0.00    +0.000 A 
ATOM     21  C   UNL     1       2.972   2.635  21.120  0.00  0.00    +0.000 A 
ATOM     22  C   UNL     1       1.941   3.483  21.531  0.00  0.00    +0.000 A 
ATOM     23  C   UNL     1       1.397   4.411  20.641  0.00  0.00    +0.000 A 
ATOM     24  C   UNL     1       1.862   4.466  19.328  0.00  0.00    +0.000 A 
ENDBRANCH  17  19
ENDBRANCH  16  17
ENDBRANCH   1  16
TORSDOF 10
ENDMDL
MODEL 7
REMARK VINA RESULT:      -7.0      2.136      5.030
REMARK  Name = 
REMARK  10 active torsions:
REMARK  status: ('A' for Active; 'I' for Inactive)
REMARK    1  A    between atoms: C_4  and  C_5
REMARK    2  A    between atoms: C_5  and  C_6
REMARK    3  A    between atoms: C_5  and  O_12
REMARK    4  A    between atoms: C_6  and  C_7
REMARK    5  A    between atoms: C_7  and  C_8
REMARK    6  A    between atoms: C_8  and  C_9
REMARK    7  A    between atoms: C_9  and  C_10
REMARK    8  A    between atoms: C_10  and  O_11
REMARK    9  A    between atoms: O_12  and  C_13
REMARK   10  A    between atoms: C_13  and  C_15
REMARK                            x       y       z     vdW  Elec       q    Type
REMARK                         _______ _______ _______ _____ _____    ______ ____
ROOT
ATOM      1  C   UNL     1       5.832   5.112  16.986  0.00  0.00    +0.000 C 
ENDROOT
BRANCH   1   5
ATOM      2  O   UNL     1       8.114   5.475  12.822  0.00  0.00    +0.000 OA
ATOM      3  C   UNL     1       7.319   5.085  13.661  0.00  0.00    +0.000 C 
ATOM      4  N   UNL     1       7.299   5.488  14.973  0.00  0.00    +0.000 N 
ATOM      5  C   UNL     1       6.499   4.562  15.713  0.00  0.00    +0.000 C 
ATOM      6  C   UNL     1       5.550   4.091  14.630  0.00  0.00    +0.000 C 
ATOM      7  O   UNL     1       6.355   4.142  13.444  0.00  0.00    +0.000 OA
ATOM      8  H   UNL     1       8.137   5.941  15.317  0.00  0.00    +0.000 HD
ENDBRANCH   1   5
BRANCH   1   9
ATOM      9  C   UNL     1       6.616   4.705  18.251  0.00  0.00    +0.000 C 
BRANCH   9  10
ATOM     10  C   UNL     1       7.103   5.881  19.100  0.00  0.00    +0.000 C 
BRANCH  10  11
ATOM     11  C   UNL     1       8.063   6.792  18.331  0.00  0.00    +0.000 C 
BRANCH  11  12
ATOM     12  C   UNL     1       7.395   8.105  17.944  0.00  0.00    +0.000 C 
BRANCH  12  13
ATOM     13  C   UNL     1       8.380   9.266  17.965  0.00  0.00    +0.000 C 
BRANCH  13  14
ATOM     14  O   UNL     1       9.003   9.333  19.240  0.00  0.00    +0.000 OA
ATOM     15  H   UNL     1       8.788   8.513  19.716  0.00  0.00    +0.000 HD
ENDBRANCH  13  14
ENDBRANCH  12  13
ENDBRANCH  11  12
ENDBRANCH  10  11
ENDBRANCH   9  10
ENDBRANCH   1   9
BRANCH   1  16
ATOM     16  O   UNL     1       4.479   4.612  17.091  0.00  0.00    +0.000 OA
BRANCH  16  17
ATOM     17  C   UNL     1       3.623   5.430  17.753  0.00  0.00    +0.000 C 
ATOM     18  O   UNL     1       3.692   6.653  17.804  0.00  0.00    +0.000 OA
BRANCH  17  19
ATOM     19  C   UNL     1       2.543   4.671  18.418  0.00  0.00    +0.000 A 
ATOM     20  C   UNL     1       2.104   5.006  19.704  0.00  0.00    +0.000 A 
ATOM     21  C   UNL     1       1.238   4.149  20.381  0.00  0.00    +0.000 A 
ATOM     22  C   UNL     1       0.801   2.969  19.776  0.00  0.00    +0.000 A 
ATOM     23  C   UNL     1       1.201   2.658  18.474  0.00  0.00    +0.000 A 
ATOM     24  C   UNL     1       2.066   3.512  17.793  0.00  0.00    +0.000 A 
ENDBRANCH  17  19
ENDBRANCH  16  17
ENDBRANCH   1  16
TORSDOF 10
ENDMDL
MODEL 8
REMARK VINA RESULT:      -7.0      3.303      5.740
REMARK  Name = 
REMARK  10 active torsions:
REMARK  status: ('A' for Active; 'I' for Inactive)
REMARK    1  A    between atoms: C_4  and  C_5
REMARK    2  A    between atoms: C_5  and  C_6
REMARK    3  A    between atoms: C_5  and  O_12
REMARK    4  A    between atoms: C_6  and  C_7
REMARK    5  A    between atoms: C_7  and  C_8
REMARK    6  A    between atoms: C_8  and  C_9
REMARK    7  A    between atoms: C_9  and  C_10
REMARK    8  A    between atoms: C_10  and  O_11
REMARK    9  A    between atoms: O_12  and  C_13
REMARK   10  A    between atoms: C_13  and  C_15
REMARK                            x       y       z     vdW  Elec       q    Type
REMARK                         _______ _______ _______ _____ _____    ______ ____
ROOT
ATOM      1  C   UNL     1       3.975   5.038  18.191  0.00  0.00    +0.000 C 
ENDROOT
BRANCH   1   5
ATOM      2  O   UNL     1       7.606   4.800  15.119  0.00  0.00    +0.000 OA
ATOM      3  C   UNL     1       6.819   5.265  15.927  0.00  0.00    +0.000 C 
ATOM      4  N   UNL     1       5.741   4.595  16.450  0.00  0.00    +0.000 N 
ATOM      5  C   UNL     1       4.865   5.556  17.048  0.00  0.00    +0.000 C 
ATOM      6  C   UNL     1       5.859   6.633  17.430  0.00  0.00    +0.000 C 
ATOM      7  O   UNL     1       6.851   6.546  16.399  0.00  0.00    +0.000 OA
ATOM      8  H   UNL     1       5.445   3.763  15.955  0.00  0.00    +0.000 HD
ENDBRANCH   1   5
BRANCH   1   9
ATOM      9  C   UNL     1       3.642   3.543  18.009  0.00  0.00    +0.000 C 
BRANCH   9  10
ATOM     10  C   UNL     1       2.206   3.265  17.556  0.00  0.00    +0.000 C 
BRANCH  10  11
ATOM     11  C   UNL     1       1.393   2.531  18.624  0.00  0.00    +0.000 C 
BRANCH  11  12
ATOM     12  C   UNL     1       2.183   2.381  19.918  0.00  0.00    +0.000 C 
BRANCH  12  13
ATOM     13  C   UNL     1       1.341   2.737  21.136  0.00  0.00    +0.000 C 
BRANCH  13  14
ATOM     14  O   UNL     1       2.188   3.199  22.178  0.00  0.00    +0.000 OA
ATOM     15  H   UNL     1       2.821   3.825  21.786  0.00  0.00    +0.000 HD
ENDBRANCH  13  14
ENDBRANCH  12  13
ENDBRANCH  11  12
ENDBRANCH  10  11
ENDBRANCH   9  10
ENDBRANCH   1   9
BRANCH   1  16
ATOM     16  O   UNL     1       2.741   5.792  18.236  0.00  0.00    +0.000 OA
BRANCH  16  17
ATOM     17  C   UNL     1       2.458   6.344  19.443  0.00  0.00    +0.000 C 
ATOM     18  O   UNL     1       2.522   5.774  20.526  0.00  0.00    +0.000 OA
BRANCH  17  19
ATOM     19  C   UNL     1       2.068   7.764  19.319  0.00  0.00    +0.000 A 
ATOM     20  C   UNL     1       1.381   8.422  20.344  0.00  0.00    +0.000 A 
ATOM     21  C   UNL     1       0.847   9.689  20.113  0.00  0.00    +0.000 A 
ATOM     22  C   UNL     1       1.009  10.304  18.870  0.00  0.00    +0.000 A 
ATOM     23  C   UNL     1       1.736   9.668  17.862  0.00  0.00    +0.000 A 
ATOM     24  C   UNL     1       2.273   8.401  18.088  0.00  0.00    +0.000 A 
ENDBRANCH  17  19
ENDBRANCH  16  17
ENDBRANCH   1  16
TORSDOF 10
ENDMDL
MODEL 9
REMARK VINA RESULT:      -7.0      1.139      1.561
REMARK  Name = 
REMARK  10 active torsions:
REMARK  status: ('A' for Active; 'I' for Inactive)
REMARK    1  A    between atoms: C_4  and  C_5
REMARK    2  A    between atoms: C_5  and  C_6
REMARK    3  A    between atoms: C_5  and  O_12
REMARK    4  A    between atoms: C_6  and  C_7
REMARK    5  A    between atoms: C_7  and  C_8
REMARK    6  A    between atoms: C_8  and  C_9
REMARK    7  A    between atoms: C_9  and  C_10
REMARK    8  A    between atoms: C_10  and  O_11
REMARK    9  A    between atoms: O_12  and  C_13
REMARK   10  A    between atoms: C_13  and  C_15
REMARK                            x       y       z     vdW  Elec       q    Type
REMARK                         _______ _______ _______ _____ _____    ______ ____
ROOT
ATOM      1  C   UNL     1       5.895   4.251  16.176  0.00  0.00    +0.000 C 
ENDROOT
BRANCH   1   5
ATOM      2  O   UNL     1       7.990   5.343  20.310  0.00  0.00    +0.000 OA
ATOM      3  C   UNL     1       7.585   5.463  19.166  0.00  0.00    +0.000 C 
ATOM      4  N   UNL     1       6.994   4.464  18.432  0.00  0.00    +0.000 N 
ATOM      5  C   UNL     1       7.001   4.857  17.056  0.00  0.00    +0.000 C 
ATOM      6  C   UNL     1       6.970   6.364  17.200  0.00  0.00    +0.000 C 
ATOM      7  O   UNL     1       7.704   6.594  18.410  0.00  0.00    +0.000 OA
ATOM      8  H   UNL     1       7.126   3.520  18.771  0.00  0.00    +0.000 HD
ENDBRANCH   1   5
BRANCH   1   9
ATOM      9  C   UNL     1       6.088   4.628  14.692  0.00  0.00    +0.000 C 
BRANCH   9  10
ATOM     10  C   UNL     1       6.077   3.438  13.730  0.00  0.00    +0.000 C 
BRANCH  10  11
ATOM     11  C   UNL     1       5.329   3.748  12.432  0.00  0.00    +0.000 C 
BRANCH  11  12
ATOM     12  C   UNL     1       5.231   2.518  11.539  0.00  0.00    +0.000 C 
BRANCH  12  13
ATOM     13  C   UNL     1       6.589   1.863  11.333  0.00  0.00    +0.000 C 
BRANCH  13  14
ATOM     14  O   UNL     1       6.454   0.452  11.431  0.00  0.00    +0.000 OA
ATOM     15  H   UNL     1       7.234   0.052  11.010  0.00  0.00    +0.000 HD
ENDBRANCH  13  14
ENDBRANCH  12  13
ENDBRANCH  11  12
ENDBRANCH  10  11
ENDBRANCH   9  10
ENDBRANCH   1   9
BRANCH   1  16
ATOM     16  O   UNL     1       4.600   4.723  16.615  0.00  0.00    +0.000 OA
BRANCH  16  17
ATOM     17  C   UNL     1       3.940   3.876  17.444  0.00  0.00    +0.000 C 
ATOM     18  O   UNL     1       3.866   2.659  17.318  0.00  0.00    +0.000 OA
BRANCH  17  19
ATOM     19  C   UNL     1       3.309   4.593  18.572  0.00  0.00    +0.000 A 
ATOM     20  C   UNL     1       2.567   3.913  19.544  0.00  0.00    +0.000 A 
ATOM     21  C   UNL     1       1.816   4.636  20.469  0.00  0.00    +0.000 A 
ATOM     22  C   UNL     1       1.814   6.032  20.435  0.00  0.00    +0.000 A 
ATOM     23  C   UNL     1       2.592   6.713  19.496  0.00  0.00    +0.000 A 
ATOM     24  C   UNL     1       3.345   5.994  18.569  0.00  0.00    +0.000 A 
ENDBRANCH  17  19
ENDBRANCH  16  17
ENDBRANCH   1  16
TORSDOF 10
ENDMDL
