MODEL 1
REMARK VINA RESULT:      -8.0      0.000      0.000
REMARK  Name = 
REMARK  6 active torsions:
REMARK  status: ('A' for Active; 'I' for Inactive)
REMARK    1  A    between atoms: C_1  and  C_2
REMARK    2  A    between atoms: N_10  and  C_11
REMARK    3  A    between atoms: N_14  and  S_15
REMARK    4  A    between atoms: S_15  and  C_18
REMARK    5  A    between atoms: C_21  and  C_22
REMARK    6  A    between atoms: C_22  and  O_24
REMARK                            x       y       z     vdW  Elec       q    Type
REMARK                         _______ _______ _______ _____ _____    ______ ____
ROOT
ATOM      1  C   UNL     1       1.166  10.232  18.963  0.00  0.00    +0.000 C 
ATOM      2  C   UNL     1       2.051   9.703  17.826  0.00  0.00    +0.000 C 
ATOM      3  C   UNL     1       2.092   8.177  17.737  0.00  0.00    +0.000 C 
ATOM      4  N   UNL     1       2.443   7.570  19.054  0.00  0.00    +0.000 NA
ATOM      5  C   UNL     1       1.505   7.994  20.137  0.00  0.00    +0.000 C 
ATOM      6  C   UNL     1       1.482   9.512  20.275  0.00  0.00    +0.000 C 
ENDROOT
BRANCH   1  16
ATOM      7  C   UNL     1      -4.936  13.081  19.830  0.00  0.00    +0.000 C 
ATOM      8  C   UNL     1      -3.657  12.319  19.628  0.00  0.00    +0.000 A 
ATOM      9  C   UNL     1      -2.585  12.457  20.522  0.00  0.00    +0.000 A 
ATOM     10  C   UNL     1      -1.364  11.795  20.323  0.00  0.00    +0.000 A 
ATOM     11  C   UNL     1      -1.260  10.980  19.191  0.00  0.00    +0.000 A 
ATOM     12  C   UNL     1      -2.321  10.786  18.312  0.00  0.00    +0.000 A 
ATOM     13  C   UNL     1      -3.533  11.459  18.522  0.00  0.00    +0.000 A 
ATOM     14  N   UNL     1      -1.949   9.920  17.324  0.00  0.00    +0.000 NA
ATOM     15  N   UNL     1      -0.685   9.582  17.528  0.00  0.00    +0.000 NA
ATOM     16  N   UNL     1      -0.250  10.242  18.619  0.00  0.00    +0.000 N 
ENDBRANCH   1  16
BRANCH   4  17
ATOM     17  S   UNL     1       2.562   5.835  18.996  0.00  0.00    +0.000 S 
ATOM     18  O   UNL     1       3.102   5.377  20.258  0.00  0.00    +0.000 OA
ATOM     19  O   UNL     1       1.308   5.323  18.482  0.00  0.00    +0.000 OA
BRANCH  17  20
ATOM     20  C   UNL     1       3.819   5.544  17.773  0.00  0.00    +0.000 A 
ATOM     21  C   UNL     1       3.902   4.281  17.182  0.00  0.00    +0.000 A 
ATOM     22  C   UNL     1       4.871   4.040  16.205  0.00  0.00    +0.000 A 
ATOM     23  C   UNL     1       5.753   5.060  15.817  0.00  0.00    +0.000 A 
ATOM     24  C   UNL     1       5.625   6.342  16.374  0.00  0.00    +0.000 A 
ATOM     25  C   UNL     1       4.661   6.582  17.361  0.00  0.00    +0.000 A 
BRANCH  23  26
ATOM     26  C   UNL     1       6.773   4.736  14.786  0.00  0.00    +0.000 C 
ATOM     27  O   UNL     1       7.747   5.440  14.574  0.00  0.00    +0.000 OA
BRANCH  26  28
ATOM     28  O   UNL     1       6.493   3.633  14.061  0.00  0.00    +0.000 OA
ATOM     29  H   UNL     1       6.661   3.703  13.104  0.00  0.00    +0.000 HD
ENDBRANCH  26  28
ENDBRANCH  23  26
ENDBRANCH  17  20
ENDBRANCH   4  17
TORSDOF 5
ENDMDL
MODEL 2
REMARK VINA RESULT:      -7.9      1.185      1.334
REMARK  Name = 
REMARK  6 active torsions:
REMARK  status: ('A' for Active; 'I' for Inactive)
REMARK    1  A    between atoms: C_1  and  C_2
REMARK    2  A    between atoms: N_10  and  C_11
REMARK    3  A    between atoms: N_14  and  S_15
REMARK    4  A    between atoms: S_15  and  C_18
REMARK    5  A    between atoms: C_21  and  C_22
REMARK    6  A    between atoms: C_22  and  O_24
REMARK                            x       y       z     vdW  Elec       q    Type
REMARK                         _______ _______ _______ _____ _____    ______ ____
ROOT
ATOM      1  C   UNL     1       1.063  10.349  19.025  0.00  0.00    +0.000 C 
ATOM      2  C   UNL     1       1.890   9.689  17.913  0.00  0.00    +0.000 C 
ATOM      3  C   UNL     1       1.850   8.162  17.938  0.00  0.00    +0.000 C 
ATOM      4  N   UNL     1       2.201   7.636  19.290  0.00  0.00    +0.000 NA
ATOM      5  C   UNL     1       1.314   8.189  20.358  0.00  0.00    +0.000 C 
ATOM      6  C   UNL     1       1.373   9.711  20.381  0.00  0.00    +0.000 C 
ENDROOT
BRANCH   1  16
ATOM      7  C   UNL     1      -4.948  13.297  20.153  0.00  0.00    +0.000 C 
ATOM      8  C   UNL     1      -3.693  12.515  19.888  0.00  0.00    +0.000 A 
ATOM      9  C   UNL     1      -2.601  12.584  20.766  0.00  0.00    +0.000 A 
ATOM     10  C   UNL     1      -1.401  11.903  20.511  0.00  0.00    +0.000 A 
ATOM     11  C   UNL     1      -1.339  11.142  19.339  0.00  0.00    +0.000 A 
ATOM     12  C   UNL     1      -2.421  11.017  18.473  0.00  0.00    +0.000 A 
ATOM     13  C   UNL     1      -3.612  11.708  18.740  0.00  0.00    +0.000 A 
ATOM     14  N   UNL     1      -2.090  10.191  17.437  0.00  0.00    +0.000 NA
ATOM     15  N   UNL     1      -0.831   9.813  17.599  0.00  0.00    +0.000 NA
ATOM     16  N   UNL     1      -0.359  10.409  18.711  0.00  0.00    +0.000 N 
ENDBRANCH   1  16
BRANCH   4  17
ATOM     17  S   UNL     1       2.228   5.897  19.361  0.00  0.00    +0.000 S 
ATOM     18  O   UNL     1       2.261   5.502  20.752  0.00  0.00    +0.000 OA
ATOM     19  O   UNL     1       1.206   5.403  18.460  0.00  0.00    +0.000 OA
BRANCH  17  20
ATOM     20  C   UNL     1       3.815   5.477  18.677  0.00  0.00    +0.000 A 
ATOM     21  C   UNL     1       3.957   5.433  17.287  0.00  0.00    +0.000 A 
ATOM     22  C   UNL     1       5.201   5.124  16.733  0.00  0.00    +0.000 A 
ATOM     23  C   UNL     1       6.301   4.862  17.563  0.00  0.00    +0.000 A 
ATOM     24  C   UNL     1       6.163   4.965  18.956  0.00  0.00    +0.000 A 
ATOM     25  C   UNL     1       4.914   5.265  19.515  0.00  0.00    +0.000 A 
BRANCH  23  26
ATOM     26  C   UNL     1       7.593   4.521  16.913  0.00  0.00    +0.000 C 
ATOM     27  O   UNL     1       7.797   4.680  15.720  0.00  0.00    +0.000 OA
BRANCH  26  28
ATOM     28  O   UNL     1       8.497   3.960  17.743  0.00  0.00    +0.000 OA
ATOM     29  H   UNL     1       9.044   3.253  17.356  0.00  0.00    +0.000 HD
ENDBRANCH  26  28
ENDBRANCH  23  26
ENDBRANCH  17  20
ENDBRANCH   4  17
TORSDOF 5
ENDMDL
MODEL 3
REMARK VINA RESULT:      -7.7      0.179      1.105
REMARK  Name = 
REMARK  6 active torsions:
REMARK  status: ('A' for Active; 'I' for Inactive)
REMARK    1  A    between atoms: C_1  and  C_2
REMARK    2  A    between atoms: N_10  and  C_11
REMARK    3  A    between atoms: N_14  and  S_15
REMARK    4  A    between atoms: S_15  and  C_18
REMARK    5  A    between atoms: C_21  and  C_22
REMARK    6  A    between atoms: C_22  and  O_24
REMARK                            x       y       z     vdW  Elec       q    Type
REMARK                         _______ _______ _______ _____ _____    ______ ____
ROOT
ATOM      1  C   UNL     1       1.269  10.136  19.001  0.00  0.00    +0.000 C 
ATOM      2  C   UNL     1       2.150   9.603  17.863  0.00  0.00    +0.000 C 
ATOM      3  C   UNL     1       2.170   8.078  17.761  0.00  0.00    +0.000 C 
ATOM      4  N   UNL     1       2.507   7.455  19.074  0.00  0.00    +0.000 NA
ATOM      5  C   UNL     1       1.571   7.884  20.157  0.00  0.00    +0.000 C 
ATOM      6  C   UNL     1       1.569   9.400  20.308  0.00  0.00    +0.000 C 
ENDROOT
BRANCH   1  16
ATOM      7  C   UNL     1      -4.793  13.070  19.864  0.00  0.00    +0.000 C 
ATOM      8  C   UNL     1      -3.525  12.290  19.661  0.00  0.00    +0.000 A 
ATOM      9  C   UNL     1      -2.454  12.406  20.560  0.00  0.00    +0.000 A 
ATOM     10  C   UNL     1      -1.242  11.728  20.362  0.00  0.00    +0.000 A 
ATOM     11  C   UNL     1      -1.146  10.918  19.225  0.00  0.00    +0.000 A 
ATOM     12  C   UNL     1      -2.207  10.747  18.341  0.00  0.00    +0.000 A 
ATOM     13  C   UNL     1      -3.409  11.436  18.550  0.00  0.00    +0.000 A 
ATOM     14  N   UNL     1      -1.844   9.881  17.348  0.00  0.00    +0.000 NA
ATOM     15  N   UNL     1      -0.586   9.523  17.555  0.00  0.00    +0.000 NA
ATOM     16  N   UNL     1      -0.145  10.169  18.651  0.00  0.00    +0.000 N 
ENDBRANCH   1  16
BRANCH   4  17
ATOM     17  S   UNL     1       2.601   5.719  19.002  0.00  0.00    +0.000 S 
ATOM     18  O   UNL     1       3.211   5.248  20.226  0.00  0.00    +0.000 OA
ATOM     19  O   UNL     1       1.312   5.224  18.562  0.00  0.00    +0.000 OA
BRANCH  17  20
ATOM     20  C   UNL     1       3.778   5.419  17.703  0.00  0.00    +0.000 A 
ATOM     21  C   UNL     1       4.621   6.461  17.307  0.00  0.00    +0.000 A 
ATOM     22  C   UNL     1       5.565   6.239  16.302  0.00  0.00    +0.000 A 
ATOM     23  C   UNL     1       5.669   4.978  15.696  0.00  0.00    +0.000 A 
ATOM     24  C   UNL     1       4.857   3.922  16.139  0.00  0.00    +0.000 A 
ATOM     25  C   UNL     1       3.904   4.146  17.140  0.00  0.00    +0.000 A 
BRANCH  23  26
ATOM     26  C   UNL     1       6.680   4.810  14.619  0.00  0.00    +0.000 C 
ATOM     27  O   UNL     1       6.529   4.043  13.683  0.00  0.00    +0.000 OA
BRANCH  26  28
ATOM     28  O   UNL     1       7.806   5.530  14.804  0.00  0.00    +0.000 OA
ATOM     29  H   UNL     1       8.489   5.428  14.117  0.00  0.00    +0.000 HD
ENDBRANCH  26  28
ENDBRANCH  23  26
ENDBRANCH  17  20
ENDBRANCH   4  17
TORSDOF 5
ENDMDL
MODEL 4
REMARK VINA RESULT:      -7.5      2.657      4.014
REMARK  Name = 
REMARK  6 active torsions:
REMARK  status: ('A' for Active; 'I' for Inactive)
REMARK    1  A    between atoms: C_1  and  C_2
REMARK    2  A    between atoms: N_10  and  C_11
REMARK    3  A    between atoms: N_14  and  S_15
REMARK    4  A    between atoms: S_15  and  C_18
REMARK    5  A    between atoms: C_21  and  C_22
REMARK    6  A    between atoms: C_22  and  O_24
REMARK                            x       y       z     vdW  Elec       q    Type
REMARK                         _______ _______ _______ _____ _____    ______ ____
ROOT
ATOM      1  C   UNL     1      -1.038  12.665  19.319  0.00  0.00    +0.000 C 
ATOM      2  C   UNL     1      -1.104  11.311  18.599  0.00  0.00    +0.000 C 
ATOM      3  C   UNL     1      -0.846  10.114  19.514  0.00  0.00    +0.000 C 
ATOM      4  N   UNL     1       0.423  10.284  20.279  0.00  0.00    +0.000 NA
ATOM      5  C   UNL     1       0.435  11.548  21.076  0.00  0.00    +0.000 C 
ATOM      6  C   UNL     1       0.226  12.761  20.177  0.00  0.00    +0.000 C 
ENDROOT
BRANCH   1  16
ATOM      7  C   UNL     1      -7.654  11.425  20.211  0.00  0.00    +0.000 C 
ATOM      8  C   UNL     1      -6.221  11.844  20.041  0.00  0.00    +0.000 A 
ATOM      9  C   UNL     1      -5.498  11.492  18.891  0.00  0.00    +0.000 A 
ATOM     10  C   UNL     1      -4.145  11.828  18.734  0.00  0.00    +0.000 A 
ATOM     11  C   UNL     1      -3.542  12.540  19.777  0.00  0.00    +0.000 A 
ATOM     12  C   UNL     1      -4.246  12.944  20.908  0.00  0.00    +0.000 A 
ATOM     13  C   UNL     1      -5.596  12.595  21.051  0.00  0.00    +0.000 A 
ATOM     14  N   UNL     1      -3.420  13.647  21.738  0.00  0.00    +0.000 NA
ATOM     15  N   UNL     1      -2.215  13.677  21.189  0.00  0.00    +0.000 NA
ATOM     16  N   UNL     1      -2.266  12.983  20.036  0.00  0.00    +0.000 N 
ENDBRANCH   1  16
BRANCH   4  17
ATOM     17  S   UNL     1       0.797   8.921  21.294  0.00  0.00    +0.000 S 
ATOM     18  O   UNL     1       1.742   9.353  22.301  0.00  0.00    +0.000 OA
ATOM     19  O   UNL     1      -0.453   8.284  21.656  0.00  0.00    +0.000 OA
BRANCH  17  20
ATOM     20  C   UNL     1       1.680   7.824  20.209  0.00  0.00    +0.000 A 
ATOM     21  C   UNL     1       1.844   6.489  20.591  0.00  0.00    +0.000 A 
ATOM     22  C   UNL     1       2.518   5.609  19.742  0.00  0.00    +0.000 A 
ATOM     23  C   UNL     1       3.026   6.058  18.515  0.00  0.00    +0.000 A 
ATOM     24  C   UNL     1       2.808   7.385  18.114  0.00  0.00    +0.000 A 
ATOM     25  C   UNL     1       2.141   8.273  18.967  0.00  0.00    +0.000 A 
BRANCH  23  26
ATOM     26  C   UNL     1       3.750   5.077  17.664  0.00  0.00    +0.000 C 
ATOM     27  O   UNL     1       4.419   5.405  16.698  0.00  0.00    +0.000 OA
BRANCH  26  28
ATOM     28  O   UNL     1       3.549   3.790  18.015  0.00  0.00    +0.000 OA
ATOM     29  H   UNL     1       3.810   3.554  18.923  0.00  0.00    +0.000 HD
ENDBRANCH  26  28
ENDBRANCH  23  26
ENDBRANCH  17  20
ENDBRANCH   4  17
TORSDOF 5
ENDMDL
MODEL 5
REMARK VINA RESULT:      -7.2      2.862      4.252
REMARK  Name = 
REMARK  6 active torsions:
REMARK  status: ('A' for Active; 'I' for Inactive)
REMARK    1  A    between atoms: C_1  and  C_2
REMARK    2  A    between atoms: N_10  and  C_11
REMARK    3  A    between atoms: N_14  and  S_15
REMARK    4  A    between atoms: S_15  and  C_18
REMARK    5  A    between atoms: C_21  and  C_22
REMARK    6  A    between atoms: C_22  and  O_24
REMARK                            x       y       z     vdW  Elec       q    Type
REMARK                         _______ _______ _______ _____ _____    ______ ____
ROOT
ATOM      1  C   UNL     1      -0.454  11.613  21.940  0.00  0.00    +0.000 C 
ATOM      2  C   UNL     1       0.682  12.319  21.188  0.00  0.00    +0.000 C 
ATOM      3  C   UNL     1       0.924  11.772  19.782  0.00  0.00    +0.000 C 
ATOM      4  N   UNL     1       1.096  10.290  19.803  0.00  0.00    +0.000 NA
ATOM      5  C   UNL     1      -0.070   9.596  20.428  0.00  0.00    +0.000 C 
ATOM      6  C   UNL     1      -0.302  10.093  21.850  0.00  0.00    +0.000 C 
ENDROOT
BRANCH   1  16
ATOM      7  C   UNL     1      -6.522  13.936  23.914  0.00  0.00    +0.000 C 
ATOM      8  C   UNL     1      -5.251  13.352  23.365  0.00  0.00    +0.000 A 
ATOM      9  C   UNL     1      -4.374  12.629  24.188  0.00  0.00    +0.000 A 
ATOM     10  C   UNL     1      -3.158  12.120  23.709  0.00  0.00    +0.000 A 
ATOM     11  C   UNL     1      -2.855  12.358  22.364  0.00  0.00    +0.000 A 
ATOM     12  C   UNL     1      -3.726  13.031  21.512  0.00  0.00    +0.000 A 
ATOM     13  C   UNL     1      -4.935  13.538  22.008  0.00  0.00    +0.000 A 
ATOM     14  N   UNL     1      -3.190  13.087  20.257  0.00  0.00    +0.000 NA
ATOM     15  N   UNL     1      -2.002  12.503  20.290  0.00  0.00    +0.000 NA
ATOM     16  N   UNL     1      -1.773  12.100  21.555  0.00  0.00    +0.000 N 
ENDBRANCH   1  16
BRANCH   4  17
ATOM     17  S   UNL     1       1.433   9.619  18.232  0.00  0.00    +0.000 S 
ATOM     18  O   UNL     1       0.174   9.276  17.608  0.00  0.00    +0.000 OA
ATOM     19  O   UNL     1       2.388  10.490  17.576  0.00  0.00    +0.000 OA
BRANCH  17  20
ATOM     20  C   UNL     1       2.250   8.084  18.602  0.00  0.00    +0.000 A 
ATOM     21  C   UNL     1       3.206   7.599  17.705  0.00  0.00    +0.000 A 
ATOM     22  C   UNL     1       3.872   6.404  17.989  0.00  0.00    +0.000 A 
ATOM     23  C   UNL     1       3.586   5.697  19.165  0.00  0.00    +0.000 A 
ATOM     24  C   UNL     1       2.667   6.220  20.088  0.00  0.00    +0.000 A 
ATOM     25  C   UNL     1       1.990   7.413  19.801  0.00  0.00    +0.000 A 
BRANCH  23  26
ATOM     26  C   UNL     1       4.315   4.423  19.401  0.00  0.00    +0.000 C 
ATOM     27  O   UNL     1       3.770   3.417  19.826  0.00  0.00    +0.000 OA
BRANCH  26  28
ATOM     28  O   UNL     1       5.642   4.496  19.167  0.00  0.00    +0.000 OA
ATOM     29  H   UNL     1       5.903   4.979  18.363  0.00  0.00    +0.000 HD
ENDBRANCH  26  28
ENDBRANCH  23  26
ENDBRANCH  17  20
ENDBRANCH   4  17
TORSDOF 5
ENDMDL
MODEL 6
REMARK VINA RESULT:      -7.1      2.590      4.275
REMARK  Name = 
REMARK  6 active torsions:
REMARK  status: ('A' for Active; 'I' for Inactive)
REMARK    1  A    between atoms: C_1  and  C_2
REMARK    2  A    between atoms: N_10  and  C_11
REMARK    3  A    between atoms: N_14  and  S_15
REMARK    4  A    between atoms: S_15  and  C_18
REMARK    5  A    between atoms: C_21  and  C_22
REMARK    6  A    between atoms: C_22  and  O_24
REMARK                            x       y       z     vdW  Elec       q    Type
REMARK                         _______ _______ _______ _____ _____    ______ ____
ROOT
ATOM      1  C   UNL     1      -2.848  11.776  17.985  0.00  0.00    +0.000 C 
ATOM      2  C   UNL     1      -2.134  10.517  17.475  0.00  0.00    +0.000 C 
ATOM      3  C   UNL     1      -1.423   9.724  18.572  0.00  0.00    +0.000 C 
ATOM      4  N   UNL     1      -0.518  10.601  19.370  0.00  0.00    +0.000 NA
ATOM      5  C   UNL     1      -1.242  11.764  19.967  0.00  0.00    +0.000 C 
ATOM      6  C   UNL     1      -1.921  12.596  18.886  0.00  0.00    +0.000 C 
ENDROOT
BRANCH   1  16
ATOM      7  C   UNL     1      -7.916  13.849  22.000  0.00  0.00    +0.000 C 
ATOM      8  C   UNL     1      -6.819  13.252  21.165  0.00  0.00    +0.000 A 
ATOM      9  C   UNL     1      -5.521  13.784  21.190  0.00  0.00    +0.000 A 
ATOM     10  C   UNL     1      -4.495  13.275  20.379  0.00  0.00    +0.000 A 
ATOM     11  C   UNL     1      -4.820  12.202  19.543  0.00  0.00    +0.000 A 
ATOM     12  C   UNL     1      -6.085  11.623  19.531  0.00  0.00    +0.000 A 
ATOM     13  C   UNL     1      -7.100  12.147  20.343  0.00  0.00    +0.000 A 
ATOM     14  N   UNL     1      -6.106  10.579  18.650  0.00  0.00    +0.000 NA
ATOM     15  N   UNL     1      -4.911  10.495  18.084  0.00  0.00    +0.000 NA
ATOM     16  N   UNL     1      -4.147  11.487  18.580  0.00  0.00    +0.000 N 
ENDBRANCH   1  16
BRANCH   4  17
ATOM     17  S   UNL     1       0.363   9.737  20.597  0.00  0.00    +0.000 S 
ATOM     18  O   UNL     1       1.211  10.680  21.293  0.00  0.00    +0.000 OA
ATOM     19  O   UNL     1      -0.580   8.900  21.311  0.00  0.00    +0.000 OA
BRANCH  17  20
ATOM     20  C   UNL     1       1.444   8.677  19.665  0.00  0.00    +0.000 A 
ATOM     21  C   UNL     1       1.792   7.434  20.200  0.00  0.00    +0.000 A 
ATOM     22  C   UNL     1       2.625   6.581  19.474  0.00  0.00    +0.000 A 
ATOM     23  C   UNL     1       3.107   6.965  18.214  0.00  0.00    +0.000 A 
ATOM     24  C   UNL     1       2.707   8.191  17.659  0.00  0.00    +0.000 A 
ATOM     25  C   UNL     1       1.880   9.053  18.390  0.00  0.00    +0.000 A 
BRANCH  23  26
ATOM     26  C   UNL     1       4.004   6.020  17.498  0.00  0.00    +0.000 C 
ATOM     27  O   UNL     1       4.679   6.348  16.536  0.00  0.00    +0.000 OA
BRANCH  26  28
ATOM     28  O   UNL     1       3.956   4.755  17.964  0.00  0.00    +0.000 OA
ATOM     29  H   UNL     1       4.175   4.059  17.319  0.00  0.00    +0.000 HD
ENDBRANCH  26  28
ENDBRANCH  23  26
ENDBRANCH  17  20
ENDBRANCH   4  17
TORSDOF 5
ENDMDL
MODEL 7
REMARK VINA RESULT:      -7.1      4.798     10.213
REMARK  Name = 
REMARK  6 active torsions:
REMARK  status: ('A' for Active; 'I' for Inactive)
REMARK    1  A    between atoms: C_1  and  C_2
REMARK    2  A    between atoms: N_10  and  C_11
REMARK    3  A    between atoms: N_14  and  S_15
REMARK    4  A    between atoms: S_15  and  C_18
REMARK    5  A    between atoms: C_21  and  C_22
REMARK    6  A    between atoms: C_22  and  O_24
REMARK                            x       y       z     vdW  Elec       q    Type
REMARK                         _______ _______ _______ _____ _____    ______ ____
ROOT
ATOM      1  C   UNL     1       1.162   8.243  21.570  0.00  0.00    +0.000 C 
ATOM      2  C   UNL     1      -0.372   8.240  21.535  0.00  0.00    +0.000 C 
ATOM      3  C   UNL     1      -0.975   9.442  20.807  0.00  0.00    +0.000 C 
ATOM      4  N   UNL     1      -0.424  10.724  21.338  0.00  0.00    +0.000 NA
ATOM      5  C   UNL     1       1.067  10.772  21.259  0.00  0.00    +0.000 C 
ATOM      6  C   UNL     1       1.691   9.607  22.017  0.00  0.00    +0.000 C 
ENDROOT
BRANCH   1  16
ATOM      7  C   UNL     1       2.711   2.920  17.649  0.00  0.00    +0.000 C 
ATOM      8  C   UNL     1       2.498   4.160  18.470  0.00  0.00    +0.000 A 
ATOM      9  C   UNL     1       2.221   4.078  19.843  0.00  0.00    +0.000 A 
ATOM     10  C   UNL     1       1.966   5.219  20.618  0.00  0.00    +0.000 A 
ATOM     11  C   UNL     1       2.007   6.454  19.962  0.00  0.00    +0.000 A 
ATOM     12  C   UNL     1       2.324   6.571  18.612  0.00  0.00    +0.000 A 
ATOM     13  C   UNL     1       2.571   5.420  17.851  0.00  0.00    +0.000 A 
ATOM     14  N   UNL     1       2.323   7.888  18.251  0.00  0.00    +0.000 NA
ATOM     15  N   UNL     1       1.987   8.605  19.312  0.00  0.00    +0.000 NA
ATOM     16  N   UNL     1       1.755   7.756  20.331  0.00  0.00    +0.000 N 
ENDBRANCH   1  16
BRANCH   4  17
ATOM     17  S   UNL     1      -1.121  12.130  20.585  0.00  0.00    +0.000 S 
ATOM     18  O   UNL     1      -0.213  13.240  20.774  0.00  0.00    +0.000 OA
ATOM     19  O   UNL     1      -1.576  11.743  19.264  0.00  0.00    +0.000 OA
BRANCH  17  20
ATOM     20  C   UNL     1      -2.552  12.471  21.583  0.00  0.00    +0.000 A 
ATOM     21  C   UNL     1      -3.731  12.875  20.951  0.00  0.00    +0.000 A 
ATOM     22  C   UNL     1      -4.870  13.129  21.717  0.00  0.00    +0.000 A 
ATOM     23  C   UNL     1      -4.834  12.978  23.111  0.00  0.00    +0.000 A 
ATOM     24  C   UNL     1      -3.663  12.517  23.732  0.00  0.00    +0.000 A 
ATOM     25  C   UNL     1      -2.516  12.271  22.967  0.00  0.00    +0.000 A 
BRANCH  23  26
ATOM     26  C   UNL     1      -6.074  13.281  23.872  0.00  0.00    +0.000 C 
ATOM     27  O   UNL     1      -6.951  12.455  24.067  0.00  0.00    +0.000 OA
BRANCH  26  28
ATOM     28  O   UNL     1      -6.175  14.566  24.272  0.00  0.00    +0.000 OA
ATOM     29  H   UNL     1      -7.022  14.814  24.685  0.00  0.00    +0.000 HD
ENDBRANCH  26  28
ENDBRANCH  23  26
ENDBRANCH  17  20
ENDBRANCH   4  17
TORSDOF 5
ENDMDL
MODEL 8
REMARK VINA RESULT:      -7.0      2.599      4.050
REMARK  Name = 
REMARK  6 active torsions:
REMARK  status: ('A' for Active; 'I' for Inactive)
REMARK    1  A    between atoms: C_1  and  C_2
REMARK    2  A    between atoms: N_10  and  C_11
REMARK    3  A    between atoms: N_14  and  S_15
REMARK    4  A    between atoms: S_15  and  C_18
REMARK    5  A    between atoms: C_21  and  C_22
REMARK    6  A    between atoms: C_22  and  O_24
REMARK                            x       y       z     vdW  Elec       q    Type
REMARK                         _______ _______ _______ _____ _____    ______ ____
ROOT
ATOM      1  C   UNL     1      -0.691  12.493  19.036  0.00  0.00    +0.000 C 
ATOM      2  C   UNL     1      -0.880  11.089  18.447  0.00  0.00    +0.000 C 
ATOM      3  C   UNL     1      -0.752   9.966  19.476  0.00  0.00    +0.000 C 
ATOM      4  N   UNL     1       0.518  10.087  20.250  0.00  0.00    +0.000 NA
ATOM      5  C   UNL     1       0.644  11.415  20.922  0.00  0.00    +0.000 C 
ATOM      6  C   UNL     1       0.565  12.550  19.908  0.00  0.00    +0.000 C 
ENDROOT
BRANCH   1  16
ATOM      7  C   UNL     1      -7.330  11.727  20.237  0.00  0.00    +0.000 C 
ATOM      8  C   UNL     1      -5.886  12.045  19.970  0.00  0.00    +0.000 A 
ATOM      9  C   UNL     1      -5.200  11.446  18.902  0.00  0.00    +0.000 A 
ATOM     10  C   UNL     1      -3.839  11.688  18.666  0.00  0.00    +0.000 A 
ATOM     11  C   UNL     1      -3.188  12.564  19.541  0.00  0.00    +0.000 A 
ATOM     12  C   UNL     1      -3.852  13.209  20.580  0.00  0.00    +0.000 A 
ATOM     13  C   UNL     1      -5.212  12.952  20.806  0.00  0.00    +0.000 A 
ATOM     14  N   UNL     1      -2.983  14.026  21.246  0.00  0.00    +0.000 NA
ATOM     15  N   UNL     1      -1.789  13.899  20.687  0.00  0.00    +0.000 NA
ATOM     16  N   UNL     1      -1.891  12.996  19.693  0.00  0.00    +0.000 N 
ENDBRANCH   1  16
BRANCH   4  17
ATOM     17  S   UNL     1       0.744   8.798  21.398  0.00  0.00    +0.000 S 
ATOM     18  O   UNL     1       1.662   9.258  22.417  0.00  0.00    +0.000 OA
ATOM     19  O   UNL     1      -0.564   8.277  21.739  0.00  0.00    +0.000 OA
BRANCH  17  20
ATOM     20  C   UNL     1       1.607   7.555  20.464  0.00  0.00    +0.000 A 
ATOM     21  C   UNL     1       2.251   7.929  19.281  0.00  0.00    +0.000 A 
ATOM     22  C   UNL     1       2.949   6.970  18.545  0.00  0.00    +0.000 A 
ATOM     23  C   UNL     1       3.007   5.641  18.990  0.00  0.00    +0.000 A 
ATOM     24  C   UNL     1       2.407   5.286  20.207  0.00  0.00    +0.000 A 
ATOM     25  C   UNL     1       1.697   6.244  20.943  0.00  0.00    +0.000 A 
BRANCH  23  26
ATOM     26  C   UNL     1       3.751   4.663  18.152  0.00  0.00    +0.000 C 
ATOM     27  O   UNL     1       3.517   4.494  16.967  0.00  0.00    +0.000 OA
BRANCH  26  28
ATOM     28  O   UNL     1       4.660   3.934  18.832  0.00  0.00    +0.000 OA
ATOM     29  H   UNL     1       4.369   3.046  19.105  0.00  0.00    +0.000 HD
ENDBRANCH  26  28
ENDBRANCH  23  26
ENDBRANCH  17  20
ENDBRANCH   4  17
TORSDOF 5
ENDMDL
MODEL 9
REMARK VINA RESULT:      -7.0      3.171      4.366
REMARK  Name = 
REMARK  6 active torsions:
REMARK  status: ('A' for Active; 'I' for Inactive)
REMARK    1  A    between atoms: C_1  and  C_2
REMARK    2  A    between atoms: N_10  and  C_11
REMARK    3  A    between atoms: N_14  and  S_15
REMARK    4  A    between atoms: S_15  and  C_18
REMARK    5  A    between atoms: C_21  and  C_22
REMARK    6  A    between atoms: C_22  and  O_24
REMARK                            x       y       z     vdW  Elec       q    Type
REMARK                         _______ _______ _______ _____ _____    ______ ____
ROOT
ATOM      1  C   UNL     1       2.041   5.565  19.534  0.00  0.00    +0.000 C 
ATOM      2  C   UNL     1       3.146   4.780  20.252  0.00  0.00    +0.000 C 
ATOM      3  C   UNL     1       4.559   5.162  19.812  0.00  0.00    +0.000 C 
ATOM      4  N   UNL     1       4.697   5.100  18.328  0.00  0.00    +0.000 NA
ATOM      5  C   UNL     1       3.693   5.961  17.632  0.00  0.00    +0.000 C 
ATOM      6  C   UNL     1       2.274   5.568  18.021  0.00  0.00    +0.000 C 
ENDROOT
BRANCH   1  16
ATOM      7  C   UNL     1       0.775  12.146  18.442  0.00  0.00    +0.000 C 
ATOM      8  C   UNL     1       1.143  10.734  18.797  0.00  0.00    +0.000 A 
ATOM      9  C   UNL     1       1.644   9.852  17.827  0.00  0.00    +0.000 A 
ATOM     10  C   UNL     1       1.945   8.515  18.125  0.00  0.00    +0.000 A 
ATOM     11  C   UNL     1       1.731   8.094  19.442  0.00  0.00    +0.000 A 
ATOM     12  C   UNL     1       1.280   8.956  20.436  0.00  0.00    +0.000 A 
ATOM     13  C   UNL     1       0.978  10.288  20.120  0.00  0.00    +0.000 A 
ATOM     14  N   UNL     1       1.196   8.287  21.624  0.00  0.00    +0.000 NA
ATOM     15  N   UNL     1       1.547   7.028  21.411  0.00  0.00    +0.000 NA
ATOM     16  N   UNL     1       1.830   6.891  20.102  0.00  0.00    +0.000 N 
ENDBRANCH   1  16
BRANCH   4  17
ATOM     17  S   UNL     1       6.305   5.468  17.774  0.00  0.00    +0.000 S 
ATOM     18  O   UNL     1       6.431   6.906  17.678  0.00  0.00    +0.000 OA
ATOM     19  O   UNL     1       7.234   4.680  18.559  0.00  0.00    +0.000 OA
BRANCH  17  20
ATOM     20  C   UNL     1       6.325   4.846  16.109  0.00  0.00    +0.000 A 
ATOM     21  C   UNL     1       5.376   3.891  15.737  0.00  0.00    +0.000 A 
ATOM     22  C   UNL     1       5.365   3.405  14.428  0.00  0.00    +0.000 A 
ATOM     23  C   UNL     1       6.297   3.874  13.491  0.00  0.00    +0.000 A 
ATOM     24  C   UNL     1       7.210   4.875  13.857  0.00  0.00    +0.000 A 
ATOM     25  C   UNL     1       7.230   5.357  15.172  0.00  0.00    +0.000 A 
BRANCH  23  26
ATOM     26  C   UNL     1       6.246   3.305  12.118  0.00  0.00    +0.000 C 
ATOM     27  O   UNL     1       7.237   2.906  11.530  0.00  0.00    +0.000 OA
BRANCH  26  28
ATOM     28  O   UNL     1       5.019   3.329  11.557  0.00  0.00    +0.000 OA
ATOM     29  H   UNL     1       4.938   3.856  10.742  0.00  0.00    +0.000 HD
ENDBRANCH  26  28
ENDBRANCH  23  26
ENDBRANCH  17  20
ENDBRANCH   4  17
TORSDOF 5
ENDMDL
