MODEL 1
REMARK VINA RESULT:      -7.6      0.000      0.000
REMARK  Name = 
REMARK  9 active torsions:
REMARK  status: ('A' for Active; 'I' for Inactive)
REMARK    1  A    between atoms: C_1  and  O_2
REMARK    2  A    between atoms: O_2  and  C_3
REMARK    3  A    between atoms: C_12  and  C_13
REMARK    4  A    between atoms: C_13  and  N_14
REMARK    5  A    between atoms: N_14  and  C_15
REMARK    6  A    between atoms: N_14  and  C_16
REMARK    7  A    between atoms: C_16  and  C_17
REMARK    8  A    between atoms: C_17  and  C_18
REMARK    9  A    between atoms: C_23  and  C_24
REMARK                            x       y       z     vdW  Elec       q    Type
REMARK                         _______ _______ _______ _____ _____    ______ ____
ROOT
ATOM      1  N   UNL     1       6.971   6.319  17.503  0.00  0.00    +0.000 NA
ATOM      2  C   UNL     1       6.815   5.899  16.107  0.00  0.00    +0.000 C 
ENDROOT
BRANCH   1   3
ATOM      3  C   UNL     1       5.739   6.129  18.313  0.00  0.00    +0.000 C 
BRANCH   3  13
ATOM      4  C   UNL     1       2.169   3.308  19.444  0.00  0.00    +0.000 A 
ATOM      5  C   UNL     1       2.642   2.125  18.870  0.00  0.00    +0.000 A 
ATOM      6  C   UNL     1       3.689   2.159  17.951  0.00  0.00    +0.000 A 
ATOM      7  C   UNL     1       4.246   3.378  17.571  0.00  0.00    +0.000 A 
ATOM      8  C   UNL     1       3.757   4.585  18.096  0.00  0.00    +0.000 A 
ATOM      9  C   UNL     1       2.715   4.549  19.057  0.00  0.00    +0.000 A 
ATOM     10  C   UNL     1       2.119   5.821  19.626  0.00  0.00    +0.000 C 
ATOM     11  C   UNL     1       2.889   7.084  19.264  0.00  0.00    +0.000 C 
ATOM     12  C   UNL     1       3.310   7.011  17.805  0.00  0.00    +0.000 C 
ATOM     13  C   UNL     1       4.363   5.911  17.610  0.00  0.00    +0.000 C 
BRANCH   4  15
ATOM     14  C   UNL     1       1.423   2.768  21.624  0.00  0.00    +0.000 C 
ATOM     15  O   UNL     1       1.143   3.349  20.356  0.00  0.00    +0.000 OA
ENDBRANCH   4  15
ENDBRANCH   3  13
ENDBRANCH   1   3
BRANCH   1  16
ATOM     16  C   UNL     1       7.380   7.746  17.506  0.00  0.00    +0.000 C 
BRANCH  16  17
ATOM     17  C   UNL     1       8.355   8.115  18.636  0.00  0.00    +0.000 C 
BRANCH  17  18
ATOM     18  C   UNL     1       8.676   9.591  18.622  0.00  0.00    +0.000 A 
ATOM     19  C   UNL     1       8.135  10.417  17.626  0.00  0.00    +0.000 A 
ATOM     20  C   UNL     1       8.436  11.778  17.591  0.00  0.00    +0.000 A 
ATOM     21  C   UNL     1       9.293  12.333  18.559  0.00  0.00    +0.000 A 
ATOM     22  N   UNL     1       9.675  13.663  18.640  0.00  0.00    +0.000 NA
ATOM     23  C   UNL     1      10.486  13.832  19.660  0.00  0.00    +0.000 A 
ATOM     24  C   UNL     1      11.095  15.133  20.040  0.00  0.00    +0.000 C 
ATOM     25  S   UNL     1      10.836  12.427  20.581  0.00  0.00    +0.000 S 
ATOM     26  C   UNL     1       9.828  11.499  19.541  0.00  0.00    +0.000 A 
ATOM     27  C   UNL     1       9.534  10.128  19.591  0.00  0.00    +0.000 A 
ENDBRANCH  17  18
ENDBRANCH  16  17
ENDBRANCH   1  16
TORSDOF 6
ENDMDL
MODEL 2
REMARK VINA RESULT:      -7.5      6.148      9.453
REMARK  Name = 
REMARK  9 active torsions:
REMARK  status: ('A' for Active; 'I' for Inactive)
REMARK    1  A    between atoms: C_1  and  O_2
REMARK    2  A    between atoms: O_2  and  C_3
REMARK    3  A    between atoms: C_12  and  C_13
REMARK    4  A    between atoms: C_13  and  N_14
REMARK    5  A    between atoms: N_14  and  C_15
REMARK    6  A    between atoms: N_14  and  C_16
REMARK    7  A    between atoms: C_16  and  C_17
REMARK    8  A    between atoms: C_17  and  C_18
REMARK    9  A    between atoms: C_23  and  C_24
REMARK                            x       y       z     vdW  Elec       q    Type
REMARK                         _______ _______ _______ _____ _____    ______ ____
ROOT
ATOM      1  N   UNL     1       0.698   9.782  21.282  0.00  0.00    +0.000 NA
ATOM      2  C   UNL     1       0.119   9.623  22.620  0.00  0.00    +0.000 C 
ENDROOT
BRANCH   1   3
ATOM      3  C   UNL     1      -0.322   9.811  20.202  0.00  0.00    +0.000 C 
BRANCH   3  13
ATOM      4  C   UNL     1      -4.031  11.406  17.816  0.00  0.00    +0.000 A 
ATOM      5  C   UNL     1      -3.904  10.614  16.672  0.00  0.00    +0.000 A 
ATOM      6  C   UNL     1      -2.714   9.940  16.411  0.00  0.00    +0.000 A 
ATOM      7  C   UNL     1      -1.628  10.079  17.274  0.00  0.00    +0.000 A 
ATOM      8  C   UNL     1      -1.713  10.907  18.405  0.00  0.00    +0.000 A 
ATOM      9  C   UNL     1      -2.935  11.567  18.689  0.00  0.00    +0.000 A 
ATOM     10  C   UNL     1      -3.072  12.505  19.871  0.00  0.00    +0.000 C 
ATOM     11  C   UNL     1      -1.886  12.475  20.828  0.00  0.00    +0.000 C 
ATOM     12  C   UNL     1      -0.597  12.424  20.024  0.00  0.00    +0.000 C 
ATOM     13  C   UNL     1      -0.475  11.077  19.300  0.00  0.00    +0.000 C 
BRANCH   4  15
ATOM     14  C   UNL     1      -6.388  11.366  18.021  0.00  0.00    +0.000 C 
ATOM     15  O   UNL     1      -5.173  12.097  18.136  0.00  0.00    +0.000 OA
ENDBRANCH   4  15
ENDBRANCH   3  13
ENDBRANCH   1   3
BRANCH   1  16
ATOM     16  C   UNL     1       1.653   8.665  21.065  0.00  0.00    +0.000 C 
BRANCH  16  17
ATOM     17  C   UNL     1       1.019   7.269  21.178  0.00  0.00    +0.000 C 
BRANCH  17  18
ATOM     18  C   UNL     1       1.712   6.279  20.272  0.00  0.00    +0.000 A 
ATOM     19  C   UNL     1       1.426   4.910  20.381  0.00  0.00    +0.000 A 
ATOM     20  C   UNL     1       2.071   3.982  19.564  0.00  0.00    +0.000 A 
ATOM     21  C   UNL     1       3.021   4.416  18.622  0.00  0.00    +0.000 A 
ATOM     22  N   UNL     1       3.733   3.606  17.752  0.00  0.00    +0.000 NA
ATOM     23  C   UNL     1       4.538   4.340  17.017  0.00  0.00    +0.000 A 
ATOM     24  C   UNL     1       5.455   3.798  15.981  0.00  0.00    +0.000 C 
ATOM     25  S   UNL     1       4.491   6.029  17.313  0.00  0.00    +0.000 S 
ATOM     26  C   UNL     1       3.300   5.780  18.528  0.00  0.00    +0.000 A 
ATOM     27  C   UNL     1       2.659   6.727  19.342  0.00  0.00    +0.000 A 
ENDBRANCH  17  18
ENDBRANCH  16  17
ENDBRANCH   1  16
TORSDOF 6
ENDMDL
MODEL 3
REMARK VINA RESULT:      -7.5      0.916      1.282
REMARK  Name = 
REMARK  9 active torsions:
REMARK  status: ('A' for Active; 'I' for Inactive)
REMARK    1  A    between atoms: C_1  and  O_2
REMARK    2  A    between atoms: O_2  and  C_3
REMARK    3  A    between atoms: C_12  and  C_13
REMARK    4  A    between atoms: C_13  and  N_14
REMARK    5  A    between atoms: N_14  and  C_15
REMARK    6  A    between atoms: N_14  and  C_16
REMARK    7  A    between atoms: C_16  and  C_17
REMARK    8  A    between atoms: C_17  and  C_18
REMARK    9  A    between atoms: C_23  and  C_24
REMARK                            x       y       z     vdW  Elec       q    Type
REMARK                         _______ _______ _______ _____ _____    ______ ____
ROOT
ATOM      1  N   UNL     1       7.222   6.084  17.779  0.00  0.00    +0.000 NA
ATOM      2  C   UNL     1       7.076   6.330  16.341  0.00  0.00    +0.000 C 
ENDROOT
BRANCH   1   3
ATOM      3  C   UNL     1       5.920   5.940  18.484  0.00  0.00    +0.000 C 
BRANCH   3  13
ATOM      4  C   UNL     1       2.124   3.273  19.167  0.00  0.00    +0.000 A 
ATOM      5  C   UNL     1       2.575   2.101  18.556  0.00  0.00    +0.000 A 
ATOM      6  C   UNL     1       3.690   2.127  17.720  0.00  0.00    +0.000 A 
ATOM      7  C   UNL     1       4.341   3.331  17.461  0.00  0.00    +0.000 A 
ATOM      8  C   UNL     1       3.879   4.531  18.023  0.00  0.00    +0.000 A 
ATOM      9  C   UNL     1       2.766   4.500  18.901  0.00  0.00    +0.000 A 
ATOM     10  C   UNL     1       2.198   5.770  19.504  0.00  0.00    +0.000 C 
ATOM     11  C   UNL     1       3.062   7.005  19.280  0.00  0.00    +0.000 C 
ATOM     12  C   UNL     1       3.590   6.992  17.854  0.00  0.00    +0.000 C 
ATOM     13  C   UNL     1       4.592   5.845  17.668  0.00  0.00    +0.000 C 
BRANCH   4  15
ATOM     14  C   UNL     1       1.242   2.815  21.315  0.00  0.00    +0.000 C 
ATOM     15  O   UNL     1       1.035   3.321  20.002  0.00  0.00    +0.000 OA
ENDBRANCH   4  15
ENDBRANCH   3  13
ENDBRANCH   1   3
BRANCH   1  16
ATOM     16  C   UNL     1       8.003   7.207  18.356  0.00  0.00    +0.000 C 
BRANCH  16  17
ATOM     17  C   UNL     1       7.796   8.549  17.634  0.00  0.00    +0.000 C 
BRANCH  17  18
ATOM     18  C   UNL     1       8.593   9.652  18.290  0.00  0.00    +0.000 A 
ATOM     19  C   UNL     1       8.914   9.569  19.653  0.00  0.00    +0.000 A 
ATOM     20  C   UNL     1       9.634  10.588  20.276  0.00  0.00    +0.000 A 
ATOM     21  C   UNL     1      10.041  11.714  19.537  0.00  0.00    +0.000 A 
ATOM     22  N   UNL     1      10.756  12.795  20.028  0.00  0.00    +0.000 NA
ATOM     23  C   UNL     1      10.958  13.669  19.068  0.00  0.00    +0.000 A 
ATOM     24  C   UNL     1      11.687  14.952  19.242  0.00  0.00    +0.000 C 
ATOM     25  S   UNL     1      10.317  13.256  17.531  0.00  0.00    +0.000 S 
ATOM     26  C   UNL     1       9.708  11.786  18.183  0.00  0.00    +0.000 A 
ATOM     27  C   UNL     1       8.986  10.769  17.542  0.00  0.00    +0.000 A 
ENDBRANCH  17  18
ENDBRANCH  16  17
ENDBRANCH   1  16
TORSDOF 6
ENDMDL
MODEL 4
REMARK VINA RESULT:      -7.4      3.274      6.087
REMARK  Name = 
REMARK  9 active torsions:
REMARK  status: ('A' for Active; 'I' for Inactive)
REMARK    1  A    between atoms: C_1  and  O_2
REMARK    2  A    between atoms: O_2  and  C_3
REMARK    3  A    between atoms: C_12  and  C_13
REMARK    4  A    between atoms: C_13  and  N_14
REMARK    5  A    between atoms: N_14  and  C_15
REMARK    6  A    between atoms: N_14  and  C_16
REMARK    7  A    between atoms: C_16  and  C_17
REMARK    8  A    between atoms: C_17  and  C_18
REMARK    9  A    between atoms: C_23  and  C_24
REMARK                            x       y       z     vdW  Elec       q    Type
REMARK                         _______ _______ _______ _____ _____    ______ ____
ROOT
ATOM      1  N   UNL     1       2.160   3.518  18.282  0.00  0.00    +0.000 NA
ATOM      2  C   UNL     1       0.901   2.820  18.558  0.00  0.00    +0.000 C 
ENDROOT
BRANCH   1   3
ATOM      3  C   UNL     1       1.996   4.988  18.139  0.00  0.00    +0.000 C 
BRANCH   3  13
ATOM      4  C   UNL     1       1.041   9.315  19.675  0.00  0.00    +0.000 A 
ATOM      5  C   UNL     1       1.403  10.031  18.531  0.00  0.00    +0.000 A 
ATOM      6  C   UNL     1       2.169   9.428  17.536  0.00  0.00    +0.000 A 
ATOM      7  C   UNL     1       2.608   8.115  17.692  0.00  0.00    +0.000 A 
ATOM      8  C   UNL     1       2.300   7.389  18.853  0.00  0.00    +0.000 A 
ATOM      9  C   UNL     1       1.492   7.991  19.851  0.00  0.00    +0.000 A 
ATOM     10  C   UNL     1       1.162   7.270  21.143  0.00  0.00    +0.000 C 
ATOM     11  C   UNL     1       1.561   5.800  21.154  0.00  0.00    +0.000 C 
ATOM     12  C   UNL     1       2.930   5.650  20.511  0.00  0.00    +0.000 C 
ATOM     13  C   UNL     1       2.850   5.962  19.011  0.00  0.00    +0.000 C 
BRANCH   4  15
ATOM     14  C   UNL     1       0.611  11.180  21.067  0.00  0.00    +0.000 C 
ATOM     15  O   UNL     1       0.289   9.845  20.693  0.00  0.00    +0.000 OA
ENDBRANCH   4  15
ENDBRANCH   3  13
ENDBRANCH   1   3
BRANCH   1  16
ATOM     16  C   UNL     1       2.741   2.937  17.045  0.00  0.00    +0.000 C 
BRANCH  16  17
ATOM     17  C   UNL     1       4.267   2.756  17.096  0.00  0.00    +0.000 C 
BRANCH  17  18
ATOM     18  C   UNL     1       4.979   4.087  17.042  0.00  0.00    +0.000 A 
ATOM     19  C   UNL     1       4.720   4.979  15.991  0.00  0.00    +0.000 A 
ATOM     20  C   UNL     1       5.382   6.204  15.920  0.00  0.00    +0.000 A 
ATOM     21  C   UNL     1       6.324   6.552  16.905  0.00  0.00    +0.000 A 
ATOM     22  N   UNL     1       7.053   7.730  16.953  0.00  0.00    +0.000 NA
ATOM     23  C   UNL     1       7.843   7.721  18.003  0.00  0.00    +0.000 A 
ATOM     24  C   UNL     1       8.771   8.825  18.362  0.00  0.00    +0.000 C 
ATOM     25  S   UNL     1       7.763   6.321  18.991  0.00  0.00    +0.000 S 
ATOM     26  C   UNL     1       6.577   5.652  17.941  0.00  0.00    +0.000 A 
ATOM     27  C   UNL     1       5.918   4.416  18.028  0.00  0.00    +0.000 A 
ENDBRANCH  17  18
ENDBRANCH  16  17
ENDBRANCH   1  16
TORSDOF 6
ENDMDL
MODEL 5
REMARK VINA RESULT:      -7.4      5.989      9.157
REMARK  Name = 
REMARK  9 active torsions:
REMARK  status: ('A' for Active; 'I' for Inactive)
REMARK    1  A    between atoms: C_1  and  O_2
REMARK    2  A    between atoms: O_2  and  C_3
REMARK    3  A    between atoms: C_12  and  C_13
REMARK    4  A    between atoms: C_13  and  N_14
REMARK    5  A    between atoms: N_14  and  C_15
REMARK    6  A    between atoms: N_14  and  C_16
REMARK    7  A    between atoms: C_16  and  C_17
REMARK    8  A    between atoms: C_17  and  C_18
REMARK    9  A    between atoms: C_23  and  C_24
REMARK                            x       y       z     vdW  Elec       q    Type
REMARK                         _______ _______ _______ _____ _____    ______ ____
ROOT
ATOM      1  N   UNL     1       0.822   9.606  21.278  0.00  0.00    +0.000 NA
ATOM      2  C   UNL     1       0.824   9.368  22.724  0.00  0.00    +0.000 C 
ENDROOT
BRANCH   1   3
ATOM      3  C   UNL     1      -0.502  10.039  20.757  0.00  0.00    +0.000 C 
BRANCH   3  13
ATOM      4  C   UNL     1      -4.020  11.457  18.001  0.00  0.00    +0.000 A 
ATOM      5  C   UNL     1      -3.768  10.639  16.896  0.00  0.00    +0.000 A 
ATOM      6  C   UNL     1      -2.541   9.993  16.765  0.00  0.00    +0.000 A 
ATOM      7  C   UNL     1      -1.543  10.188  17.717  0.00  0.00    +0.000 A 
ATOM      8  C   UNL     1      -1.752  11.043  18.810  0.00  0.00    +0.000 A 
ATOM      9  C   UNL     1      -3.013  11.674  18.963  0.00  0.00    +0.000 A 
ATOM     10  C   UNL     1      -3.282  12.640  20.100  0.00  0.00    +0.000 C 
ATOM     11  C   UNL     1      -2.188  12.672  21.161  0.00  0.00    +0.000 C 
ATOM     12  C   UNL     1      -0.830  12.637  20.478  0.00  0.00    +0.000 C 
ATOM     13  C   UNL     1      -0.607  11.274  19.808  0.00  0.00    +0.000 C 
BRANCH   4  15
ATOM     14  C   UNL     1      -5.846  12.597  17.016  0.00  0.00    +0.000 C 
ATOM     15  O   UNL     1      -5.205  12.123  18.195  0.00  0.00    +0.000 OA
ENDBRANCH   4  15
ENDBRANCH   3  13
ENDBRANCH   1   3
BRANCH   1  16
ATOM     16  C   UNL     1       1.257   8.353  20.610  0.00  0.00    +0.000 C 
BRANCH  16  17
ATOM     17  C   UNL     1       1.761   8.553  19.172  0.00  0.00    +0.000 C 
BRANCH  17  18
ATOM     18  C   UNL     1       2.589   7.376  18.712  0.00  0.00    +0.000 A 
ATOM     19  C   UNL     1       2.575   6.180  19.444  0.00  0.00    +0.000 A 
ATOM     20  C   UNL     1       3.347   5.092  19.042  0.00  0.00    +0.000 A 
ATOM     21  C   UNL     1       4.154   5.189  17.894  0.00  0.00    +0.000 A 
ATOM     22  N   UNL     1       4.969   4.189  17.385  0.00  0.00    +0.000 NA
ATOM     23  C   UNL     1       5.585   4.622  16.309  0.00  0.00    +0.000 A 
ATOM     24  C   UNL     1       6.542   3.814  15.509  0.00  0.00    +0.000 C 
ATOM     25  S   UNL     1       5.231   6.233  15.838  0.00  0.00    +0.000 S 
ATOM     26  C   UNL     1       4.164   6.387  17.179  0.00  0.00    +0.000 A 
ATOM     27  C   UNL     1       3.391   7.491  17.569  0.00  0.00    +0.000 A 
ENDBRANCH  17  18
ENDBRANCH  16  17
ENDBRANCH   1  16
TORSDOF 6
ENDMDL
MODEL 6
REMARK VINA RESULT:      -7.4      6.147      9.467
REMARK  Name = 
REMARK  9 active torsions:
REMARK  status: ('A' for Active; 'I' for Inactive)
REMARK    1  A    between atoms: C_1  and  O_2
REMARK    2  A    between atoms: O_2  and  C_3
REMARK    3  A    between atoms: C_12  and  C_13
REMARK    4  A    between atoms: C_13  and  N_14
REMARK    5  A    between atoms: N_14  and  C_15
REMARK    6  A    between atoms: N_14  and  C_16
REMARK    7  A    between atoms: C_16  and  C_17
REMARK    8  A    between atoms: C_17  and  C_18
REMARK    9  A    between atoms: C_23  and  C_24
REMARK                            x       y       z     vdW  Elec       q    Type
REMARK                         _______ _______ _______ _____ _____    ______ ____
ROOT
ATOM      1  N   UNL     1       1.113   9.415  19.896  0.00  0.00    +0.000 NA
ATOM      2  C   UNL     1       1.274   8.362  20.903  0.00  0.00    +0.000 C 
ENDROOT
BRANCH   1   3
ATOM      3  C   UNL     1      -0.146  10.189  20.054  0.00  0.00    +0.000 C 
BRANCH   3  13
ATOM      4  C   UNL     1      -4.191  11.487  18.069  0.00  0.00    +0.000 A 
ATOM      5  C   UNL     1      -4.182  10.615  16.978  0.00  0.00    +0.000 A 
ATOM      6  C   UNL     1      -3.010   9.958  16.612  0.00  0.00    +0.000 A 
ATOM      7  C   UNL     1      -1.829  10.195  17.312  0.00  0.00    +0.000 A 
ATOM      8  C   UNL     1      -1.799  11.104  18.382  0.00  0.00    +0.000 A 
ATOM      9  C   UNL     1      -2.999  11.747  18.776  0.00  0.00    +0.000 A 
ATOM     10  C   UNL     1      -3.019  12.768  19.897  0.00  0.00    +0.000 C 
ATOM     11  C   UNL     1      -1.720  12.846  20.689  0.00  0.00    +0.000 C 
ATOM     12  C   UNL     1      -0.544  12.772  19.728  0.00  0.00    +0.000 C 
ATOM     13  C   UNL     1      -0.464  11.378  19.093  0.00  0.00    +0.000 C 
BRANCH   4  15
ATOM     14  C   UNL     1      -6.289  12.414  17.485  0.00  0.00    +0.000 C 
ATOM     15  O   UNL     1      -5.309  12.167  18.486  0.00  0.00    +0.000 OA
ENDBRANCH   4  15
ENDBRANCH   3  13
ENDBRANCH   1   3
BRANCH   1  16
ATOM     16  C   UNL     1       1.164   8.776  18.556  0.00  0.00    +0.000 C 
BRANCH  16  17
ATOM     17  C   UNL     1       2.565   8.764  17.922  0.00  0.00    +0.000 C 
BRANCH  17  18
ATOM     18  C   UNL     1       3.114   7.360  17.833  0.00  0.00    +0.000 A 
ATOM     19  C   UNL     1       4.341   7.126  17.196  0.00  0.00    +0.000 A 
ATOM     20  C   UNL     1       4.851   5.833  17.091  0.00  0.00    +0.000 A 
ATOM     21  C   UNL     1       4.132   4.748  17.624  0.00  0.00    +0.000 A 
ATOM     22  N   UNL     1       4.520   3.417  17.588  0.00  0.00    +0.000 NA
ATOM     23  C   UNL     1       3.609   2.672  18.172  0.00  0.00    +0.000 A 
ATOM     24  C   UNL     1       3.697   1.195  18.309  0.00  0.00    +0.000 C 
ATOM     25  S   UNL     1       2.247   3.505  18.798  0.00  0.00    +0.000 S 
ATOM     26  C   UNL     1       2.909   4.995  18.250  0.00  0.00    +0.000 A 
ATOM     27  C   UNL     1       2.382   6.290  18.365  0.00  0.00    +0.000 A 
ENDBRANCH  17  18
ENDBRANCH  16  17
ENDBRANCH   1  16
TORSDOF 6
ENDMDL
MODEL 7
REMARK VINA RESULT:      -7.4      6.329      9.478
REMARK  Name = 
REMARK  9 active torsions:
REMARK  status: ('A' for Active; 'I' for Inactive)
REMARK    1  A    between atoms: C_1  and  O_2
REMARK    2  A    between atoms: O_2  and  C_3
REMARK    3  A    between atoms: C_12  and  C_13
REMARK    4  A    between atoms: C_13  and  N_14
REMARK    5  A    between atoms: N_14  and  C_15
REMARK    6  A    between atoms: N_14  and  C_16
REMARK    7  A    between atoms: C_16  and  C_17
REMARK    8  A    between atoms: C_17  and  C_18
REMARK    9  A    between atoms: C_23  and  C_24
REMARK                            x       y       z     vdW  Elec       q    Type
REMARK                         _______ _______ _______ _____ _____    ______ ____
ROOT
ATOM      1  N   UNL     1       0.799  10.023  19.639  0.00  0.00    +0.000 NA
ATOM      2  C   UNL     1       0.603   9.558  21.016  0.00  0.00    +0.000 C 
ENDROOT
BRANCH   1   3
ATOM      3  C   UNL     1      -0.475  10.198  18.893  0.00  0.00    +0.000 C 
BRANCH   3  13
ATOM      4  C   UNL     1      -4.800  11.877  18.219  0.00  0.00    +0.000 A 
ATOM      5  C   UNL     1      -4.999  11.435  16.908  0.00  0.00    +0.000 A 
ATOM      6  C   UNL     1      -3.919  11.008  16.139  0.00  0.00    +0.000 A 
ATOM      7  C   UNL     1      -2.628  11.054  16.661  0.00  0.00    +0.000 A 
ATOM      8  C   UNL     1      -2.395  11.539  17.957  0.00  0.00    +0.000 A 
ATOM      9  C   UNL     1      -3.497  11.942  18.753  0.00  0.00    +0.000 A 
ATOM     10  C   UNL     1      -3.303  12.513  20.143  0.00  0.00    +0.000 C 
ATOM     11  C   UNL     1      -1.881  12.385  20.675  0.00  0.00    +0.000 C 
ATOM     12  C   UNL     1      -0.900  12.710  19.559  0.00  0.00    +0.000 C 
ATOM     13  C   UNL     1      -0.951  11.625  18.475  0.00  0.00    +0.000 C 
BRANCH   4  15
ATOM     14  C   UNL     1      -7.130  11.940  18.630  0.00  0.00    +0.000 C 
ATOM     15  O   UNL     1      -5.817  12.311  19.033  0.00  0.00    +0.000 OA
ENDBRANCH   4  15
ENDBRANCH   3  13
ENDBRANCH   1   3
BRANCH   1  16
ATOM     16  C   UNL     1       1.675   9.043  18.949  0.00  0.00    +0.000 C 
BRANCH  16  17
ATOM     17  C   UNL     1       1.957   7.771  19.765  0.00  0.00    +0.000 C 
BRANCH  17  18
ATOM     18  C   UNL     1       2.618   6.711  18.917  0.00  0.00    +0.000 A 
ATOM     19  C   UNL     1       2.331   5.356  19.138  0.00  0.00    +0.000 A 
ATOM     20  C   UNL     1       2.947   4.365  18.375  0.00  0.00    +0.000 A 
ATOM     21  C   UNL     1       3.869   4.721  17.374  0.00  0.00    +0.000 A 
ATOM     22  N   UNL     1       4.553   3.843  16.548  0.00  0.00    +0.000 NA
ATOM     23  C   UNL     1       5.337   4.515  15.735  0.00  0.00    +0.000 A 
ATOM     24  C   UNL     1       6.220   3.890  14.717  0.00  0.00    +0.000 C 
ATOM     25  S   UNL     1       5.305   6.222  15.903  0.00  0.00    +0.000 S 
ATOM     26  C   UNL     1       4.150   6.072  17.169  0.00  0.00    +0.000 A 
ATOM     27  C   UNL     1       3.538   7.081  17.928  0.00  0.00    +0.000 A 
ENDBRANCH  17  18
ENDBRANCH  16  17
ENDBRANCH   1  16
TORSDOF 6
ENDMDL
MODEL 8
REMARK VINA RESULT:      -7.3      6.161      9.058
REMARK  Name = 
REMARK  9 active torsions:
REMARK  status: ('A' for Active; 'I' for Inactive)
REMARK    1  A    between atoms: C_1  and  O_2
REMARK    2  A    between atoms: O_2  and  C_3
REMARK    3  A    between atoms: C_12  and  C_13
REMARK    4  A    between atoms: C_13  and  N_14
REMARK    5  A    between atoms: N_14  and  C_15
REMARK    6  A    between atoms: N_14  and  C_16
REMARK    7  A    between atoms: C_16  and  C_17
REMARK    8  A    between atoms: C_17  and  C_18
REMARK    9  A    between atoms: C_23  and  C_24
REMARK                            x       y       z     vdW  Elec       q    Type
REMARK                         _______ _______ _______ _____ _____    ______ ____
ROOT
ATOM      1  N   UNL     1       1.958   9.034  18.883  0.00  0.00    +0.000 NA
ATOM      2  C   UNL     1       2.122   9.920  17.727  0.00  0.00    +0.000 C 
ENDROOT
BRANCH   1   3
ATOM      3  C   UNL     1       2.025   7.591  18.530  0.00  0.00    +0.000 C 
BRANCH   3  13
ATOM      4  C   UNL     1       2.287   2.914  18.742  0.00  0.00    +0.000 A 
ATOM      5  C   UNL     1       1.438   2.702  19.831  0.00  0.00    +0.000 A 
ATOM      6  C   UNL     1       1.085   3.761  20.664  0.00  0.00    +0.000 A 
ATOM      7  C   UNL     1       1.606   5.033  20.436  0.00  0.00    +0.000 A 
ATOM      8  C   UNL     1       2.500   5.263  19.378  0.00  0.00    +0.000 A 
ATOM      9  C   UNL     1       2.833   4.194  18.510  0.00  0.00    +0.000 A 
ATOM     10  C   UNL     1       3.824   4.373  17.377  0.00  0.00    +0.000 C 
ATOM     11  C   UNL     1       4.221   5.822  17.122  0.00  0.00    +0.000 C 
ATOM     12  C   UNL     1       4.431   6.523  18.454  0.00  0.00    +0.000 C 
ATOM     13  C   UNL     1       3.094   6.668  19.195  0.00  0.00    +0.000 C 
BRANCH   4  15
ATOM     14  C   UNL     1       3.709   1.062  18.354  0.00  0.00    +0.000 C 
ATOM     15  O   UNL     1       2.676   1.918  17.880  0.00  0.00    +0.000 OA
ENDBRANCH   4  15
ENDBRANCH   3  13
ENDBRANCH   1   3
BRANCH   1  16
ATOM     16  C   UNL     1       0.655   9.353  19.520  0.00  0.00    +0.000 C 
BRANCH  16  17
ATOM     17  C   UNL     1       0.196  10.805  19.310  0.00  0.00    +0.000 C 
BRANCH  17  18
ATOM     18  C   UNL     1      -1.206  10.860  18.748  0.00  0.00    +0.000 A 
ATOM     19  C   UNL     1      -1.532  10.115  17.605  0.00  0.00    +0.000 A 
ATOM     20  C   UNL     1      -2.817  10.169  17.065  0.00  0.00    +0.000 A 
ATOM     21  C   UNL     1      -3.797  10.980  17.665  0.00  0.00    +0.000 A 
ATOM     22  N   UNL     1      -5.106  11.128  17.233  0.00  0.00    +0.000 NA
ATOM     23  C   UNL     1      -5.742  11.966  18.020  0.00  0.00    +0.000 A 
ATOM     24  C   UNL     1      -7.164  12.362  17.847  0.00  0.00    +0.000 C 
ATOM     25  S   UNL     1      -4.828  12.620  19.315  0.00  0.00    +0.000 S 
ATOM     26  C   UNL     1      -3.456  11.721  18.797  0.00  0.00    +0.000 A 
ATOM     27  C   UNL     1      -2.169  11.676  19.354  0.00  0.00    +0.000 A 
ENDBRANCH  17  18
ENDBRANCH  16  17
ENDBRANCH   1  16
TORSDOF 6
ENDMDL
MODEL 9
REMARK VINA RESULT:      -7.3      5.002      7.666
REMARK  Name = 
REMARK  9 active torsions:
REMARK  status: ('A' for Active; 'I' for Inactive)
REMARK    1  A    between atoms: C_1  and  O_2
REMARK    2  A    between atoms: O_2  and  C_3
REMARK    3  A    between atoms: C_12  and  C_13
REMARK    4  A    between atoms: C_13  and  N_14
REMARK    5  A    between atoms: N_14  and  C_15
REMARK    6  A    between atoms: N_14  and  C_16
REMARK    7  A    between atoms: C_16  and  C_17
REMARK    8  A    between atoms: C_17  and  C_18
REMARK    9  A    between atoms: C_23  and  C_24
REMARK                            x       y       z     vdW  Elec       q    Type
REMARK                         _______ _______ _______ _____ _____    ______ ____
ROOT
ATOM      1  N   UNL     1       3.169   5.383  19.232  0.00  0.00    +0.000 NA
ATOM      2  C   UNL     1       3.120   4.316  20.238  0.00  0.00    +0.000 C 
ENDROOT
BRANCH   1   3
ATOM      3  C   UNL     1       4.534   5.938  19.032  0.00  0.00    +0.000 C 
BRANCH   3  13
ATOM      4  C   UNL     1       6.820   4.980  15.052  0.00  0.00    +0.000 A 
ATOM      5  C   UNL     1       5.950   4.018  14.533  0.00  0.00    +0.000 A 
ATOM      6  C   UNL     1       4.994   3.420  15.351  0.00  0.00    +0.000 A 
ATOM      7  C   UNL     1       4.922   3.754  16.702  0.00  0.00    +0.000 A 
ATOM      8  C   UNL     1       5.816   4.683  17.259  0.00  0.00    +0.000 A 
ATOM      9  C   UNL     1       6.767   5.316  16.420  0.00  0.00    +0.000 A 
ATOM     10  C   UNL     1       7.784   6.294  16.974  0.00  0.00    +0.000 C 
ATOM     11  C   UNL     1       7.531   6.701  18.421  0.00  0.00    +0.000 C 
ATOM     12  C   UNL     1       7.119   5.475  19.219  0.00  0.00    +0.000 C 
ATOM     13  C   UNL     1       5.739   4.982  18.764  0.00  0.00    +0.000 C 
BRANCH   4  15
ATOM     14  C   UNL     1       7.849   5.230  12.935  0.00  0.00    +0.000 C 
ATOM     15  O   UNL     1       7.785   5.610  14.305  0.00  0.00    +0.000 OA
ENDBRANCH   4  15
ENDBRANCH   3  13
ENDBRANCH   1   3
BRANCH   1  16
ATOM     16  C   UNL     1       2.230   6.452  19.656  0.00  0.00    +0.000 C 
BRANCH  16  17
ATOM     17  C   UNL     1       2.320   7.734  18.813  0.00  0.00    +0.000 C 
BRANCH  17  18
ATOM     18  C   UNL     1       1.408   8.810  19.354  0.00  0.00    +0.000 A 
ATOM     19  C   UNL     1       0.983   9.854  18.519  0.00  0.00    +0.000 A 
ATOM     20  C   UNL     1       0.155  10.863  19.008  0.00  0.00    +0.000 A 
ATOM     21  C   UNL     1      -0.258  10.842  20.352  0.00  0.00    +0.000 A 
ATOM     22  N   UNL     1      -1.075  11.778  20.967  0.00  0.00    +0.000 NA
ATOM     23  C   UNL     1      -1.253  11.454  22.228  0.00  0.00    +0.000 A 
ATOM     24  C   UNL     1      -2.070  12.241  23.188  0.00  0.00    +0.000 C 
ATOM     25  S   UNL     1      -0.467  10.023  22.753  0.00  0.00    +0.000 S 
ATOM     26  C   UNL     1       0.177   9.801  21.173  0.00  0.00    +0.000 A 
ATOM     27  C   UNL     1       1.009   8.777  20.696  0.00  0.00    +0.000 A 
ENDBRANCH  17  18
ENDBRANCH  16  17
ENDBRANCH   1  16
TORSDOF 6
ENDMDL
