MODEL 1
REMARK VINA RESULT:      -8.6      0.000      0.000
REMARK  Name = 
REMARK  4 active torsions:
REMARK  status: ('A' for Active; 'I' for Inactive)
REMARK    1  A    between atoms: C_11  and  O_12
REMARK    2  A    between atoms: C_17  and  N_18
REMARK    3  A    between atoms: N_18  and  C_19
REMARK    4  A    between atoms: C_19  and  C_20
REMARK                            x       y       z     vdW  Elec       q    Type
REMARK                         _______ _______ _______ _____ _____    ______ ____
ROOT
ATOM      1  O   UNL     1       3.168   2.385  20.894  0.00  0.00    +0.000 OA
ATOM      2  C   UNL     1       3.194   3.246  20.007  0.00  0.00    +0.000 C 
ATOM      3  C   UNL     1       2.011   4.164  19.818  0.00  0.00    +0.000 C 
ATOM      4  C   UNL     1       1.750   4.421  18.350  0.00  0.00    +0.000 C 
ATOM      5  C   UNL     1       2.918   5.117  17.664  0.00  0.00    +0.000 C 
ATOM      6  C   UNL     1       4.194   4.259  17.851  0.00  0.00    +0.000 C 
ATOM      7  C   UNL     1       5.412   5.104  17.880  0.00  0.00    +0.000 A 
ATOM      8  C   UNL     1       5.580   6.312  17.237  0.00  0.00    +0.000 A 
ATOM      9  C   UNL     1       6.827   6.930  17.271  0.00  0.00    +0.000 A 
ATOM     10  C   UNL     1       7.707   6.573  18.292  0.00  0.00    +0.000 A 
ATOM     11  C   UNL     1       7.306   5.622  19.237  0.00  0.00    +0.000 A 
ATOM     12  C   UNL     1       6.178   4.859  18.993  0.00  0.00    +0.000 A 
ATOM     13  O   UNL     1       5.552   4.013  19.877  0.00  0.00    +0.000 OA
ATOM     14  C   UNL     1       4.432   3.456  19.137  0.00  0.00    +0.000 C 
ATOM     15  C   UNL     1       4.326   7.150  17.083  0.00  0.00    +0.000 C 
ATOM     16  C   UNL     1       3.204   6.606  18.045  0.00  0.00    +0.000 C 
ENDROOT
BRANCH  11  17
ATOM     17  O   UNL     1       7.970   5.522  20.422  0.00  0.00    +0.000 OA
ATOM     18  H   UNL     1       7.346   5.758  21.128  0.00  0.00    +0.000 HD
ENDBRANCH  11  17
BRANCH  16  19
ATOM     19  N   UNL     1       2.006   7.461  18.004  0.00  0.00    +0.000 NA
ATOM     20  H   UNL     1       1.472   7.335  18.861  0.00  0.00    +0.000 HD
BRANCH  19  21
ATOM     21  C   UNL     1       2.365   8.882  17.943  0.00  0.00    +0.000 C 
BRANCH  21  22
ATOM     22  C   UNL     1       1.125   9.688  18.155  0.00  0.00    +0.000 C 
ATOM     23  C   UNL     1       0.584   9.982  19.534  0.00  0.00    +0.000 C 
ATOM     24  C   UNL     1       1.231  11.079  18.736  0.00  0.00    +0.000 C 
ENDBRANCH  21  22
ENDBRANCH  19  21
ENDBRANCH  16  19
TORSDOF 4
ENDMDL
MODEL 2
REMARK VINA RESULT:      -8.4      0.977      1.213
REMARK  Name = 
REMARK  4 active torsions:
REMARK  status: ('A' for Active; 'I' for Inactive)
REMARK    1  A    between atoms: C_11  and  O_12
REMARK    2  A    between atoms: C_17  and  N_18
REMARK    3  A    between atoms: N_18  and  C_19
REMARK    4  A    between atoms: C_19  and  C_20
REMARK                            x       y       z     vdW  Elec       q    Type
REMARK                         _______ _______ _______ _____ _____    ______ ____
ROOT
ATOM      1  O   UNL     1       3.136   2.523  21.133  0.00  0.00    +0.000 OA
ATOM      2  C   UNL     1       3.135   3.371  20.234  0.00  0.00    +0.000 C 
ATOM      3  C   UNL     1       1.959   4.305  20.086  0.00  0.00    +0.000 C 
ATOM      4  C   UNL     1       1.635   4.546  18.627  0.00  0.00    +0.000 C 
ATOM      5  C   UNL     1       2.780   5.214  17.878  0.00  0.00    +0.000 C 
ATOM      6  C   UNL     1       4.050   4.337  18.019  0.00  0.00    +0.000 C 
ATOM      7  C   UNL     1       5.281   5.162  17.980  0.00  0.00    +0.000 A 
ATOM      8  C   UNL     1       5.438   6.358  17.313  0.00  0.00    +0.000 A 
ATOM      9  C   UNL     1       6.696   6.956  17.280  0.00  0.00    +0.000 A 
ATOM     10  C   UNL     1       7.616   6.599  18.265  0.00  0.00    +0.000 A 
ATOM     11  C   UNL     1       7.243   5.667  19.241  0.00  0.00    +0.000 A 
ATOM     12  C   UNL     1       6.094   4.920  19.060  0.00  0.00    +0.000 A 
ATOM     13  O   UNL     1       5.496   4.097  19.984  0.00  0.00    +0.000 OA
ATOM     14  C   UNL     1       4.334   3.548  19.305  0.00  0.00    +0.000 C 
ATOM     15  C   UNL     1       4.192   7.215  17.204  0.00  0.00    +0.000 C 
ATOM     16  C   UNL     1       3.108   6.703  18.225  0.00  0.00    +0.000 C 
ENDROOT
BRANCH  11  17
ATOM     17  O   UNL     1       7.960   5.573  20.396  0.00  0.00    +0.000 OA
ATOM     18  H   UNL     1       7.326   5.530  21.131  0.00  0.00    +0.000 HD
ENDBRANCH  11  17
BRANCH  16  19
ATOM     19  N   UNL     1       1.923   7.576  18.226  0.00  0.00    +0.000 NA
ATOM     20  H   UNL     1       1.093   7.020  18.420  0.00  0.00    +0.000 HD
BRANCH  19  21
ATOM     21  C   UNL     1       2.003   8.586  19.287  0.00  0.00    +0.000 C 
BRANCH  21  22
ATOM     22  C   UNL     1       1.438   7.998  20.538  0.00  0.00    +0.000 C 
ATOM     23  C   UNL     1       1.487   8.724  21.861  0.00  0.00    +0.000 C 
ATOM     24  C   UNL     1       0.180   8.584  21.134  0.00  0.00    +0.000 C 
ENDBRANCH  21  22
ENDBRANCH  19  21
ENDBRANCH  16  19
TORSDOF 4
ENDMDL
MODEL 3
REMARK VINA RESULT:      -8.2      1.119      1.359
REMARK  Name = 
REMARK  4 active torsions:
REMARK  status: ('A' for Active; 'I' for Inactive)
REMARK    1  A    between atoms: C_11  and  O_12
REMARK    2  A    between atoms: C_17  and  N_18
REMARK    3  A    between atoms: N_18  and  C_19
REMARK    4  A    between atoms: C_19  and  C_20
REMARK                            x       y       z     vdW  Elec       q    Type
REMARK                         _______ _______ _______ _____ _____    ______ ____
ROOT
ATOM      1  O   UNL     1       3.458   2.150  21.409  0.00  0.00    +0.000 OA
ATOM      2  C   UNL     1       3.201   3.105  20.668  0.00  0.00    +0.000 C 
ATOM      3  C   UNL     1       2.304   4.215  21.159  0.00  0.00    +0.000 C 
ATOM      4  C   UNL     1       1.386   4.701  20.059  0.00  0.00    +0.000 C 
ATOM      5  C   UNL     1       2.149   5.288  18.879  0.00  0.00    +0.000 C 
ATOM      6  C   UNL     1       3.134   4.221  18.338  0.00  0.00    +0.000 C 
ATOM      7  C   UNL     1       4.336   4.851  17.743  0.00  0.00    +0.000 A 
ATOM      8  C   UNL     1       4.392   6.091  17.142  0.00  0.00    +0.000 A 
ATOM      9  C   UNL     1       5.575   6.494  16.528  0.00  0.00    +0.000 A 
ATOM     10  C   UNL     1       6.760   5.871  16.919  0.00  0.00    +0.000 A 
ATOM     11  C   UNL     1       6.716   4.879  17.905  0.00  0.00    +0.000 A 
ATOM     12  C   UNL     1       5.496   4.344  18.274  0.00  0.00    +0.000 A 
ATOM     13  O   UNL     1       5.255   3.498  19.330  0.00  0.00    +0.000 OA
ATOM     14  C   UNL     1       3.828   3.229  19.281  0.00  0.00    +0.000 C 
ATOM     15  C   UNL     1       3.439   7.130  17.699  0.00  0.00    +0.000 C 
ATOM     16  C   UNL     1       2.887   6.649  19.093  0.00  0.00    +0.000 C 
ENDROOT
BRANCH  11  17
ATOM     17  O   UNL     1       7.859   4.520  18.556  0.00  0.00    +0.000 OA
ATOM     18  H   UNL     1       8.429   5.305  18.600  0.00  0.00    +0.000 HD
ENDBRANCH  11  17
BRANCH  16  19
ATOM     19  N   UNL     1       2.041   7.681  19.716  0.00  0.00    +0.000 NA
ATOM     20  H   UNL     1       2.546   8.109  20.489  0.00  0.00    +0.000 HD
BRANCH  19  21
ATOM     21  C   UNL     1       1.733   8.761  18.773  0.00  0.00    +0.000 C 
BRANCH  21  22
ATOM     22  C   UNL     1       0.824   9.732  19.452  0.00  0.00    +0.000 C 
ATOM     23  C   UNL     1       0.686  11.163  18.990  0.00  0.00    +0.000 C 
ATOM     24  C   UNL     1      -0.433  10.191  18.750  0.00  0.00    +0.000 C 
ENDBRANCH  21  22
ENDBRANCH  19  21
ENDBRANCH  16  19
TORSDOF 4
ENDMDL
MODEL 4
REMARK VINA RESULT:      -8.2      1.983      4.157
REMARK  Name = 
REMARK  4 active torsions:
REMARK  status: ('A' for Active; 'I' for Inactive)
REMARK    1  A    between atoms: C_11  and  O_12
REMARK    2  A    between atoms: C_17  and  N_18
REMARK    3  A    between atoms: N_18  and  C_19
REMARK    4  A    between atoms: C_19  and  C_20
REMARK                            x       y       z     vdW  Elec       q    Type
REMARK                         _______ _______ _______ _____ _____    ______ ____
ROOT
ATOM      1  O   UNL     1       5.920   3.629  15.613  0.00  0.00    +0.000 OA
ATOM      2  C   UNL     1       5.371   4.369  16.436  0.00  0.00    +0.000 C 
ATOM      3  C   UNL     1       5.030   5.789  16.057  0.00  0.00    +0.000 C 
ATOM      4  C   UNL     1       5.276   6.736  17.212  0.00  0.00    +0.000 C 
ATOM      5  C   UNL     1       4.407   6.419  18.421  0.00  0.00    +0.000 C 
ATOM      6  C   UNL     1       4.662   4.952  18.852  0.00  0.00    +0.000 C 
ATOM      7  C   UNL     1       3.455   4.356  19.474  0.00  0.00    +0.000 A 
ATOM      8  C   UNL     1       2.481   5.035  20.174  0.00  0.00    +0.000 A 
ATOM      9  C   UNL     1       1.466   4.312  20.796  0.00  0.00    +0.000 A 
ATOM     10  C   UNL     1       1.200   3.025  20.331  0.00  0.00    +0.000 A 
ATOM     11  C   UNL     1       1.951   2.515  19.266  0.00  0.00    +0.000 A 
ATOM     12  C   UNL     1       3.107   3.169  18.879  0.00  0.00    +0.000 A 
ATOM     13  O   UNL     1       3.862   2.908  17.761  0.00  0.00    +0.000 OA
ATOM     14  C   UNL     1       4.959   3.859  17.816  0.00  0.00    +0.000 C 
ATOM     15  C   UNL     1       2.227   6.460  19.725  0.00  0.00    +0.000 C 
ATOM     16  C   UNL     1       2.872   6.691  18.307  0.00  0.00    +0.000 C 
ENDROOT
BRANCH  11  17
ATOM     17  O   UNL     1       1.491   1.441  18.565  0.00  0.00    +0.000 OA
ATOM     18  H   UNL     1       0.539   1.571  18.422  0.00  0.00    +0.000 HD
ENDBRANCH  11  17
BRANCH  16  19
ATOM     19  N   UNL     1       2.554   8.032  17.789  0.00  0.00    +0.000 NA
ATOM     20  H   UNL     1       1.912   7.947  17.004  0.00  0.00    +0.000 HD
BRANCH  19  21
ATOM     21  C   UNL     1       1.869   8.847  18.799  0.00  0.00    +0.000 C 
BRANCH  21  22
ATOM     22  C   UNL     1       0.949   9.790  18.096  0.00  0.00    +0.000 C 
ATOM     23  C   UNL     1      -0.422  10.126  18.633  0.00  0.00    +0.000 C 
ATOM     24  C   UNL     1       0.676  11.150  18.694  0.00  0.00    +0.000 C 
ENDBRANCH  21  22
ENDBRANCH  19  21
ENDBRANCH  16  19
TORSDOF 4
ENDMDL
MODEL 5
REMARK VINA RESULT:      -7.8      1.901      2.168
REMARK  Name = 
REMARK  4 active torsions:
REMARK  status: ('A' for Active; 'I' for Inactive)
REMARK    1  A    between atoms: C_11  and  O_12
REMARK    2  A    between atoms: C_17  and  N_18
REMARK    3  A    between atoms: N_18  and  C_19
REMARK    4  A    between atoms: C_19  and  C_20
REMARK                            x       y       z     vdW  Elec       q    Type
REMARK                         _______ _______ _______ _____ _____    ______ ____
ROOT
ATOM      1  O   UNL     1       3.355   0.925  18.752  0.00  0.00    +0.000 OA
ATOM      2  C   UNL     1       3.127   2.137  18.673  0.00  0.00    +0.000 C 
ATOM      3  C   UNL     1       2.317   2.819  19.747  0.00  0.00    +0.000 C 
ATOM      4  C   UNL     1       1.388   3.856  19.154  0.00  0.00    +0.000 C 
ATOM      5  C   UNL     1       2.140   4.973  18.442  0.00  0.00    +0.000 C 
ATOM      6  C   UNL     1       3.040   4.351  17.344  0.00  0.00    +0.000 C 
ATOM      7  C   UNL     1       4.254   5.170  17.115  0.00  0.00    +0.000 A 
ATOM      8  C   UNL     1       4.361   6.533  17.289  0.00  0.00    +0.000 A 
ATOM      9  C   UNL     1       5.542   7.173  16.922  0.00  0.00    +0.000 A 
ATOM     10  C   UNL     1       6.701   6.404  16.832  0.00  0.00    +0.000 A 
ATOM     11  C   UNL     1       6.636   5.035  17.115  0.00  0.00    +0.000 A 
ATOM     12  C   UNL     1       5.401   4.421  17.207  0.00  0.00    +0.000 A 
ATOM     13  O   UNL     1       5.150   3.141  17.641  0.00  0.00    +0.000 OA
ATOM     14  C   UNL     1       3.709   2.985  17.543  0.00  0.00    +0.000 C 
ATOM     15  C   UNL     1       3.492   7.122  18.384  0.00  0.00    +0.000 C 
ATOM     16  C   UNL     1       2.965   5.970  19.319  0.00  0.00    +0.000 C 
ENDROOT
BRANCH  11  17
ATOM     17  O   UNL     1       7.779   4.345  17.389  0.00  0.00    +0.000 OA
ATOM     18  H   UNL     1       7.559   3.664  18.046  0.00  0.00    +0.000 HD
ENDBRANCH  11  17
BRANCH  16  19
ATOM     19  N   UNL     1       2.206   6.513  20.457  0.00  0.00    +0.000 NA
ATOM     20  H   UNL     1       2.815   6.577  21.270  0.00  0.00    +0.000 HD
BRANCH  19  21
ATOM     21  C   UNL     1       1.735   7.876  20.184  0.00  0.00    +0.000 C 
BRANCH  21  22
ATOM     22  C   UNL     1       1.220   8.458  21.460  0.00  0.00    +0.000 C 
ATOM     23  C   UNL     1       0.742   9.887  21.556  0.00  0.00    +0.000 C 
ATOM     24  C   UNL     1      -0.253   8.762  21.600  0.00  0.00    +0.000 C 
ENDBRANCH  21  22
ENDBRANCH  19  21
ENDBRANCH  16  19
TORSDOF 4
ENDMDL
MODEL 6
REMARK VINA RESULT:      -7.7      3.022      5.959
REMARK  Name = 
REMARK  4 active torsions:
REMARK  status: ('A' for Active; 'I' for Inactive)
REMARK    1  A    between atoms: C_11  and  O_12
REMARK    2  A    between atoms: C_17  and  N_18
REMARK    3  A    between atoms: N_18  and  C_19
REMARK    4  A    between atoms: C_19  and  C_20
REMARK                            x       y       z     vdW  Elec       q    Type
REMARK                         _______ _______ _______ _____ _____    ______ ____
ROOT
ATOM      1  O   UNL     1       8.167   6.268  19.502  0.00  0.00    +0.000 OA
ATOM      2  C   UNL     1       7.255   6.032  18.701  0.00  0.00    +0.000 C 
ATOM      3  C   UNL     1       7.497   6.198  17.220  0.00  0.00    +0.000 C 
ATOM      4  C   UNL     1       6.284   6.789  16.533  0.00  0.00    +0.000 C 
ATOM      5  C   UNL     1       5.057   5.895  16.647  0.00  0.00    +0.000 C 
ATOM      6  C   UNL     1       4.763   5.633  18.146  0.00  0.00    +0.000 C 
ATOM      7  C   UNL     1       4.124   4.311  18.346  0.00  0.00    +0.000 A 
ATOM      8  C   UNL     1       3.315   3.654  17.445  0.00  0.00    +0.000 A 
ATOM      9  C   UNL     1       2.697   2.466  17.829  0.00  0.00    +0.000 A 
ATOM     10  C   UNL     1       3.250   1.756  18.894  0.00  0.00    +0.000 A 
ATOM     11  C   UNL     1       4.394   2.255  19.527  0.00  0.00    +0.000 A 
ATOM     12  C   UNL     1       4.793   3.555  19.277  0.00  0.00    +0.000 A 
ATOM     13  O   UNL     1       5.970   4.143  19.672  0.00  0.00    +0.000 OA
ATOM     14  C   UNL     1       5.901   5.504  19.168  0.00  0.00    +0.000 C 
ATOM     15  C   UNL     1       3.630   3.901  15.982  0.00  0.00    +0.000 C 
ATOM     16  C   UNL     1       5.060   4.549  15.852  0.00  0.00    +0.000 C 
ENDROOT
BRANCH  11  17
ATOM     17  O   UNL     1       5.153   1.431  20.302  0.00  0.00    +0.000 OA
ATOM     18  H   UNL     1       4.552   0.802  20.736  0.00  0.00    +0.000 HD
ENDBRANCH  11  17
BRANCH  16  19
ATOM     19  N   UNL     1       5.446   4.705  14.440  0.00  0.00    +0.000 NA
ATOM     20  H   UNL     1       6.235   5.345  14.375  0.00  0.00    +0.000 HD
BRANCH  19  21
ATOM     21  C   UNL     1       5.896   3.433  13.864  0.00  0.00    +0.000 C 
BRANCH  21  22
ATOM     22  C   UNL     1       5.834   3.543  12.376  0.00  0.00    +0.000 C 
ATOM     23  C   UNL     1       5.812   2.328  11.480  0.00  0.00    +0.000 C 
ATOM     24  C   UNL     1       4.568   3.152  11.652  0.00  0.00    +0.000 C 
ENDBRANCH  21  22
ENDBRANCH  19  21
ENDBRANCH  16  19
TORSDOF 4
ENDMDL
MODEL 7
REMARK VINA RESULT:      -7.2      2.957      5.957
REMARK  Name = 
REMARK  4 active torsions:
REMARK  status: ('A' for Active; 'I' for Inactive)
REMARK    1  A    between atoms: C_11  and  O_12
REMARK    2  A    between atoms: C_17  and  N_18
REMARK    3  A    between atoms: N_18  and  C_19
REMARK    4  A    between atoms: C_19  and  C_20
REMARK                            x       y       z     vdW  Elec       q    Type
REMARK                         _______ _______ _______ _____ _____    ______ ____
ROOT
ATOM      1  O   UNL     1       7.821   5.600  20.453  0.00  0.00    +0.000 OA
ATOM      2  C   UNL     1       7.144   5.410  19.436  0.00  0.00    +0.000 C 
ATOM      3  C   UNL     1       7.812   4.932  18.170  0.00  0.00    +0.000 C 
ATOM      4  C   UNL     1       7.213   5.602  16.952  0.00  0.00    +0.000 C 
ATOM      5  C   UNL     1       5.735   5.281  16.777  0.00  0.00    +0.000 C 
ATOM      6  C   UNL     1       4.976   5.701  18.062  0.00  0.00    +0.000 C 
ATOM      7  C   UNL     1       3.789   4.842  18.290  0.00  0.00    +0.000 A 
ATOM      8  C   UNL     1       3.040   4.214  17.318  0.00  0.00    +0.000 A 
ATOM      9  C   UNL     1       1.883   3.533  17.688  0.00  0.00    +0.000 A 
ATOM     10  C   UNL     1       1.764   3.119  19.015  0.00  0.00    +0.000 A 
ATOM     11  C   UNL     1       2.801   3.398  19.912  0.00  0.00    +0.000 A 
ATOM     12  C   UNL     1       3.785   4.301  19.551  0.00  0.00    +0.000 A 
ATOM     13  O   UNL     1       4.951   4.558  20.230  0.00  0.00    +0.000 OA
ATOM     14  C   UNL     1       5.627   5.579  19.446  0.00  0.00    +0.000 C 
ATOM     15  C   UNL     1       3.802   3.789  16.078  0.00  0.00    +0.000 C 
ATOM     16  C   UNL     1       5.349   3.822  16.371  0.00  0.00    +0.000 C 
ENDROOT
BRANCH  11  17
ATOM     17  O   UNL     1       2.884   2.710  21.086  0.00  0.00    +0.000 OA
ATOM     18  H   UNL     1       2.470   3.256  21.775  0.00  0.00    +0.000 HD
ENDBRANCH  11  17
BRANCH  16  19
ATOM     19  N   UNL     1       6.119   3.312  15.225  0.00  0.00    +0.000 NA
ATOM     20  H   UNL     1       5.854   2.346  15.043  0.00  0.00    +0.000 HD
BRANCH  19  21
ATOM     21  C   UNL     1       5.817   4.062  14.001  0.00  0.00    +0.000 C 
BRANCH  21  22
ATOM     22  C   UNL     1       5.794   3.103  12.856  0.00  0.00    +0.000 C 
ATOM     23  C   UNL     1       4.943   3.335  11.630  0.00  0.00    +0.000 C 
ATOM     24  C   UNL     1       6.435   3.493  11.544  0.00  0.00    +0.000 C 
ENDBRANCH  21  22
ENDBRANCH  19  21
ENDBRANCH  16  19
TORSDOF 4
ENDMDL
MODEL 8
REMARK VINA RESULT:      -6.8      2.146      4.813
REMARK  Name = 
REMARK  4 active torsions:
REMARK  status: ('A' for Active; 'I' for Inactive)
REMARK    1  A    between atoms: C_11  and  O_12
REMARK    2  A    between atoms: C_17  and  N_18
REMARK    3  A    between atoms: N_18  and  C_19
REMARK    4  A    between atoms: C_19  and  C_20
REMARK                            x       y       z     vdW  Elec       q    Type
REMARK                         _______ _______ _______ _____ _____    ______ ____
ROOT
ATOM      1  O   UNL     1       1.461   7.439  21.314  0.00  0.00    +0.000 OA
ATOM      2  C   UNL     1       1.858   6.937  20.257  0.00  0.00    +0.000 C 
ATOM      3  C   UNL     1       2.694   7.757  19.305  0.00  0.00    +0.000 C 
ATOM      4  C   UNL     1       2.320   7.470  17.867  0.00  0.00    +0.000 C 
ATOM      5  C   UNL     1       2.568   6.019  17.478  0.00  0.00    +0.000 C 
ATOM      6  C   UNL     1       1.778   5.099  18.443  0.00  0.00    +0.000 C 
ATOM      7  C   UNL     1       2.461   3.796  18.624  0.00  0.00    +0.000 A 
ATOM      8  C   UNL     1       3.263   3.163  17.700  0.00  0.00    +0.000 A 
ATOM      9  C   UNL     1       3.742   1.885  17.980  0.00  0.00    +0.000 A 
ATOM     10  C   UNL     1       3.789   1.482  19.314  0.00  0.00    +0.000 A 
ATOM     11  C   UNL     1       3.363   2.368  20.310  0.00  0.00    +0.000 A 
ATOM     12  C   UNL     1       2.656   3.502  19.951  0.00  0.00    +0.000 A 
ATOM     13  O   UNL     1       2.317   4.551  20.770  0.00  0.00    +0.000 OA
ATOM     14  C   UNL     1       1.584   5.473  19.918  0.00  0.00    +0.000 C 
ATOM     15  C   UNL     1       4.048   4.077  16.779  0.00  0.00    +0.000 C 
ATOM     16  C   UNL     1       4.051   5.539  17.363  0.00  0.00    +0.000 C 
ENDROOT
BRANCH  11  17
ATOM     17  O   UNL     1       3.728   2.157  21.606  0.00  0.00    +0.000 OA
ATOM     18  H   UNL     1       3.042   1.605  22.017  0.00  0.00    +0.000 HD
ENDBRANCH  11  17
BRANCH  16  19
ATOM     19  N   UNL     1       4.894   6.434  16.554  0.00  0.00    +0.000 NA
ATOM     20  H   UNL     1       4.356   7.256  16.288  0.00  0.00    +0.000 HD
BRANCH  19  21
ATOM     21  C   UNL     1       6.046   6.922  17.320  0.00  0.00    +0.000 C 
BRANCH  21  22
ATOM     22  C   UNL     1       6.479   5.842  18.256  0.00  0.00    +0.000 C 
ATOM     23  C   UNL     1       7.586   4.874  17.911  0.00  0.00    +0.000 C 
ATOM     24  C   UNL     1       7.822   5.943  18.941  0.00  0.00    +0.000 C 
ENDBRANCH  21  22
ENDBRANCH  19  21
ENDBRANCH  16  19
TORSDOF 4
ENDMDL
MODEL 9
REMARK VINA RESULT:      -6.3      7.435      9.467
REMARK  Name = 
REMARK  4 active torsions:
REMARK  status: ('A' for Active; 'I' for Inactive)
REMARK    1  A    between atoms: C_11  and  O_12
REMARK    2  A    between atoms: C_17  and  N_18
REMARK    3  A    between atoms: N_18  and  C_19
REMARK    4  A    between atoms: C_19  and  C_20
REMARK                            x       y       z     vdW  Elec       q    Type
REMARK                         _______ _______ _______ _____ _____    ______ ____
ROOT
ATOM      1  O   UNL     1       8.976   9.295  19.170  0.00  0.00    +0.000 OA
ATOM      2  C   UNL     1       9.349  10.473  19.163  0.00  0.00    +0.000 C 
ATOM      3  C   UNL     1       9.203  11.299  17.908  0.00  0.00    +0.000 C 
ATOM      4  C   UNL     1      10.398  12.206  17.711  0.00  0.00    +0.000 C 
ATOM      5  C   UNL     1      10.559  13.212  18.842  0.00  0.00    +0.000 C 
ATOM      6  C   UNL     1      10.670  12.445  20.184  0.00  0.00    +0.000 C 
ATOM      7  C   UNL     1      10.128  13.246  21.308  0.00  0.00    +0.000 A 
ATOM      8  C   UNL     1      10.112  14.621  21.394  0.00  0.00    +0.000 A 
ATOM      9  C   UNL     1       9.669  15.222  22.570  0.00  0.00    +0.000 A 
ATOM     10  C   UNL     1       8.851  14.476  23.418  0.00  0.00    +0.000 A 
ATOM     11  C   UNL     1       8.507  13.168  23.058  0.00  0.00    +0.000 A 
ATOM     12  C   UNL     1       9.189  12.548  22.027  0.00  0.00    +0.000 A 
ATOM     13  O   UNL     1       8.871  11.348  21.437  0.00  0.00    +0.000 OA
ATOM     14  C   UNL     1       9.892  11.144  20.423  0.00  0.00    +0.000 C 
ATOM     15  C   UNL     1       9.979  15.356  20.074  0.00  0.00    +0.000 C 
ATOM     16  C   UNL     1       9.499  14.356  18.957  0.00  0.00    +0.000 C 
ENDROOT
BRANCH  11  17
ATOM     17  O   UNL     1       7.446  12.558  23.657  0.00  0.00    +0.000 OA
ATOM     18  H   UNL     1       7.666  12.447  24.597  0.00  0.00    +0.000 HD
ENDBRANCH  11  17
BRANCH  16  19
ATOM     19  N   UNL     1       9.255  15.055  17.685  0.00  0.00    +0.000 NA
ATOM     20  H   UNL     1       9.252  14.380  16.924  0.00  0.00    +0.000 HD
BRANCH  19  21
ATOM     21  C   UNL     1       7.937  15.699  17.673  0.00  0.00    +0.000 C 
BRANCH  21  22
ATOM     22  C   UNL     1       6.933  14.723  18.193  0.00  0.00    +0.000 C 
ATOM     23  C   UNL     1       5.952  15.083  19.283  0.00  0.00    +0.000 C 
ATOM     24  C   UNL     1       5.470  14.916  17.870  0.00  0.00    +0.000 C 
ENDBRANCH  21  22
ENDBRANCH  19  21
ENDBRANCH  16  19
TORSDOF 4
ENDMDL
