MODEL 1
REMARK VINA RESULT:      -6.7      0.000      0.000
REMARK  Name = 
REMARK  9 active torsions:
REMARK  status: ('A' for Active; 'I' for Inactive)
REMARK    1  A    between atoms: C_1  and  O_2
REMARK    2  A    between atoms: O_2  and  C_3
REMARK    3  A    between atoms: C_11  and  O_12
REMARK    4  A    between atoms: O_12  and  C_13
REMARK    5  A    between atoms: C_14  and  O_15
REMARK    6  A    between atoms: O_15  and  C_16
REMARK    7  A    between atoms: C_16  and  C_17
REMARK    8  A    between atoms: C_20  and  C_21
REMARK    9  A    between atoms: N_28  and  C_29
REMARK                            x       y       z     vdW  Elec       q    Type
REMARK                         _______ _______ _______ _____ _____    ______ ____
ROOT
ATOM      1  C   UNL     1      -3.077  11.510  18.165  0.00  0.00    +0.000 C 
ATOM      2  C   UNL     1      -3.416  12.281  19.215  0.00  0.00    +0.000 C 
ATOM      3  C   UNL     1      -2.671  12.296  20.555  0.00  0.00    +0.000 C 
ATOM      4  C   UNL     1      -2.685  13.632  21.290  0.00  0.00    +0.000 C 
ATOM      5  C   UNL     1      -2.011  14.650  20.379  0.00  0.00    +0.000 C 
ATOM      6  C   UNL     1      -0.722  14.187  19.738  0.00  0.00    +0.000 A 
ATOM      7  C   UNL     1      -0.003  15.248  19.174  0.00  0.00    +0.000 A 
ATOM      8  C   UNL     1       1.253  15.030  18.629  0.00  0.00    +0.000 A 
ATOM      9  C   UNL     1       1.836  13.807  18.705  0.00  0.00    +0.000 A 
ATOM     10  C   UNL     1       1.147  12.674  19.264  0.00  0.00    +0.000 A 
ATOM     11  C   UNL     1      -0.220  12.846  19.731  0.00  0.00    +0.000 A 
ATOM     12  C   UNL     1      -1.168  11.778  20.440  0.00  0.00    +0.000 C 
ATOM     13  C   UNL     1      -0.613  11.649  21.883  0.00  0.00    +0.000 C 
ATOM     14  C   UNL     1      -0.761  12.949  22.689  0.00  0.00    +0.000 C 
ATOM     15  N   UNL     1      -2.140  13.441  22.656  0.00  0.00    +0.000 NA
ATOM     16  C   UNL     1      -2.290  14.612  23.513  0.00  0.00    +0.000 C 
ATOM     17  C   UNL     1      -1.449  10.393  19.798  0.00  0.00    +0.000 C 
ATOM     18  C   UNL     1      -1.890  10.585  18.389  0.00  0.00    +0.000 C 
ATOM     19  O   UNL     1      -1.378   9.947  17.466  0.00  0.00    +0.000 OA
ENDROOT
BRANCH   1  21
ATOM     20  C   UNL     1      -5.220  11.596  17.146  0.00  0.00    +0.000 C 
ATOM     21  O   UNL     1      -3.800  11.568  16.986  0.00  0.00    +0.000 OA
ENDBRANCH   1  21
BRANCH   9  22
ATOM     22  O   UNL     1       3.108  13.718  18.133  0.00  0.00    +0.000 OA
ATOM     23  C   UNL     1       3.934  14.872  18.236  0.00  0.00    +0.000 C 
ENDBRANCH   9  22
BRANCH  10  24
ATOM     24  O   UNL     1       1.818  11.478  19.485  0.00  0.00    +0.000 OA
BRANCH  24  25
ATOM     25  C   UNL     1       1.690  10.572  18.353  0.00  0.00    +0.000 C 
BRANCH  25  26
ATOM     26  C   UNL     1       1.905   9.117  18.630  0.00  0.00    +0.000 A 
ATOM     27  C   UNL     1       2.635   8.378  17.703  0.00  0.00    +0.000 A 
ATOM     28  C   UNL     1       2.999   7.064  17.979  0.00  0.00    +0.000 A 
ATOM     29  C   UNL     1       2.638   6.498  19.195  0.00  0.00    +0.000 A 
ATOM     30  C   UNL     1       3.012   5.072  19.507  0.00  0.00    +0.000 C 
ATOM     31  C   UNL     1       1.934   7.252  20.144  0.00  0.00    +0.000 A 
ATOM     32  C   UNL     1       1.567   8.571  19.871  0.00  0.00    +0.000 A 
ENDBRANCH  25  26
ENDBRANCH  24  25
ENDBRANCH  10  24
TORSDOF 5
ENDMDL
MODEL 2
REMARK VINA RESULT:      -6.7      2.254      4.232
REMARK  Name = 
REMARK  9 active torsions:
REMARK  status: ('A' for Active; 'I' for Inactive)
REMARK    1  A    between atoms: C_1  and  O_2
REMARK    2  A    between atoms: O_2  and  C_3
REMARK    3  A    between atoms: C_11  and  O_12
REMARK    4  A    between atoms: O_12  and  C_13
REMARK    5  A    between atoms: C_14  and  O_15
REMARK    6  A    between atoms: O_15  and  C_16
REMARK    7  A    between atoms: C_16  and  C_17
REMARK    8  A    between atoms: C_20  and  C_21
REMARK    9  A    between atoms: N_28  and  C_29
REMARK                            x       y       z     vdW  Elec       q    Type
REMARK                         _______ _______ _______ _____ _____    ______ ____
ROOT
ATOM      1  C   UNL     1      -3.027  12.275  23.696  0.00  0.00    +0.000 C 
ATOM      2  C   UNL     1      -3.431  13.484  23.264  0.00  0.00    +0.000 C 
ATOM      3  C   UNL     1      -2.618  14.384  22.325  0.00  0.00    +0.000 C 
ATOM      4  C   UNL     1      -3.445  15.271  21.401  0.00  0.00    +0.000 C 
ATOM      5  C   UNL     1      -4.289  14.347  20.532  0.00  0.00    +0.000 C 
ATOM      6  C   UNL     1      -3.551  13.167  19.940  0.00  0.00    +0.000 A 
ATOM      7  C   UNL     1      -4.286  12.544  18.924  0.00  0.00    +0.000 A 
ATOM      8  C   UNL     1      -3.727  11.505  18.194  0.00  0.00    +0.000 A 
ATOM      9  C   UNL     1      -2.439  11.132  18.400  0.00  0.00    +0.000 A 
ATOM     10  C   UNL     1      -1.635  11.727  19.434  0.00  0.00    +0.000 A 
ATOM     11  C   UNL     1      -2.235  12.734  20.296  0.00  0.00    +0.000 A 
ATOM     12  C   UNL     1      -1.548  13.579  21.460  0.00  0.00    +0.000 C 
ATOM     13  C   UNL     1      -0.669  14.626  20.725  0.00  0.00    +0.000 C 
ATOM     14  C   UNL     1      -1.502  15.625  19.909  0.00  0.00    +0.000 C 
ATOM     15  N   UNL     1      -2.547  16.242  20.729  0.00  0.00    +0.000 NA
ATOM     16  C   UNL     1      -3.259  17.267  19.972  0.00  0.00    +0.000 C 
ATOM     17  C   UNL     1      -0.784  12.888  22.620  0.00  0.00    +0.000 C 
ATOM     18  C   UNL     1      -1.650  11.836  23.222  0.00  0.00    +0.000 C 
ATOM     19  O   UNL     1      -1.229  10.693  23.410  0.00  0.00    +0.000 OA
ENDROOT
BRANCH   1  21
ATOM     20  C   UNL     1      -4.999  12.190  25.017  0.00  0.00    +0.000 C 
ATOM     21  O   UNL     1      -3.830  11.522  24.535  0.00  0.00    +0.000 OA
ENDBRANCH   1  21
BRANCH   9  22
ATOM     22  O   UNL     1      -1.988  10.083  17.594  0.00  0.00    +0.000 OA
ATOM     23  C   UNL     1      -2.705   9.856  16.386  0.00  0.00    +0.000 C 
ENDBRANCH   9  22
BRANCH  10  24
ATOM     24  O   UNL     1      -0.276  11.451  19.518  0.00  0.00    +0.000 OA
BRANCH  24  25
ATOM     25  C   UNL     1      -0.018  10.235  20.275  0.00  0.00    +0.000 C 
BRANCH  25  26
ATOM     26  C   UNL     1       0.843   9.204  19.617  0.00  0.00    +0.000 A 
ATOM     27  C   UNL     1       1.254   9.437  18.307  0.00  0.00    +0.000 A 
ATOM     28  C   UNL     1       2.178   8.596  17.698  0.00  0.00    +0.000 A 
ATOM     29  C   UNL     1       2.699   7.525  18.412  0.00  0.00    +0.000 A 
ATOM     30  C   UNL     1       3.692   6.594  17.764  0.00  0.00    +0.000 C 
ATOM     31  C   UNL     1       2.315   7.309  19.743  0.00  0.00    +0.000 A 
ATOM     32  C   UNL     1       1.387   8.151  20.358  0.00  0.00    +0.000 A 
ENDBRANCH  25  26
ENDBRANCH  24  25
ENDBRANCH  10  24
TORSDOF 5
ENDMDL
MODEL 3
REMARK VINA RESULT:      -6.5      2.271      7.335
REMARK  Name = 
REMARK  9 active torsions:
REMARK  status: ('A' for Active; 'I' for Inactive)
REMARK    1  A    between atoms: C_1  and  O_2
REMARK    2  A    between atoms: O_2  and  C_3
REMARK    3  A    between atoms: C_11  and  O_12
REMARK    4  A    between atoms: O_12  and  C_13
REMARK    5  A    between atoms: C_14  and  O_15
REMARK    6  A    between atoms: O_15  and  C_16
REMARK    7  A    between atoms: C_16  and  C_17
REMARK    8  A    between atoms: C_20  and  C_21
REMARK    9  A    between atoms: N_28  and  C_29
REMARK                            x       y       z     vdW  Elec       q    Type
REMARK                         _______ _______ _______ _____ _____    ______ ____
ROOT
ATOM      1  C   UNL     1       1.499  13.801  18.707  0.00  0.00    +0.000 C 
ATOM      2  C   UNL     1       1.834  12.696  19.399  0.00  0.00    +0.000 C 
ATOM      3  C   UNL     1       1.075  12.182  20.629  0.00  0.00    +0.000 C 
ATOM      4  C   UNL     1       1.092  10.669  20.816  0.00  0.00    +0.000 C 
ATOM      5  C   UNL     1       0.435  10.059  19.584  0.00  0.00    +0.000 C 
ATOM      6  C   UNL     1      -0.851  10.724  19.145  0.00  0.00    +0.000 A 
ATOM      7  C   UNL     1      -1.556   9.945  18.218  0.00  0.00    +0.000 A 
ATOM      8  C   UNL     1      -2.809  10.346  17.778  0.00  0.00    +0.000 A 
ATOM      9  C   UNL     1      -3.401  11.451  18.296  0.00  0.00    +0.000 A 
ATOM     10  C   UNL     1      -2.726  12.298  19.244  0.00  0.00    +0.000 A 
ATOM     11  C   UNL     1      -1.363  11.969  19.630  0.00  0.00    +0.000 A 
ATOM     12  C   UNL     1      -0.430  12.701  20.696  0.00  0.00    +0.000 C 
ATOM     13  C   UNL     1      -1.001  12.283  22.077  0.00  0.00    +0.000 C 
ATOM     14  C   UNL     1      -0.851  10.778  22.344  0.00  0.00    +0.000 C 
ATOM     15  N   UNL     1       0.532  10.337  22.148  0.00  0.00    +0.000 NA
ATOM     16  C   UNL     1       0.682   8.932  22.511  0.00  0.00    +0.000 C 
ATOM     17  C   UNL     1      -0.154  14.226  20.618  0.00  0.00    +0.000 C 
ATOM     18  C   UNL     1       0.303  14.573  19.243  0.00  0.00    +0.000 C 
ATOM     19  O   UNL     1      -0.205  15.506  18.617  0.00  0.00    +0.000 OA
ENDROOT
BRANCH   1  21
ATOM     20  C   UNL     1       3.334  15.059  17.875  0.00  0.00    +0.000 C 
ATOM     21  O   UNL     1       2.234  14.187  17.599  0.00  0.00    +0.000 OA
ENDBRANCH   1  21
BRANCH   9  22
ATOM     22  O   UNL     1      -4.668  11.742  17.782  0.00  0.00    +0.000 OA
ATOM     23  C   UNL     1      -5.746  10.947  18.263  0.00  0.00    +0.000 C 
ENDBRANCH   9  22
BRANCH  10  24
ATOM     24  O   UNL     1      -3.409  13.324  19.884  0.00  0.00    +0.000 OA
BRANCH  24  25
ATOM     25  C   UNL     1      -4.130  12.844  21.054  0.00  0.00    +0.000 C 
BRANCH  25  26
ATOM     26  C   UNL     1      -4.370  13.836  22.149  0.00  0.00    +0.000 A 
ATOM     27  C   UNL     1      -3.510  14.927  22.240  0.00  0.00    +0.000 A 
ATOM     28  C   UNL     1      -3.773  15.959  23.134  0.00  0.00    +0.000 A 
ATOM     29  C   UNL     1      -4.910  15.898  23.930  0.00  0.00    +0.000 A 
ATOM     30  C   UNL     1      -5.206  17.000  24.914  0.00  0.00    +0.000 C 
ATOM     31  C   UNL     1      -5.797  14.818  23.813  0.00  0.00    +0.000 A 
ATOM     32  C   UNL     1      -5.536  13.781  22.917  0.00  0.00    +0.000 A 
ENDBRANCH  25  26
ENDBRANCH  24  25
ENDBRANCH  10  24
TORSDOF 5
ENDMDL
MODEL 4
REMARK VINA RESULT:      -6.5      2.408      4.498
REMARK  Name = 
REMARK  9 active torsions:
REMARK  status: ('A' for Active; 'I' for Inactive)
REMARK    1  A    between atoms: C_1  and  O_2
REMARK    2  A    between atoms: O_2  and  C_3
REMARK    3  A    between atoms: C_11  and  O_12
REMARK    4  A    between atoms: O_12  and  C_13
REMARK    5  A    between atoms: C_14  and  O_15
REMARK    6  A    between atoms: O_15  and  C_16
REMARK    7  A    between atoms: C_16  and  C_17
REMARK    8  A    between atoms: C_20  and  C_21
REMARK    9  A    between atoms: N_28  and  C_29
REMARK                            x       y       z     vdW  Elec       q    Type
REMARK                         _______ _______ _______ _____ _____    ______ ____
ROOT
ATOM      1  C   UNL     1      -3.358  12.505  23.856  0.00  0.00    +0.000 C 
ATOM      2  C   UNL     1      -3.782  13.718  23.455  0.00  0.00    +0.000 C 
ATOM      3  C   UNL     1      -2.999  14.642  22.515  0.00  0.00    +0.000 C 
ATOM      4  C   UNL     1      -3.855  15.539  21.627  0.00  0.00    +0.000 C 
ATOM      5  C   UNL     1      -4.713  14.624  20.762  0.00  0.00    +0.000 C 
ATOM      6  C   UNL     1      -3.979  13.461  20.130  0.00  0.00    +0.000 A 
ATOM      7  C   UNL     1      -4.733  12.850  19.121  0.00  0.00    +0.000 A 
ATOM      8  C   UNL     1      -4.183  11.829  18.359  0.00  0.00    +0.000 A 
ATOM      9  C   UNL     1      -2.888  11.463  18.528  0.00  0.00    +0.000 A 
ATOM     10  C   UNL     1      -2.064  12.046  19.553  0.00  0.00    +0.000 A 
ATOM     11  C   UNL     1      -2.651  13.032  20.447  0.00  0.00    +0.000 A 
ATOM     12  C   UNL     1      -1.944  13.863  21.610  0.00  0.00    +0.000 C 
ATOM     13  C   UNL     1      -1.091  14.930  20.874  0.00  0.00    +0.000 C 
ATOM     14  C   UNL     1      -1.951  15.936  20.095  0.00  0.00    +0.000 C 
ATOM     15  N   UNL     1      -2.982  16.529  20.951  0.00  0.00    +0.000 NA
ATOM     16  C   UNL     1      -3.719  17.562  20.231  0.00  0.00    +0.000 C 
ATOM     17  C   UNL     1      -1.146  13.157  22.739  0.00  0.00    +0.000 C 
ATOM     18  C   UNL     1      -1.989  12.087  23.341  0.00  0.00    +0.000 C 
ATOM     19  O   UNL     1      -1.555  10.944  23.499  0.00  0.00    +0.000 OA
ENDROOT
BRANCH   1  21
ATOM     20  C   UNL     1      -5.510  12.116  24.783  0.00  0.00    +0.000 C 
ATOM     21  O   UNL     1      -4.135  11.730  24.700  0.00  0.00    +0.000 OA
ENDBRANCH   1  21
BRANCH   9  22
ATOM     22  O   UNL     1      -2.447  10.433  17.692  0.00  0.00    +0.000 OA
ATOM     23  C   UNL     1      -3.418   9.464  17.311  0.00  0.00    +0.000 C 
ENDBRANCH   9  22
BRANCH  10  24
ATOM     24  O   UNL     1      -0.701  11.781  19.600  0.00  0.00    +0.000 OA
BRANCH  24  25
ATOM     25  C   UNL     1      -0.419  10.527  20.284  0.00  0.00    +0.000 C 
BRANCH  25  26
ATOM     26  C   UNL     1       0.651   9.665  19.691  0.00  0.00    +0.000 A 
ATOM     27  C   UNL     1       1.153   8.623  20.466  0.00  0.00    +0.000 A 
ATOM     28  C   UNL     1       2.033   7.697  19.916  0.00  0.00    +0.000 A 
ATOM     29  C   UNL     1       2.400   7.814  18.582  0.00  0.00    +0.000 A 
ATOM     30  C   UNL     1       3.362   6.827  17.972  0.00  0.00    +0.000 C 
ATOM     31  C   UNL     1       1.867   8.841  17.790  0.00  0.00    +0.000 A 
ATOM     32  C   UNL     1       0.984   9.772  18.338  0.00  0.00    +0.000 A 
ENDBRANCH  25  26
ENDBRANCH  24  25
ENDBRANCH  10  24
TORSDOF 5
ENDMDL
MODEL 5
REMARK VINA RESULT:      -6.4      2.612      7.187
REMARK  Name = 
REMARK  9 active torsions:
REMARK  status: ('A' for Active; 'I' for Inactive)
REMARK    1  A    between atoms: C_1  and  O_2
REMARK    2  A    between atoms: O_2  and  C_3
REMARK    3  A    between atoms: C_11  and  O_12
REMARK    4  A    between atoms: O_12  and  C_13
REMARK    5  A    between atoms: C_14  and  O_15
REMARK    6  A    between atoms: O_15  and  C_16
REMARK    7  A    between atoms: C_16  and  C_17
REMARK    8  A    between atoms: C_20  and  C_21
REMARK    9  A    between atoms: N_28  and  C_29
REMARK                            x       y       z     vdW  Elec       q    Type
REMARK                         _______ _______ _______ _____ _____    ______ ____
ROOT
ATOM      1  C   UNL     1       1.139  14.591  19.349  0.00  0.00    +0.000 C 
ATOM      2  C   UNL     1       1.634  13.515  19.989  0.00  0.00    +0.000 C 
ATOM      3  C   UNL     1       0.863  12.700  21.035  0.00  0.00    +0.000 C 
ATOM      4  C   UNL     1       1.220  11.218  21.092  0.00  0.00    +0.000 C 
ATOM      5  C   UNL     1       0.901  10.629  19.724  0.00  0.00    +0.000 C 
ATOM      6  C   UNL     1      -0.436  11.033  19.145  0.00  0.00    +0.000 A 
ATOM      7  C   UNL     1      -0.801  10.232  18.055  0.00  0.00    +0.000 A 
ATOM      8  C   UNL     1      -2.043  10.389  17.457  0.00  0.00    +0.000 A 
ATOM      9  C   UNL     1      -2.948  11.261  17.966  0.00  0.00    +0.000 A 
ATOM     10  C   UNL     1      -2.632  12.119  19.078  0.00  0.00    +0.000 A 
ATOM     11  C   UNL     1      -1.294  12.063  19.647  0.00  0.00    +0.000 A 
ATOM     12  C   UNL     1      -0.717  12.853  20.905  0.00  0.00    +0.000 C 
ATOM     13  C   UNL     1      -1.351  12.154  22.138  0.00  0.00    +0.000 C 
ATOM     14  C   UNL     1      -0.880  10.701  22.297  0.00  0.00    +0.000 C 
ATOM     15  N   UNL     1       0.582  10.612  22.286  0.00  0.00    +0.000 NA
ATOM     16  C   UNL     1       1.017   9.244  22.547  0.00  0.00    +0.000 C 
ATOM     17  C   UNL     1      -0.810  14.400  21.002  0.00  0.00    +0.000 C 
ATOM     18  C   UNL     1      -0.269  15.003  19.752  0.00  0.00    +0.000 C 
ATOM     19  O   UNL     1      -0.898  15.865  19.134  0.00  0.00    +0.000 OA
ENDROOT
BRANCH   1  21
ATOM     20  C   UNL     1       2.222  16.616  18.744  0.00  0.00    +0.000 C 
ATOM     21  O   UNL     1       1.901  15.264  18.408  0.00  0.00    +0.000 OA
ENDBRANCH   1  21
BRANCH   9  22
ATOM     22  O   UNL     1      -4.167  11.318  17.285  0.00  0.00    +0.000 OA
ATOM     23  C   UNL     1      -4.144  10.953  15.909  0.00  0.00    +0.000 C 
ENDBRANCH   9  22
BRANCH  10  24
ATOM     24  O   UNL     1      -3.621  12.880  19.687  0.00  0.00    +0.000 OA
BRANCH  24  25
ATOM     25  C   UNL     1      -4.832  12.106  19.917  0.00  0.00    +0.000 C 
BRANCH  25  26
ATOM     26  C   UNL     1      -5.632  12.455  21.133  0.00  0.00    +0.000 A 
ATOM     27  C   UNL     1      -4.987  13.128  22.166  0.00  0.00    +0.000 A 
ATOM     28  C   UNL     1      -5.710  13.615  23.249  0.00  0.00    +0.000 A 
ATOM     29  C   UNL     1      -7.086  13.434  23.287  0.00  0.00    +0.000 A 
ATOM     30  C   UNL     1      -7.886  13.943  24.459  0.00  0.00    +0.000 C 
ATOM     31  C   UNL     1      -7.743  12.789  22.229  0.00  0.00    +0.000 A 
ATOM     32  C   UNL     1      -7.021  12.298  21.141  0.00  0.00    +0.000 A 
ENDBRANCH  25  26
ENDBRANCH  24  25
ENDBRANCH  10  24
TORSDOF 5
ENDMDL
MODEL 6
REMARK VINA RESULT:      -6.3      5.340      9.260
REMARK  Name = 
REMARK  9 active torsions:
REMARK  status: ('A' for Active; 'I' for Inactive)
REMARK    1  A    between atoms: C_1  and  O_2
REMARK    2  A    between atoms: O_2  and  C_3
REMARK    3  A    between atoms: C_11  and  O_12
REMARK    4  A    between atoms: O_12  and  C_13
REMARK    5  A    between atoms: C_14  and  O_15
REMARK    6  A    between atoms: O_15  and  C_16
REMARK    7  A    between atoms: C_16  and  C_17
REMARK    8  A    between atoms: C_20  and  C_21
REMARK    9  A    between atoms: N_28  and  C_29
REMARK                            x       y       z     vdW  Elec       q    Type
REMARK                         _______ _______ _______ _____ _____    ______ ____
ROOT
ATOM      1  C   UNL     1       2.078   7.011  19.966  0.00  0.00    +0.000 C 
ATOM      2  C   UNL     1       2.172   5.696  20.238  0.00  0.00    +0.000 C 
ATOM      3  C   UNL     1       2.468   4.614  19.193  0.00  0.00    +0.000 C 
ATOM      4  C   UNL     1       3.235   3.403  19.713  0.00  0.00    +0.000 C 
ATOM      5  C   UNL     1       4.572   3.912  20.238  0.00  0.00    +0.000 C 
ATOM      6  C   UNL     1       5.287   4.893  19.335  0.00  0.00    +0.000 A 
ATOM      7  C   UNL     1       6.622   5.081  19.715  0.00  0.00    +0.000 A 
ATOM      8  C   UNL     1       7.464   5.869  18.944  0.00  0.00    +0.000 A 
ATOM      9  C   UNL     1       7.030   6.402  17.775  0.00  0.00    +0.000 A 
ATOM     10  C   UNL     1       5.669   6.253  17.333  0.00  0.00    +0.000 A 
ATOM     11  C   UNL     1       4.731   5.535  18.183  0.00  0.00    +0.000 A 
ATOM     12  C   UNL     1       3.203   5.183  17.898  0.00  0.00    +0.000 C 
ATOM     13  C   UNL     1       3.248   4.035  16.853  0.00  0.00    +0.000 C 
ATOM     14  C   UNL     1       3.883   2.754  17.414  0.00  0.00    +0.000 C 
ATOM     15  N   UNL     1       3.245   2.350  18.669  0.00  0.00    +0.000 NA
ATOM     16  C   UNL     1       3.781   1.074  19.133  0.00  0.00    +0.000 C 
ATOM     17  C   UNL     1       2.177   6.281  17.512  0.00  0.00    +0.000 C 
ATOM     18  C   UNL     1       2.249   7.391  18.503  0.00  0.00    +0.000 C 
ATOM     19  O   UNL     1       2.346   8.566  18.141  0.00  0.00    +0.000 OA
ENDROOT
BRANCH   1  21
ATOM     20  C   UNL     1       0.506   8.492  20.955  0.00  0.00    +0.000 C 
ATOM     21  O   UNL     1       1.818   7.923  20.975  0.00  0.00    +0.000 OA
ENDBRANCH   1  21
BRANCH   9  22
ATOM     22  O   UNL     1       7.975   7.163  17.082  0.00  0.00    +0.000 OA
ATOM     23  C   UNL     1       8.179   8.495  17.542  0.00  0.00    +0.000 C 
ENDBRANCH   9  22
BRANCH  10  24
ATOM     24  O   UNL     1       5.290   6.660  16.060  0.00  0.00    +0.000 OA
BRANCH  24  25
ATOM     25  C   UNL     1       6.368   6.488  15.097  0.00  0.00    +0.000 C 
BRANCH  25  26
ATOM     26  C   UNL     1       6.296   5.279  14.218  0.00  0.00    +0.000 A 
ATOM     27  C   UNL     1       5.125   4.527  14.238  0.00  0.00    +0.000 A 
ATOM     28  C   UNL     1       4.940   3.488  13.333  0.00  0.00    +0.000 A 
ATOM     29  C   UNL     1       5.930   3.212  12.399  0.00  0.00    +0.000 A 
ATOM     30  C   UNL     1       5.753   2.081  11.418  0.00  0.00    +0.000 C 
ATOM     31  C   UNL     1       7.094   3.992  12.353  0.00  0.00    +0.000 A 
ATOM     32  C   UNL     1       7.284   5.036  13.260  0.00  0.00    +0.000 A 
ENDBRANCH  25  26
ENDBRANCH  24  25
ENDBRANCH  10  24
TORSDOF 5
ENDMDL
MODEL 7
REMARK VINA RESULT:      -6.2      0.977      1.143
REMARK  Name = 
REMARK  9 active torsions:
REMARK  status: ('A' for Active; 'I' for Inactive)
REMARK    1  A    between atoms: C_1  and  O_2
REMARK    2  A    between atoms: O_2  and  C_3
REMARK    3  A    between atoms: C_11  and  O_12
REMARK    4  A    between atoms: O_12  and  C_13
REMARK    5  A    between atoms: C_14  and  O_15
REMARK    6  A    between atoms: O_15  and  C_16
REMARK    7  A    between atoms: C_16  and  C_17
REMARK    8  A    between atoms: C_20  and  C_21
REMARK    9  A    between atoms: N_28  and  C_29
REMARK                            x       y       z     vdW  Elec       q    Type
REMARK                         _______ _______ _______ _____ _____    ______ ____
ROOT
ATOM      1  C   UNL     1      -3.659  12.063  19.005  0.00  0.00    +0.000 C 
ATOM      2  C   UNL     1      -3.947  12.843  20.063  0.00  0.00    +0.000 C 
ATOM      3  C   UNL     1      -3.069  12.964  21.314  0.00  0.00    +0.000 C 
ATOM      4  C   UNL     1      -3.115  14.321  22.009  0.00  0.00    +0.000 C 
ATOM      5  C   UNL     1      -2.624  15.355  21.002  0.00  0.00    +0.000 C 
ATOM      6  C   UNL     1      -1.376  14.969  20.239  0.00  0.00    +0.000 A 
ATOM      7  C   UNL     1      -0.809  16.062  19.571  0.00  0.00    +0.000 A 
ATOM      8  C   UNL     1       0.397  15.922  18.901  0.00  0.00    +0.000 A 
ATOM      9  C   UNL     1       1.081  14.752  18.948  0.00  0.00    +0.000 A 
ATOM     10  C   UNL     1       0.548  13.590  19.610  0.00  0.00    +0.000 A 
ATOM     11  C   UNL     1      -0.771  13.673  20.216  0.00  0.00    +0.000 A 
ATOM     12  C   UNL     1      -1.550  12.561  21.052  0.00  0.00    +0.000 C 
ATOM     13  C   UNL     1      -0.838  12.528  22.431  0.00  0.00    +0.000 C 
ATOM     14  C   UNL     1      -1.005  13.841  23.211  0.00  0.00    +0.000 C 
ATOM     15  N   UNL     1      -2.415  14.223  23.312  0.00  0.00    +0.000 NA
ATOM     16  C   UNL     1      -2.569  15.410  24.148  0.00  0.00    +0.000 C 
ATOM     17  C   UNL     1      -1.783  11.135  20.483  0.00  0.00    +0.000 C 
ATOM     18  C   UNL     1      -2.385  11.241  19.125  0.00  0.00    +0.000 C 
ATOM     19  O   UNL     1      -1.921  10.612  18.171  0.00  0.00    +0.000 OA
ENDROOT
BRANCH   1  21
ATOM     20  C   UNL     1      -5.837  12.478  18.152  0.00  0.00    +0.000 C 
ATOM     21  O   UNL     1      -4.504  12.021  17.908  0.00  0.00    +0.000 OA
ENDBRANCH   1  21
BRANCH   9  22
ATOM     22  O   UNL     1       2.289  14.740  18.246  0.00  0.00    +0.000 OA
ATOM     23  C   UNL     1       3.435  15.217  18.943  0.00  0.00    +0.000 C 
ENDBRANCH   9  22
BRANCH  10  24
ATOM     24  O   UNL     1       1.334  12.458  19.791  0.00  0.00    +0.000 OA
BRANCH  24  25
ATOM     25  C   UNL     1       1.262  11.564  18.644  0.00  0.00    +0.000 C 
BRANCH  25  26
ATOM     26  C   UNL     1       1.434  10.103  18.920  0.00  0.00    +0.000 A 
ATOM     27  C   UNL     1       2.058   9.325  17.950  0.00  0.00    +0.000 A 
ATOM     28  C   UNL     1       2.385   7.999  18.212  0.00  0.00    +0.000 A 
ATOM     29  C   UNL     1       2.092   7.459  19.458  0.00  0.00    +0.000 A 
ATOM     30  C   UNL     1       2.427   6.020  19.757  0.00  0.00    +0.000 C 
ATOM     31  C   UNL     1       1.497   8.251  20.449  0.00  0.00    +0.000 A 
ATOM     32  C   UNL     1       1.167   9.582  20.190  0.00  0.00    +0.000 A 
ENDBRANCH  25  26
ENDBRANCH  24  25
ENDBRANCH  10  24
TORSDOF 5
ENDMDL
MODEL 8
REMARK VINA RESULT:      -6.1      2.096      7.341
REMARK  Name = 
REMARK  9 active torsions:
REMARK  status: ('A' for Active; 'I' for Inactive)
REMARK    1  A    between atoms: C_1  and  O_2
REMARK    2  A    between atoms: O_2  and  C_3
REMARK    3  A    between atoms: C_11  and  O_12
REMARK    4  A    between atoms: O_12  and  C_13
REMARK    5  A    between atoms: C_14  and  O_15
REMARK    6  A    between atoms: O_15  and  C_16
REMARK    7  A    between atoms: C_16  and  C_17
REMARK    8  A    between atoms: C_20  and  C_21
REMARK    9  A    between atoms: N_28  and  C_29
REMARK                            x       y       z     vdW  Elec       q    Type
REMARK                         _______ _______ _______ _____ _____    ______ ____
ROOT
ATOM      1  C   UNL     1       1.110  14.075  19.350  0.00  0.00    +0.000 C 
ATOM      2  C   UNL     1       1.622  12.837  19.485  0.00  0.00    +0.000 C 
ATOM      3  C   UNL     1       1.115  11.797  20.492  0.00  0.00    +0.000 C 
ATOM      4  C   UNL     1       1.252  10.344  20.046  0.00  0.00    +0.000 C 
ATOM      5  C   UNL     1       0.431  10.188  18.772  0.00  0.00    +0.000 C 
ATOM      6  C   UNL     1      -0.947  10.809  18.814  0.00  0.00    +0.000 A 
ATOM      7  C   UNL     1      -1.753  10.374  17.754  0.00  0.00    +0.000 A 
ATOM      8  C   UNL     1      -3.083  10.758  17.684  0.00  0.00    +0.000 A 
ATOM      9  C   UNL     1      -3.643  11.493  18.678  0.00  0.00    +0.000 A 
ATOM     10  C   UNL     1      -2.867  11.979  19.789  0.00  0.00    +0.000 A 
ATOM     11  C   UNL     1      -1.441  11.694  19.824  0.00  0.00    +0.000 A 
ATOM     12  C   UNL     1      -0.385  12.061  20.961  0.00  0.00    +0.000 C 
ATOM     13  C   UNL     1      -0.686  11.071  22.118  0.00  0.00    +0.000 C 
ATOM     14  C   UNL     1      -0.406   9.611  21.732  0.00  0.00    +0.000 C 
ATOM     15  N   UNL     1       0.947   9.454  21.193  0.00  0.00    +0.000 NA
ATOM     16  C   UNL     1       1.239   8.048  20.933  0.00  0.00    +0.000 C 
ATOM     17  C   UNL     1      -0.216  13.517  21.470  0.00  0.00    +0.000 C 
ATOM     18  C   UNL     1      -0.020  14.425  20.306  0.00  0.00    +0.000 C 
ATOM     19  O   UNL     1      -0.681  15.459  20.183  0.00  0.00    +0.000 OA
ENDROOT
BRANCH   1  21
ATOM     20  C   UNL     1       3.025  15.202  18.512  0.00  0.00    +0.000 C 
ATOM     21  O   UNL     1       1.622  14.949  18.406  0.00  0.00    +0.000 OA
ENDBRANCH   1  21
BRANCH   9  22
ATOM     22  O   UNL     1      -4.993  11.805  18.499  0.00  0.00    +0.000 OA
ATOM     23  C   UNL     1      -5.388  12.193  17.188  0.00  0.00    +0.000 C 
ENDBRANCH   9  22
BRANCH  10  24
ATOM     24  O   UNL     1      -3.489  12.583  20.874  0.00  0.00    +0.000 OA
BRANCH  24  25
ATOM     25  C   UNL     1      -3.732  13.999  20.636  0.00  0.00    +0.000 C 
BRANCH  25  26
ATOM     26  C   UNL     1      -3.691  14.897  21.832  0.00  0.00    +0.000 A 
ATOM     27  C   UNL     1      -3.425  14.322  23.071  0.00  0.00    +0.000 A 
ATOM     28  C   UNL     1      -3.220  15.121  24.190  0.00  0.00    +0.000 A 
ATOM     29  C   UNL     1      -3.273  16.503  24.060  0.00  0.00    +0.000 A 
ATOM     30  C   UNL     1      -3.067  17.386  25.264  0.00  0.00    +0.000 C 
ATOM     31  C   UNL     1      -3.505  17.085  22.806  0.00  0.00    +0.000 A 
ATOM     32  C   UNL     1      -3.710  16.286  21.680  0.00  0.00    +0.000 A 
ENDBRANCH  25  26
ENDBRANCH  24  25
ENDBRANCH  10  24
TORSDOF 5
ENDMDL
MODEL 9
REMARK VINA RESULT:      -6.1      3.037      6.924
REMARK  Name = 
REMARK  9 active torsions:
REMARK  status: ('A' for Active; 'I' for Inactive)
REMARK    1  A    between atoms: C_1  and  O_2
REMARK    2  A    between atoms: O_2  and  C_3
REMARK    3  A    between atoms: C_11  and  O_12
REMARK    4  A    between atoms: O_12  and  C_13
REMARK    5  A    between atoms: C_14  and  O_15
REMARK    6  A    between atoms: O_15  and  C_16
REMARK    7  A    between atoms: C_16  and  C_17
REMARK    8  A    between atoms: C_20  and  C_21
REMARK    9  A    between atoms: N_28  and  C_29
REMARK                            x       y       z     vdW  Elec       q    Type
REMARK                         _______ _______ _______ _____ _____    ______ ____
ROOT
ATOM      1  C   UNL     1       0.096  16.582  18.786  0.00  0.00    +0.000 C 
ATOM      2  C   UNL     1       1.434  16.655  18.661  0.00  0.00    +0.000 C 
ATOM      3  C   UNL     1       2.431  16.173  19.722  0.00  0.00    +0.000 C 
ATOM      4  C   UNL     1       3.758  15.656  19.177  0.00  0.00    +0.000 C 
ATOM      5  C   UNL     1       3.440  14.470  18.276  0.00  0.00    +0.000 C 
ATOM      6  C   UNL     1       2.450  13.477  18.843  0.00  0.00    +0.000 A 
ATOM      7  C   UNL     1       2.434  12.278  18.120  0.00  0.00    +0.000 A 
ATOM      8  C   UNL     1       1.662  11.211  18.553  0.00  0.00    +0.000 A 
ATOM      9  C   UNL     1       0.974  11.285  19.720  0.00  0.00    +0.000 A 
ATOM     10  C   UNL     1       0.942  12.491  20.504  0.00  0.00    +0.000 A 
ATOM     11  C   UNL     1       1.644  13.666  20.011  0.00  0.00    +0.000 A 
ATOM     12  C   UNL     1       1.813  15.088  20.712  0.00  0.00    +0.000 C 
ATOM     13  C   UNL     1       2.849  14.853  21.843  0.00  0.00    +0.000 C 
ATOM     14  C   UNL     1       4.237  14.479  21.302  0.00  0.00    +0.000 C 
ATOM     15  N   UNL     1       4.698  15.449  20.306  0.00  0.00    +0.000 NA
ATOM     16  C   UNL     1       6.061  15.144  19.881  0.00  0.00    +0.000 C 
ATOM     17  C   UNL     1       0.584  15.898  21.206  0.00  0.00    +0.000 C 
ATOM     18  C   UNL     1      -0.408  16.008  20.101  0.00  0.00    +0.000 C 
ATOM     19  O   UNL     1      -1.598  15.738  20.281  0.00  0.00    +0.000 OA
ENDROOT
BRANCH   1  21
ATOM     20  C   UNL     1      -0.274  18.201  17.088  0.00  0.00    +0.000 C 
ATOM     21  O   UNL     1      -0.732  17.031  17.771  0.00  0.00    +0.000 OA
ENDBRANCH   1  21
BRANCH   9  22
ATOM     22  O   UNL     1       0.245  10.141  20.055  0.00  0.00    +0.000 OA
ATOM     23  C   UNL     1       0.991   9.033  20.546  0.00  0.00    +0.000 C 
ENDBRANCH   9  22
BRANCH  10  24
ATOM     24  O   UNL     1       0.374  12.495  21.772  0.00  0.00    +0.000 OA
BRANCH  24  25
ATOM     25  C   UNL     1      -1.076  12.379  21.713  0.00  0.00    +0.000 C 
BRANCH  25  26
ATOM     26  C   UNL     1      -1.858  13.272  22.624  0.00  0.00    +0.000 A 
ATOM     27  C   UNL     1      -1.159  13.996  23.586  0.00  0.00    +0.000 A 
ATOM     28  C   UNL     1      -1.808  14.955  24.355  0.00  0.00    +0.000 A 
ATOM     29  C   UNL     1      -3.161  15.194  24.148  0.00  0.00    +0.000 A 
ATOM     30  C   UNL     1      -3.884  16.221  24.981  0.00  0.00    +0.000 C 
ATOM     31  C   UNL     1      -3.858  14.492  23.155  0.00  0.00    +0.000 A 
ATOM     32  C   UNL     1      -3.210  13.529  22.381  0.00  0.00    +0.000 A 
ENDBRANCH  25  26
ENDBRANCH  24  25
ENDBRANCH  10  24
TORSDOF 5
ENDMDL
