MODEL 1
REMARK VINA RESULT:      -7.4      0.000      0.000
REMARK  Name = 
REMARK  12 active torsions:
REMARK  status: ('A' for Active; 'I' for Inactive)
REMARK    1  A    between atoms: C_1  and  C_2
REMARK    2  A    between atoms: C_5  and  C_6
REMARK    3  A    between atoms: C_9  and  C_10
REMARK    4  A    between atoms: N_12  and  C_13
REMARK    5  A    between atoms: C_13  and  C_14
REMARK    6  A    between atoms: C_13  and  C_18
REMARK    7  A    between atoms: N_16  and  O_17
REMARK    8  A    between atoms: C_18  and  C_19
REMARK    9  A    between atoms: C_18  and  C_20
REMARK   10  A    between atoms: C_18  and  N_21
REMARK   11  A    between atoms: N_21  and  S_22
REMARK   12  A    between atoms: S_22  and  C_23
REMARK                            x       y       z     vdW  Elec       q    Type
REMARK                         _______ _______ _______ _____ _____    ______ ____
ROOT
ATOM      1  C   UNL     1       2.335   6.023  19.877  0.00  0.00    +0.000 C 
ATOM      2  O   UNL     1       1.912   5.357  20.822  0.00  0.00    +0.000 OA
ATOM      3  N   UNL     1       3.201   5.498  18.938  0.00  0.00    +0.000 N 
ATOM      4  H   UNL     1       3.788   6.155  18.441  0.00  0.00    +0.000 HD
ENDROOT
BRANCH   1   8
ATOM      5  C   UNL     1       1.235  10.201  19.306  0.00  0.00    +0.000 A 
ATOM      6  C   UNL     1       1.816   9.429  18.281  0.00  0.00    +0.000 A 
ATOM      7  C   UNL     1       2.121   8.069  18.454  0.00  0.00    +0.000 A 
ATOM      8  C   UNL     1       1.897   7.445  19.686  0.00  0.00    +0.000 A 
ATOM      9  C   UNL     1       1.348   8.197  20.727  0.00  0.00    +0.000 A 
ATOM     10  C   UNL     1       1.009   9.550  20.531  0.00  0.00    +0.000 A 
BRANCH   5  15
ATOM     11  C   UNL     1      -0.278  15.791  18.606  0.00  0.00    +0.000 C 
ATOM     12  C   UNL     1       0.104  14.350  18.757  0.00  0.00    +0.000 A 
ATOM     13  C   UNL     1      -0.853  13.382  19.060  0.00  0.00    +0.000 A 
ATOM     14  C   UNL     1      -0.479  12.046  19.226  0.00  0.00    +0.000 A 
ATOM     15  C   UNL     1       0.855  11.621  19.087  0.00  0.00    +0.000 A 
ATOM     16  C   UNL     1       1.801  12.610  18.758  0.00  0.00    +0.000 A 
ATOM     17  C   UNL     1       1.435  13.954  18.606  0.00  0.00    +0.000 A 
ENDBRANCH   5  15
ENDBRANCH   1   8
BRANCH   3  18
ATOM     18  C   UNL     1       3.655   4.095  19.024  0.00  0.00    +0.000 C 
BRANCH  18  19
ATOM     19  C   UNL     1       5.110   4.050  19.533  0.00  0.00    +0.000 C 
ATOM     20  O   UNL     1       5.606   3.074  20.095  0.00  0.00    +0.000 OA
ATOM     21  N   UNL     1       5.793   5.252  19.438  0.00  0.00    +0.000 N 
ATOM     22  H   UNL     1       5.678   5.832  18.611  0.00  0.00    +0.000 HD
BRANCH  21  23
ATOM     23  O   UNL     1       7.111   5.226  19.960  0.00  0.00    +0.000 OA
ATOM     24  H   UNL     1       7.079   5.917  20.659  0.00  0.00    +0.000 HD
ENDBRANCH  21  23
ENDBRANCH  18  19
BRANCH  18  25
ATOM     25  C   UNL     1       3.537   3.296  17.656  0.00  0.00    +0.000 C 
ATOM     26  C   UNL     1       3.176   1.829  17.971  0.00  0.00    +0.000 C 
ATOM     27  C   UNL     1       2.456   3.922  16.754  0.00  0.00    +0.000 C 
BRANCH  25  28
ATOM     28  N   UNL     1       4.867   3.348  16.948  0.00  0.00    +0.000 NA
ATOM     29  H   UNL     1       5.304   2.456  16.728  0.00  0.00    +0.000 HD
BRANCH  28  30
ATOM     30  S   UNL     1       5.325   4.613  15.937  0.00  0.00    +0.000 S 
ATOM     31  C   UNL     1       7.098   4.592  16.156  0.00  0.00    +0.000 C 
ATOM     32  O   UNL     1       5.045   4.228  14.577  0.00  0.00    +0.000 OA
ATOM     33  O   UNL     1       4.822   5.844  16.503  0.00  0.00    +0.000 OA
ENDBRANCH  28  30
ENDBRANCH  25  28
ENDBRANCH  18  25
ENDBRANCH   3  18
TORSDOF 8
ENDMDL
MODEL 2
REMARK VINA RESULT:      -7.3      0.122      1.265
REMARK  Name = 
REMARK  12 active torsions:
REMARK  status: ('A' for Active; 'I' for Inactive)
REMARK    1  A    between atoms: C_1  and  C_2
REMARK    2  A    between atoms: C_5  and  C_6
REMARK    3  A    between atoms: C_9  and  C_10
REMARK    4  A    between atoms: N_12  and  C_13
REMARK    5  A    between atoms: C_13  and  C_14
REMARK    6  A    between atoms: C_13  and  C_18
REMARK    7  A    between atoms: N_16  and  O_17
REMARK    8  A    between atoms: C_18  and  C_19
REMARK    9  A    between atoms: C_18  and  C_20
REMARK   10  A    between atoms: C_18  and  N_21
REMARK   11  A    between atoms: N_21  and  S_22
REMARK   12  A    between atoms: S_22  and  C_23
REMARK                            x       y       z     vdW  Elec       q    Type
REMARK                         _______ _______ _______ _____ _____    ______ ____
ROOT
ATOM      1  C   UNL     1       2.325   6.097  19.777  0.00  0.00    +0.000 C 
ATOM      2  O   UNL     1       1.726   5.411  20.607  0.00  0.00    +0.000 OA
ATOM      3  N   UNL     1       3.301   5.569  18.956  0.00  0.00    +0.000 N 
ATOM      4  H   UNL     1       3.990   6.215  18.593  0.00  0.00    +0.000 HD
ENDROOT
BRANCH   1   8
ATOM      5  C   UNL     1       1.180  10.272  19.282  0.00  0.00    +0.000 A 
ATOM      6  C   UNL     1       0.984   9.577  20.491  0.00  0.00    +0.000 A 
ATOM      7  C   UNL     1       1.402   8.246  20.661  0.00  0.00    +0.000 A 
ATOM      8  C   UNL     1       1.991   7.549  19.601  0.00  0.00    +0.000 A 
ATOM      9  C   UNL     1       2.170   8.208  18.383  0.00  0.00    +0.000 A 
ATOM     10  C   UNL     1       1.784   9.555  18.235  0.00  0.00    +0.000 A 
BRANCH   5  15
ATOM     11  C   UNL     1      -0.322  15.862  18.556  0.00  0.00    +0.000 C 
ATOM     12  C   UNL     1       0.072  14.432  18.771  0.00  0.00    +0.000 A 
ATOM     13  C   UNL     1       1.387  14.013  18.570  0.00  0.00    +0.000 A 
ATOM     14  C   UNL     1       1.736  12.671  18.746  0.00  0.00    +0.000 A 
ATOM     15  C   UNL     1       0.794  11.701  19.139  0.00  0.00    +0.000 A 
ATOM     16  C   UNL     1      -0.521  12.149  19.358  0.00  0.00    +0.000 A 
ATOM     17  C   UNL     1      -0.880  13.491  19.167  0.00  0.00    +0.000 A 
ENDBRANCH   5  15
ENDBRANCH   1   8
BRANCH   3  18
ATOM     18  C   UNL     1       3.668   4.140  19.032  0.00  0.00    +0.000 C 
BRANCH  18  19
ATOM     19  C   UNL     1       5.121   4.002  19.529  0.00  0.00    +0.000 C 
ATOM     20  O   UNL     1       5.565   2.990  20.069  0.00  0.00    +0.000 OA
ATOM     21  N   UNL     1       5.871   5.165  19.450  0.00  0.00    +0.000 N 
ATOM     22  H   UNL     1       5.785   5.766  18.635  0.00  0.00    +0.000 HD
BRANCH  21  23
ATOM     23  O   UNL     1       7.189   5.054  19.961  0.00  0.00    +0.000 OA
ATOM     24  H   UNL     1       7.566   5.945  19.782  0.00  0.00    +0.000 HD
ENDBRANCH  21  23
ENDBRANCH  18  19
BRANCH  18  25
ATOM     25  C   UNL     1       3.489   3.356  17.662  0.00  0.00    +0.000 C 
ATOM     26  C   UNL     1       3.058   1.908  17.975  0.00  0.00    +0.000 C 
ATOM     27  C   UNL     1       2.429   4.042  16.780  0.00  0.00    +0.000 C 
BRANCH  25  28
ATOM     28  N   UNL     1       4.810   3.343  16.935  0.00  0.00    +0.000 NA
ATOM     29  H   UNL     1       5.189   2.433  16.690  0.00  0.00    +0.000 HD
BRANCH  28  30
ATOM     30  S   UNL     1       5.329   4.601  15.944  0.00  0.00    +0.000 S 
ATOM     31  C   UNL     1       7.097   4.504  16.178  0.00  0.00    +0.000 C 
ATOM     32  O   UNL     1       5.046   4.245  14.577  0.00  0.00    +0.000 OA
ATOM     33  O   UNL     1       4.873   5.845  16.521  0.00  0.00    +0.000 OA
ENDBRANCH  28  30
ENDBRANCH  25  28
ENDBRANCH  18  25
ENDBRANCH   3  18
TORSDOF 8
ENDMDL
MODEL 3
REMARK VINA RESULT:      -7.2      2.256      3.375
REMARK  Name = 
REMARK  12 active torsions:
REMARK  status: ('A' for Active; 'I' for Inactive)
REMARK    1  A    between atoms: C_1  and  C_2
REMARK    2  A    between atoms: C_5  and  C_6
REMARK    3  A    between atoms: C_9  and  C_10
REMARK    4  A    between atoms: N_12  and  C_13
REMARK    5  A    between atoms: C_13  and  C_14
REMARK    6  A    between atoms: C_13  and  C_18
REMARK    7  A    between atoms: N_16  and  O_17
REMARK    8  A    between atoms: C_18  and  C_19
REMARK    9  A    between atoms: C_18  and  C_20
REMARK   10  A    between atoms: C_18  and  N_21
REMARK   11  A    between atoms: N_21  and  S_22
REMARK   12  A    between atoms: S_22  and  C_23
REMARK                            x       y       z     vdW  Elec       q    Type
REMARK                         _______ _______ _______ _____ _____    ______ ____
ROOT
ATOM      1  C   UNL     1       2.600   5.619  18.102  0.00  0.00    +0.000 C 
ATOM      2  O   UNL     1       1.810   4.801  17.629  0.00  0.00    +0.000 OA
ATOM      3  N   UNL     1       3.966   5.497  17.943  0.00  0.00    +0.000 N 
ATOM      4  H   UNL     1       4.548   5.947  18.637  0.00  0.00    +0.000 HD
ENDROOT
BRANCH   1   8
ATOM      5  C   UNL     1       0.992   9.012  20.315  0.00  0.00    +0.000 A 
ATOM      6  C   UNL     1       1.228   7.762  20.920  0.00  0.00    +0.000 A 
ATOM      7  C   UNL     1       1.795   6.688  20.215  0.00  0.00    +0.000 A 
ATOM      8  C   UNL     1       2.101   6.817  18.856  0.00  0.00    +0.000 A 
ATOM      9  C   UNL     1       1.850   8.037  18.225  0.00  0.00    +0.000 A 
ATOM     10  C   UNL     1       1.318   9.121  18.952  0.00  0.00    +0.000 A 
BRANCH   5  15
ATOM     11  C   UNL     1      -1.216  13.551  23.237  0.00  0.00    +0.000 C 
ATOM     12  C   UNL     1      -0.624  12.386  22.503  0.00  0.00    +0.000 A 
ATOM     13  C   UNL     1       0.221  12.582  21.412  0.00  0.00    +0.000 A 
ATOM     14  C   UNL     1       0.745  11.486  20.718  0.00  0.00    +0.000 A 
ATOM     15  C   UNL     1       0.456  10.160  21.091  0.00  0.00    +0.000 A 
ATOM     16  C   UNL     1      -0.381   9.986  22.209  0.00  0.00    +0.000 A 
ATOM     17  C   UNL     1      -0.921  11.080  22.898  0.00  0.00    +0.000 A 
ENDBRANCH   5  15
ENDBRANCH   1   8
BRANCH   3  18
ATOM     18  C   UNL     1       4.545   4.371  17.182  0.00  0.00    +0.000 C 
BRANCH  18  19
ATOM     19  C   UNL     1       4.522   3.094  18.045  0.00  0.00    +0.000 C 
ATOM     20  O   UNL     1       3.988   2.042  17.692  0.00  0.00    +0.000 OA
ATOM     21  N   UNL     1       5.030   3.252  19.324  0.00  0.00    +0.000 N 
ATOM     22  H   UNL     1       5.864   3.814  19.469  0.00  0.00    +0.000 HD
BRANCH  21  23
ATOM     23  O   UNL     1       4.954   2.092  20.137  0.00  0.00    +0.000 OA
ATOM     24  H   UNL     1       5.006   1.364  19.478  0.00  0.00    +0.000 HD
ENDBRANCH  21  23
ENDBRANCH  18  19
BRANCH  18  25
ATOM     25  C   UNL     1       6.020   4.641  16.656  0.00  0.00    +0.000 C 
ATOM     26  C   UNL     1       6.304   3.692  15.474  0.00  0.00    +0.000 C 
ATOM     27  C   UNL     1       6.176   6.105  16.205  0.00  0.00    +0.000 C 
BRANCH  25  28
ATOM     28  N   UNL     1       6.992   4.359  17.774  0.00  0.00    +0.000 NA
ATOM     29  H   UNL     1       7.735   3.693  17.578  0.00  0.00    +0.000 HD
BRANCH  28  30
ATOM     30  S   UNL     1       7.359   5.474  18.980  0.00  0.00    +0.000 S 
ATOM     31  C   UNL     1       7.823   6.891  17.997  0.00  0.00    +0.000 C 
ATOM     32  O   UNL     1       6.142   5.802  19.678  0.00  0.00    +0.000 OA
ATOM     33  O   UNL     1       8.539   5.010  19.675  0.00  0.00    +0.000 OA
ENDBRANCH  28  30
ENDBRANCH  25  28
ENDBRANCH  18  25
ENDBRANCH   3  18
TORSDOF 8
ENDMDL
MODEL 4
REMARK VINA RESULT:      -7.2      2.072      3.005
REMARK  Name = 
REMARK  12 active torsions:
REMARK  status: ('A' for Active; 'I' for Inactive)
REMARK    1  A    between atoms: C_1  and  C_2
REMARK    2  A    between atoms: C_5  and  C_6
REMARK    3  A    between atoms: C_9  and  C_10
REMARK    4  A    between atoms: N_12  and  C_13
REMARK    5  A    between atoms: C_13  and  C_14
REMARK    6  A    between atoms: C_13  and  C_18
REMARK    7  A    between atoms: N_16  and  O_17
REMARK    8  A    between atoms: C_18  and  C_19
REMARK    9  A    between atoms: C_18  and  C_20
REMARK   10  A    between atoms: C_18  and  N_21
REMARK   11  A    between atoms: N_21  and  S_22
REMARK   12  A    between atoms: S_22  and  C_23
REMARK                            x       y       z     vdW  Elec       q    Type
REMARK                         _______ _______ _______ _____ _____    ______ ____
ROOT
ATOM      1  C   UNL     1       3.218   6.430  18.251  0.00  0.00    +0.000 C 
ATOM      2  O   UNL     1       2.674   5.385  17.893  0.00  0.00    +0.000 OA
ATOM      3  N   UNL     1       4.591   6.567  18.287  0.00  0.00    +0.000 N 
ATOM      4  H   UNL     1       4.964   7.263  18.921  0.00  0.00    +0.000 HD
ENDROOT
BRANCH   1   8
ATOM      5  C   UNL     1       0.695   9.789  19.412  0.00  0.00    +0.000 A 
ATOM      6  C   UNL     1       1.083   8.788  20.324  0.00  0.00    +0.000 A 
ATOM      7  C   UNL     1       1.938   7.736  19.957  0.00  0.00    +0.000 A 
ATOM      8  C   UNL     1       2.398   7.624  18.641  0.00  0.00    +0.000 A 
ATOM      9  C   UNL     1       2.004   8.588  17.710  0.00  0.00    +0.000 A 
ATOM     10  C   UNL     1       1.178   9.661  18.098  0.00  0.00    +0.000 A 
BRANCH   5  15
ATOM     11  C   UNL     1      -2.745  14.174  21.130  0.00  0.00    +0.000 C 
ATOM     12  C   UNL     1      -1.850  13.065  20.667  0.00  0.00    +0.000 A 
ATOM     13  C   UNL     1      -2.235  12.220  19.627  0.00  0.00    +0.000 A 
ATOM     14  C   UNL     1      -1.402  11.171  19.224  0.00  0.00    +0.000 A 
ATOM     15  C   UNL     1      -0.155  10.933  19.831  0.00  0.00    +0.000 A 
ATOM     16  C   UNL     1       0.224  11.812  20.863  0.00  0.00    +0.000 A 
ATOM     17  C   UNL     1      -0.614  12.855  21.282  0.00  0.00    +0.000 A 
ENDBRANCH   5  15
ENDBRANCH   1   8
BRANCH   3  18
ATOM     18  C   UNL     1       5.478   5.457  17.884  0.00  0.00    +0.000 C 
BRANCH  18  19
ATOM     19  C   UNL     1       5.423   4.337  18.942  0.00  0.00    +0.000 C 
ATOM     20  O   UNL     1       5.848   4.462  20.090  0.00  0.00    +0.000 OA
ATOM     21  N   UNL     1       4.980   3.114  18.466  0.00  0.00    +0.000 N 
ATOM     22  H   UNL     1       4.205   3.079  17.811  0.00  0.00    +0.000 HD
BRANCH  21  23
ATOM     23  O   UNL     1       4.985   2.070  19.425  0.00  0.00    +0.000 OA
ATOM     24  H   UNL     1       4.098   2.156  19.843  0.00  0.00    +0.000 HD
ENDBRANCH  21  23
ENDBRANCH  18  19
BRANCH  18  25
ATOM     25  C   UNL     1       6.985   5.894  17.637  0.00  0.00    +0.000 C 
ATOM     26  C   UNL     1       7.027   7.421  17.418  0.00  0.00    +0.000 C 
ATOM     27  C   UNL     1       7.865   5.511  18.842  0.00  0.00    +0.000 C 
BRANCH  25  28
ATOM     28  N   UNL     1       7.497   5.193  16.404  0.00  0.00    +0.000 NA
ATOM     29  H   UNL     1       8.028   4.339  16.550  0.00  0.00    +0.000 HD
BRANCH  28  30
ATOM     30  S   UNL     1       6.737   5.291  14.905  0.00  0.00    +0.000 S 
ATOM     31  C   UNL     1       6.117   3.624  14.735  0.00  0.00    +0.000 C 
ATOM     32  O   UNL     1       5.604   6.171  15.030  0.00  0.00    +0.000 OA
ATOM     33  O   UNL     1       7.755   5.491  13.899  0.00  0.00    +0.000 OA
ENDBRANCH  28  30
ENDBRANCH  25  28
ENDBRANCH  18  25
ENDBRANCH   3  18
TORSDOF 8
ENDMDL
MODEL 5
REMARK VINA RESULT:      -7.1      5.491      9.957
REMARK  Name = 
REMARK  12 active torsions:
REMARK  status: ('A' for Active; 'I' for Inactive)
REMARK    1  A    between atoms: C_1  and  C_2
REMARK    2  A    between atoms: C_5  and  C_6
REMARK    3  A    between atoms: C_9  and  C_10
REMARK    4  A    between atoms: N_12  and  C_13
REMARK    5  A    between atoms: C_13  and  C_14
REMARK    6  A    between atoms: C_13  and  C_18
REMARK    7  A    between atoms: N_16  and  O_17
REMARK    8  A    between atoms: C_18  and  C_19
REMARK    9  A    between atoms: C_18  and  C_20
REMARK   10  A    between atoms: C_18  and  N_21
REMARK   11  A    between atoms: N_21  and  S_22
REMARK   12  A    between atoms: S_22  and  C_23
REMARK                            x       y       z     vdW  Elec       q    Type
REMARK                         _______ _______ _______ _____ _____    ______ ____
ROOT
ATOM      1  C   UNL     1       0.082  10.173  20.472  0.00  0.00    +0.000 C 
ATOM      2  O   UNL     1      -0.418   9.876  21.558  0.00  0.00    +0.000 OA
ATOM      3  N   UNL     1      -0.173  11.381  19.853  0.00  0.00    +0.000 N 
ATOM      4  H   UNL     1      -0.060  11.411  18.848  0.00  0.00    +0.000 HD
ENDROOT
BRANCH   1   8
ATOM      5  C   UNL     1       2.687   7.395  18.354  0.00  0.00    +0.000 A 
ATOM      6  C   UNL     1       2.167   8.553  17.744  0.00  0.00    +0.000 A 
ATOM      7  C   UNL     1       1.371   9.472  18.447  0.00  0.00    +0.000 A 
ATOM      8  C   UNL     1       1.025   9.233  19.781  0.00  0.00    +0.000 A 
ATOM      9  C   UNL     1       1.504   8.077  20.400  0.00  0.00    +0.000 A 
ATOM     10  C   UNL     1       2.335   7.182  19.699  0.00  0.00    +0.000 A 
BRANCH   5  15
ATOM     11  C   UNL     1       6.088   3.723  15.360  0.00  0.00    +0.000 C 
ATOM     12  C   UNL     1       5.232   4.663  16.153  0.00  0.00    +0.000 A 
ATOM     13  C   UNL     1       4.205   4.184  16.965  0.00  0.00    +0.000 A 
ATOM     14  C   UNL     1       3.395   5.074  17.678  0.00  0.00    +0.000 A 
ATOM     15  C   UNL     1       3.585   6.467  17.618  0.00  0.00    +0.000 A 
ATOM     16  C   UNL     1       4.641   6.927  16.811  0.00  0.00    +0.000 A 
ATOM     17  C   UNL     1       5.446   6.041  16.081  0.00  0.00    +0.000 A 
ENDBRANCH   5  15
ENDBRANCH   1   8
BRANCH   3  18
ATOM     18  C   UNL     1      -1.058  12.385  20.479  0.00  0.00    +0.000 C 
BRANCH  18  19
ATOM     19  C   UNL     1      -2.352  12.524  19.651  0.00  0.00    +0.000 C 
ATOM     20  O   UNL     1      -3.414  12.942  20.111  0.00  0.00    +0.000 OA
ATOM     21  N   UNL     1      -2.274  12.008  18.367  0.00  0.00    +0.000 N 
ATOM     22  H   UNL     1      -1.433  12.152  17.817  0.00  0.00    +0.000 HD
BRANCH  21  23
ATOM     23  O   UNL     1      -3.481  12.083  17.627  0.00  0.00    +0.000 OA
ATOM     24  H   UNL     1      -4.149  11.752  18.269  0.00  0.00    +0.000 HD
ENDBRANCH  21  23
ENDBRANCH  18  19
BRANCH  18  25
ATOM     25  C   UNL     1      -0.382  13.810  20.669  0.00  0.00    +0.000 C 
ATOM     26  C   UNL     1       1.057  13.608  21.188  0.00  0.00    +0.000 C 
ATOM     27  C   UNL     1      -0.358  14.580  19.336  0.00  0.00    +0.000 C 
BRANCH  25  28
ATOM     28  N   UNL     1      -1.179  14.592  21.682  0.00  0.00    +0.000 NA
ATOM     29  H   UNL     1      -1.986  15.104  21.334  0.00  0.00    +0.000 HD
BRANCH  28  30
ATOM     30  S   UNL     1      -1.275  14.167  23.307  0.00  0.00    +0.000 S 
ATOM     31  C   UNL     1      -2.984  14.552  23.655  0.00  0.00    +0.000 C 
ATOM     32  O   UNL     1      -1.117  12.739  23.411  0.00  0.00    +0.000 OA
ATOM     33  O   UNL     1      -0.451  15.085  24.061  0.00  0.00    +0.000 OA
ENDBRANCH  28  30
ENDBRANCH  25  28
ENDBRANCH  18  25
ENDBRANCH   3  18
TORSDOF 8
ENDMDL
MODEL 6
REMARK VINA RESULT:      -7.1      2.225      3.438
REMARK  Name = 
REMARK  12 active torsions:
REMARK  status: ('A' for Active; 'I' for Inactive)
REMARK    1  A    between atoms: C_1  and  C_2
REMARK    2  A    between atoms: C_5  and  C_6
REMARK    3  A    between atoms: C_9  and  C_10
REMARK    4  A    between atoms: N_12  and  C_13
REMARK    5  A    between atoms: C_13  and  C_14
REMARK    6  A    between atoms: C_13  and  C_18
REMARK    7  A    between atoms: N_16  and  O_17
REMARK    8  A    between atoms: C_18  and  C_19
REMARK    9  A    between atoms: C_18  and  C_20
REMARK   10  A    between atoms: C_18  and  N_21
REMARK   11  A    between atoms: N_21  and  S_22
REMARK   12  A    between atoms: S_22  and  C_23
REMARK                            x       y       z     vdW  Elec       q    Type
REMARK                         _______ _______ _______ _____ _____    ______ ____
ROOT
ATOM      1  C   UNL     1       2.797   6.947  18.137  0.00  0.00    +0.000 C 
ATOM      2  O   UNL     1       3.549   7.236  17.206  0.00  0.00    +0.000 OA
ATOM      3  N   UNL     1       2.622   5.644  18.562  0.00  0.00    +0.000 N 
ATOM      4  H   UNL     1       1.754   5.433  19.037  0.00  0.00    +0.000 HD
ENDROOT
BRANCH   1   8
ATOM      5  C   UNL     1       0.493   9.944  20.306  0.00  0.00    +0.000 A 
ATOM      6  C   UNL     1       0.926   8.746  20.908  0.00  0.00    +0.000 A 
ATOM      7  C   UNL     1       1.712   7.808  20.220  0.00  0.00    +0.000 A 
ATOM      8  C   UNL     1       2.052   8.017  18.879  0.00  0.00    +0.000 A 
ATOM      9  C   UNL     1       1.611   9.183  18.251  0.00  0.00    +0.000 A 
ATOM     10  C   UNL     1       0.857  10.137  18.962  0.00  0.00    +0.000 A 
BRANCH   5  15
ATOM     11  C   UNL     1      -2.408  13.962  23.381  0.00  0.00    +0.000 C 
ATOM     12  C   UNL     1      -1.689  12.917  22.584  0.00  0.00    +0.000 A 
ATOM     13  C   UNL     1      -1.334  11.696  23.157  0.00  0.00    +0.000 A 
ATOM     14  C   UNL     1      -0.639  10.740  22.411  0.00  0.00    +0.000 A 
ATOM     15  C   UNL     1      -0.280  10.959  21.067  0.00  0.00    +0.000 A 
ATOM     16  C   UNL     1      -0.667  12.188  20.502  0.00  0.00    +0.000 A 
ATOM     17  C   UNL     1      -1.351  13.156  21.250  0.00  0.00    +0.000 A 
ENDBRANCH   5  15
ENDBRANCH   1   8
BRANCH   3  18
ATOM     18  C   UNL     1       3.344   4.530  17.917  0.00  0.00    +0.000 C 
BRANCH  18  19
ATOM     19  C   UNL     1       2.412   3.307  17.797  0.00  0.00    +0.000 C 
ATOM     20  O   UNL     1       2.581   2.398  16.985  0.00  0.00    +0.000 OA
ATOM     21  N   UNL     1       1.274   3.369  18.585  0.00  0.00    +0.000 N 
ATOM     22  H   UNL     1       1.337   3.729  19.533  0.00  0.00    +0.000 HD
BRANCH  21  23
ATOM     23  O   UNL     1       0.389   2.272  18.431  0.00  0.00    +0.000 OA
ATOM     24  H   UNL     1       0.749   1.814  17.638  0.00  0.00    +0.000 HD
ENDBRANCH  21  23
ENDBRANCH  18  19
BRANCH  18  25
ATOM     25  C   UNL     1       4.686   4.116  18.660  0.00  0.00    +0.000 C 
ATOM     26  C   UNL     1       5.209   5.334  19.449  0.00  0.00    +0.000 C 
ATOM     27  C   UNL     1       4.433   2.937  19.618  0.00  0.00    +0.000 C 
BRANCH  25  28
ATOM     28  N   UNL     1       5.706   3.708  17.627  0.00  0.00    +0.000 NA
ATOM     29  H   UNL     1       5.411   3.020  16.940  0.00  0.00    +0.000 HD
BRANCH  28  30
ATOM     30  S   UNL     1       6.949   4.718  17.109  0.00  0.00    +0.000 S 
ATOM     31  C   UNL     1       6.902   4.431  15.347  0.00  0.00    +0.000 C 
ATOM     32  O   UNL     1       6.549   6.082  17.343  0.00  0.00    +0.000 OA
ATOM     33  O   UNL     1       8.196   4.189  17.613  0.00  0.00    +0.000 OA
ENDBRANCH  28  30
ENDBRANCH  25  28
ENDBRANCH  18  25
ENDBRANCH   3  18
TORSDOF 8
ENDMDL
MODEL 7
REMARK VINA RESULT:      -7.1      2.207      3.391
REMARK  Name = 
REMARK  12 active torsions:
REMARK  status: ('A' for Active; 'I' for Inactive)
REMARK    1  A    between atoms: C_1  and  C_2
REMARK    2  A    between atoms: C_5  and  C_6
REMARK    3  A    between atoms: C_9  and  C_10
REMARK    4  A    between atoms: N_12  and  C_13
REMARK    5  A    between atoms: C_13  and  C_14
REMARK    6  A    between atoms: C_13  and  C_18
REMARK    7  A    between atoms: N_16  and  O_17
REMARK    8  A    between atoms: C_18  and  C_19
REMARK    9  A    between atoms: C_18  and  C_20
REMARK   10  A    between atoms: C_18  and  N_21
REMARK   11  A    between atoms: N_21  and  S_22
REMARK   12  A    between atoms: S_22  and  C_23
REMARK                            x       y       z     vdW  Elec       q    Type
REMARK                         _______ _______ _______ _____ _____    ______ ____
ROOT
ATOM      1  C   UNL     1       3.198   6.130  18.129  0.00  0.00    +0.000 C 
ATOM      2  O   UNL     1       2.561   5.287  17.497  0.00  0.00    +0.000 OA
ATOM      3  N   UNL     1       4.579   6.158  18.129  0.00  0.00    +0.000 N 
ATOM      4  H   UNL     1       5.026   6.595  18.925  0.00  0.00    +0.000 HD
ENDROOT
BRANCH   1   8
ATOM      5  C   UNL     1       0.997   9.114  20.418  0.00  0.00    +0.000 A 
ATOM      6  C   UNL     1       1.399   7.884  20.975  0.00  0.00    +0.000 A 
ATOM      7  C   UNL     1       2.153   6.949  20.249  0.00  0.00    +0.000 A 
ATOM      8  C   UNL     1       2.490   7.195  18.913  0.00  0.00    +0.000 A 
ATOM      9  C   UNL     1       2.078   8.394  18.329  0.00  0.00    +0.000 A 
ATOM     10  C   UNL     1       1.356   9.344  19.079  0.00  0.00    +0.000 A 
BRANCH   5  15
ATOM     11  C   UNL     1      -2.021  13.078  23.452  0.00  0.00    +0.000 C 
ATOM     12  C   UNL     1      -1.221  12.068  22.688  0.00  0.00    +0.000 A 
ATOM     13  C   UNL     1      -0.545  12.423  21.521  0.00  0.00    +0.000 A 
ATOM     14  C   UNL     1       0.175  11.464  20.801  0.00  0.00    +0.000 A 
ATOM     15  C   UNL     1       0.258  10.123  21.221  0.00  0.00    +0.000 A 
ATOM     16  C   UNL     1      -0.413   9.792  22.412  0.00  0.00    +0.000 A 
ATOM     17  C   UNL     1      -1.149  10.745  23.129  0.00  0.00    +0.000 A 
ENDBRANCH   5  15
ENDBRANCH   1   8
BRANCH   3  18
ATOM     18  C   UNL     1       5.360   5.173  17.354  0.00  0.00    +0.000 C 
BRANCH  18  19
ATOM     19  C   UNL     1       5.150   3.764  17.943  0.00  0.00    +0.000 C 
ATOM     20  O   UNL     1       4.701   2.815  17.300  0.00  0.00    +0.000 OA
ATOM     21  N   UNL     1       5.374   3.669  19.308  0.00  0.00    +0.000 N 
ATOM     22  H   UNL     1       6.159   4.162  19.724  0.00  0.00    +0.000 HD
BRANCH  21  23
ATOM     23  O   UNL     1       5.124   2.387  19.860  0.00  0.00    +0.000 OA
ATOM     24  H   UNL     1       4.894   1.853  19.067  0.00  0.00    +0.000 HD
ENDBRANCH  21  23
ENDBRANCH  18  19
BRANCH  18  25
ATOM     25  C   UNL     1       6.913   5.500  17.276  0.00  0.00    +0.000 C 
ATOM     26  C   UNL     1       7.099   7.030  17.352  0.00  0.00    +0.000 C 
ATOM     27  C   UNL     1       7.668   4.820  18.432  0.00  0.00    +0.000 C 
BRANCH  25  28
ATOM     28  N   UNL     1       7.449   4.991  15.962  0.00  0.00    +0.000 NA
ATOM     29  H   UNL     1       8.218   4.327  16.008  0.00  0.00    +0.000 HD
BRANCH  28  30
ATOM     30  S   UNL     1       6.515   4.876  14.567  0.00  0.00    +0.000 S 
ATOM     31  C   UNL     1       7.743   5.210  13.313  0.00  0.00    +0.000 C 
ATOM     32  O   UNL     1       6.095   3.506  14.416  0.00  0.00    +0.000 OA
ATOM     33  O   UNL     1       5.572   5.971  14.567  0.00  0.00    +0.000 OA
ENDBRANCH  28  30
ENDBRANCH  25  28
ENDBRANCH  18  25
ENDBRANCH   3  18
TORSDOF 8
ENDMDL
MODEL 8
REMARK VINA RESULT:      -7.1      2.415      3.442
REMARK  Name = 
REMARK  12 active torsions:
REMARK  status: ('A' for Active; 'I' for Inactive)
REMARK    1  A    between atoms: C_1  and  C_2
REMARK    2  A    between atoms: C_5  and  C_6
REMARK    3  A    between atoms: C_9  and  C_10
REMARK    4  A    between atoms: N_12  and  C_13
REMARK    5  A    between atoms: C_13  and  C_14
REMARK    6  A    between atoms: C_13  and  C_18
REMARK    7  A    between atoms: N_16  and  O_17
REMARK    8  A    between atoms: C_18  and  C_19
REMARK    9  A    between atoms: C_18  and  C_20
REMARK   10  A    between atoms: C_18  and  N_21
REMARK   11  A    between atoms: N_21  and  S_22
REMARK   12  A    between atoms: S_22  and  C_23
REMARK                            x       y       z     vdW  Elec       q    Type
REMARK                         _______ _______ _______ _____ _____    ______ ____
ROOT
ATOM      1  C   UNL     1       2.640   7.112  18.240  0.00  0.00    +0.000 C 
ATOM      2  O   UNL     1       3.349   7.453  17.293  0.00  0.00    +0.000 OA
ATOM      3  N   UNL     1       2.486   5.788  18.602  0.00  0.00    +0.000 N 
ATOM      4  H   UNL     1       1.640   5.547  19.103  0.00  0.00    +0.000 HD
ENDROOT
BRANCH   1   8
ATOM      5  C   UNL     1       0.711  10.202  20.632  0.00  0.00    +0.000 A 
ATOM      6  C   UNL     1       0.975  10.369  19.259  0.00  0.00    +0.000 A 
ATOM      7  C   UNL     1       1.550   9.349  18.481  0.00  0.00    +0.000 A 
ATOM      8  C   UNL     1       1.927   8.138  19.070  0.00  0.00    +0.000 A 
ATOM      9  C   UNL     1       1.702   7.959  20.437  0.00  0.00    +0.000 A 
ATOM     10  C   UNL     1       1.088   8.972  21.199  0.00  0.00    +0.000 A 
BRANCH   5  15
ATOM     11  C   UNL     1      -1.836  14.322  23.882  0.00  0.00    +0.000 C 
ATOM     12  C   UNL     1      -1.205  13.265  23.028  0.00  0.00    +0.000 A 
ATOM     13  C   UNL     1      -1.542  11.921  23.184  0.00  0.00    +0.000 A 
ATOM     14  C   UNL     1      -0.925  10.942  22.400  0.00  0.00    +0.000 A 
ATOM     15  C   UNL     1       0.040  11.264  21.427  0.00  0.00    +0.000 A 
ATOM     16  C   UNL     1       0.349  12.627  21.270  0.00  0.00    +0.000 A 
ATOM     17  C   UNL     1      -0.255  13.612  22.065  0.00  0.00    +0.000 A 
ENDBRANCH   5  15
ENDBRANCH   1   8
BRANCH   3  18
ATOM     18  C   UNL     1       3.181   4.712  17.866  0.00  0.00    +0.000 C 
BRANCH  18  19
ATOM     19  C   UNL     1       2.261   3.480  17.754  0.00  0.00    +0.000 C 
ATOM     20  O   UNL     1       2.370   2.624  16.877  0.00  0.00    +0.000 OA
ATOM     21  N   UNL     1       1.196   3.472  18.642  0.00  0.00    +0.000 N 
ATOM     22  H   UNL     1       1.338   3.777  19.600  0.00  0.00    +0.000 HD
BRANCH  21  23
ATOM     23  O   UNL     1       0.317   2.369  18.500  0.00  0.00    +0.000 OA
ATOM     24  H   UNL     1       0.839   1.627  18.883  0.00  0.00    +0.000 HD
ENDBRANCH  21  23
ENDBRANCH  18  19
BRANCH  18  25
ATOM     25  C   UNL     1       4.573   4.291  18.505  0.00  0.00    +0.000 C 
ATOM     26  C   UNL     1       5.014   5.389  19.495  0.00  0.00    +0.000 C 
ATOM     27  C   UNL     1       4.447   2.942  19.238  0.00  0.00    +0.000 C 
BRANCH  25  28
ATOM     28  N   UNL     1       5.594   4.166  17.403  0.00  0.00    +0.000 NA
ATOM     29  H   UNL     1       5.236   4.065  16.457  0.00  0.00    +0.000 HD
BRANCH  28  30
ATOM     30  S   UNL     1       7.137   4.832  17.495  0.00  0.00    +0.000 S 
ATOM     31  C   UNL     1       6.773   6.560  17.230  0.00  0.00    +0.000 C 
ATOM     32  O   UNL     1       7.613   4.685  18.846  0.00  0.00    +0.000 OA
ATOM     33  O   UNL     1       7.898   4.360  16.360  0.00  0.00    +0.000 OA
ENDBRANCH  28  30
ENDBRANCH  25  28
ENDBRANCH  18  25
ENDBRANCH   3  18
TORSDOF 8
ENDMDL
MODEL 9
REMARK VINA RESULT:      -7.0      5.808     10.200
REMARK  Name = 
REMARK  12 active torsions:
REMARK  status: ('A' for Active; 'I' for Inactive)
REMARK    1  A    between atoms: C_1  and  C_2
REMARK    2  A    between atoms: C_5  and  C_6
REMARK    3  A    between atoms: C_9  and  C_10
REMARK    4  A    between atoms: N_12  and  C_13
REMARK    5  A    between atoms: C_13  and  C_14
REMARK    6  A    between atoms: C_13  and  C_18
REMARK    7  A    between atoms: N_16  and  O_17
REMARK    8  A    between atoms: C_18  and  C_19
REMARK    9  A    between atoms: C_18  and  C_20
REMARK   10  A    between atoms: C_18  and  N_21
REMARK   11  A    between atoms: N_21  and  S_22
REMARK   12  A    between atoms: S_22  and  C_23
REMARK                            x       y       z     vdW  Elec       q    Type
REMARK                         _______ _______ _______ _____ _____    ______ ____
ROOT
ATOM      1  C   UNL     1       0.116  10.349  20.417  0.00  0.00    +0.000 C 
ATOM      2  O   UNL     1       0.021  10.366  21.645  0.00  0.00    +0.000 OA
ATOM      3  N   UNL     1      -0.577  11.233  19.614  0.00  0.00    +0.000 N 
ATOM      4  H   UNL     1      -0.757  10.940  18.663  0.00  0.00    +0.000 HD
ENDROOT
BRANCH   1   8
ATOM      5  C   UNL     1       2.619   7.459  18.325  0.00  0.00    +0.000 A 
ATOM      6  C   UNL     1       2.126   8.620  17.699  0.00  0.00    +0.000 A 
ATOM      7  C   UNL     1       1.363   9.574  18.392  0.00  0.00    +0.000 A 
ATOM      8  C   UNL     1       1.025   9.369  19.734  0.00  0.00    +0.000 A 
ATOM      9  C   UNL     1       1.477   8.212  20.370  0.00  0.00    +0.000 A 
ATOM     10  C   UNL     1       2.276   7.281  19.677  0.00  0.00    +0.000 A 
BRANCH   5  15
ATOM     11  C   UNL     1       6.130   3.702  15.572  0.00  0.00    +0.000 C 
ATOM     12  C   UNL     1       5.211   4.669  16.255  0.00  0.00    +0.000 A 
ATOM     13  C   UNL     1       5.384   6.045  16.112  0.00  0.00    +0.000 A 
ATOM     14  C   UNL     1       4.537   6.936  16.777  0.00  0.00    +0.000 A 
ATOM     15  C   UNL     1       3.483   6.493  17.598  0.00  0.00    +0.000 A 
ATOM     16  C   UNL     1       3.312   5.100  17.709  0.00  0.00    +0.000 A 
ATOM     17  C   UNL     1       4.168   4.202  17.058  0.00  0.00    +0.000 A 
ENDBRANCH   5  15
ENDBRANCH   1   8
BRANCH   3  18
ATOM     18  C   UNL     1      -1.465  12.257  20.201  0.00  0.00    +0.000 C 
BRANCH  18  19
ATOM     19  C   UNL     1      -2.794  12.301  19.421  0.00  0.00    +0.000 C 
ATOM     20  O   UNL     1      -3.899  12.368  19.959  0.00  0.00    +0.000 OA
ATOM     21  N   UNL     1      -2.667  12.117  18.053  0.00  0.00    +0.000 N 
ATOM     22  H   UNL     1      -1.900  12.558  17.555  0.00  0.00    +0.000 HD
BRANCH  21  23
ATOM     23  O   UNL     1      -3.895  12.099  17.344  0.00  0.00    +0.000 OA
ATOM     24  H   UNL     1      -4.044  11.138  17.196  0.00  0.00    +0.000 HD
ENDBRANCH  21  23
ENDBRANCH  18  19
BRANCH  18  25
ATOM     25  C   UNL     1      -0.823  13.710  20.257  0.00  0.00    +0.000 C 
ATOM     26  C   UNL     1      -0.117  13.885  21.617  0.00  0.00    +0.000 C 
ATOM     27  C   UNL     1       0.187  13.901  19.110  0.00  0.00    +0.000 C 
BRANCH  25  28
ATOM     28  N   UNL     1      -1.925  14.731  20.125  0.00  0.00    +0.000 NA
ATOM     29  H   UNL     1      -2.527  14.652  19.310  0.00  0.00    +0.000 HD
BRANCH  28  30
ATOM     30  S   UNL     1      -2.639  15.493  21.445  0.00  0.00    +0.000 S 
ATOM     31  C   UNL     1      -4.151  16.093  20.708  0.00  0.00    +0.000 C 
ATOM     32  O   UNL     1      -2.991  14.485  22.411  0.00  0.00    +0.000 OA
ATOM     33  O   UNL     1      -1.830  16.638  21.793  0.00  0.00    +0.000 OA
ENDBRANCH  28  30
ENDBRANCH  25  28
ENDBRANCH  18  25
ENDBRANCH   3  18
TORSDOF 8
ENDMDL
