MODEL 1
REMARK VINA RESULT:      -7.3      0.000      0.000
REMARK  Name = 
REMARK  5 active torsions:
REMARK  status: ('A' for Active; 'I' for Inactive)
REMARK    1  A    between atoms: C_2  and  C_3
REMARK    2  A    between atoms: C_2  and  C_8
REMARK    3  A    between atoms: C_9  and  C_10
REMARK    4  A    between atoms: C_23  and  O_24
REMARK    5  A    between atoms: C_23  and  C_25
REMARK                            x       y       z     vdW  Elec       q    Type
REMARK                         _______ _______ _______ _____ _____    ______ ____
ROOT
ATOM      1  C   UNL     1       4.418   4.022  18.231  0.00  0.00    +0.000 C 
ATOM      2  C   UNL     1       5.751   3.626  17.557  0.00  0.00    +0.000 C 
ATOM      3  N   UNL     1       6.856   4.051  18.390  0.00  0.00    +0.000 N 
ATOM      4  C   UNL     1       6.893   5.242  19.043  0.00  0.00    +0.000 C 
ATOM      5  S   UNL     1       8.313   5.818  19.672  0.00  0.00    +0.000 S 
ATOM      6  N   UNL     1       5.724   5.928  19.150  0.00  0.00    +0.000 N 
ATOM      7  C   UNL     1       4.449   5.551  18.528  0.00  0.00    +0.000 C 
ATOM      8  H   UNL     1       7.755   3.596  18.259  0.00  0.00    +0.000 HD
ATOM      9  H   UNL     1       5.793   6.843  19.584  0.00  0.00    +0.000 HD
ENDROOT
BRANCH   2  10
ATOM     10  C   UNL     1       5.994   4.051  16.108  0.00  0.00    +0.000 A 
ATOM     11  C   UNL     1       5.147   3.581  15.079  0.00  0.00    +0.000 A 
ATOM     12  C   UNL     1       5.464   3.784  13.727  0.00  0.00    +0.000 A 
ATOM     13  C   UNL     1       6.601   4.513  13.431  0.00  0.00    +0.000 A 
ATOM     14  C   UNL     1       7.383   5.050  14.414  0.00  0.00    +0.000 A 
ATOM     15  C   UNL     1       7.119   4.829  15.747  0.00  0.00    +0.000 A 
ATOM     16  O   UNL     1       8.422   5.772  13.920  0.00  0.00    +0.000 OA
ATOM     17  C   UNL     1       8.218   5.597  12.503  0.00  0.00    +0.000 C 
ATOM     18  O   UNL     1       7.074   4.780  12.186  0.00  0.00    +0.000 OA
ENDBRANCH   2  10
BRANCH   7  19
ATOM     19  C   UNL     1       4.072   6.404  17.234  0.00  0.00    +0.000 C 
ATOM     20  F   UNL     1       3.501   5.657  16.261  0.00  0.00    +0.000 F 
ATOM     21  F   UNL     1       3.172   7.383  17.521  0.00  0.00    +0.000 F 
ATOM     22  F   UNL     1       5.144   7.040  16.707  0.00  0.00    +0.000 F 
ENDBRANCH   7  19
BRANCH   1  24
ATOM     23  O   UNL     1       5.201   2.645  20.073  0.00  0.00    +0.000 OA
ATOM     24  C   UNL     1       4.232   3.184  19.525  0.00  0.00    +0.000 C 
BRANCH  24  25
ATOM     25  C   UNL     1       2.905   3.079  20.126  0.00  0.00    +0.000 A 
ATOM     26  C   UNL     1       2.522   2.721  21.412  0.00  0.00    +0.000 A 
ATOM     27  C   UNL     1       1.118   2.875  21.484  0.00  0.00    +0.000 A 
ATOM     28  C   UNL     1       0.714   3.256  20.235  0.00  0.00    +0.000 A 
ATOM     29  O   UNL     1       1.782   3.384  19.398  0.00  0.00    +0.000 OA
ENDBRANCH  24  25
ENDBRANCH   1  24
BRANCH   7  30
ATOM     30  O   UNL     1       3.470   5.897  19.515  0.00  0.00    +0.000 OA
ATOM     31  H   UNL     1       2.833   5.150  19.531  0.00  0.00    +0.000 HD
ENDBRANCH   7  30
TORSDOF 5
ENDMDL
MODEL 2
REMARK VINA RESULT:      -7.3      2.402      6.616
REMARK  Name = 
REMARK  5 active torsions:
REMARK  status: ('A' for Active; 'I' for Inactive)
REMARK    1  A    between atoms: C_2  and  C_3
REMARK    2  A    between atoms: C_2  and  C_8
REMARK    3  A    between atoms: C_9  and  C_10
REMARK    4  A    between atoms: C_23  and  O_24
REMARK    5  A    between atoms: C_23  and  C_25
REMARK                            x       y       z     vdW  Elec       q    Type
REMARK                         _______ _______ _______ _____ _____    ______ ____
ROOT
ATOM      1  C   UNL     1       5.521   5.229  16.512  0.00  0.00    +0.000 C 
ATOM      2  C   UNL     1       4.071   4.951  16.971  0.00  0.00    +0.000 C 
ATOM      3  N   UNL     1       3.336   6.196  17.024  0.00  0.00    +0.000 N 
ATOM      4  C   UNL     1       3.856   7.360  17.496  0.00  0.00    +0.000 C 
ATOM      5  S   UNL     1       2.871   8.639  17.864  0.00  0.00    +0.000 S 
ATOM      6  N   UNL     1       5.206   7.419  17.648  0.00  0.00    +0.000 N 
ATOM      7  C   UNL     1       6.140   6.303  17.456  0.00  0.00    +0.000 C 
ATOM      8  H   UNL     1       2.321   6.154  16.990  0.00  0.00    +0.000 HD
ATOM      9  H   UNL     1       5.561   8.275  18.063  0.00  0.00    +0.000 HD
ENDROOT
BRANCH   2  10
ATOM     10  C   UNL     1       3.851   4.157  18.260  0.00  0.00    +0.000 A 
ATOM     11  C   UNL     1       4.436   2.880  18.417  0.00  0.00    +0.000 A 
ATOM     12  C   UNL     1       4.087   2.047  19.490  0.00  0.00    +0.000 A 
ATOM     13  C   UNL     1       3.196   2.538  20.427  0.00  0.00    +0.000 A 
ATOM     14  C   UNL     1       2.688   3.803  20.338  0.00  0.00    +0.000 A 
ATOM     15  C   UNL     1       2.981   4.624  19.272  0.00  0.00    +0.000 A 
ATOM     16  O   UNL     1       1.874   4.114  21.380  0.00  0.00    +0.000 OA
ATOM     17  C   UNL     1       1.904   2.877  22.120  0.00  0.00    +0.000 C 
ATOM     18  O   UNL     1       2.726   1.863  21.508  0.00  0.00    +0.000 OA
ENDBRANCH   2  10
BRANCH   7  19
ATOM     19  C   UNL     1       6.672   5.651  18.810  0.00  0.00    +0.000 C 
ATOM     20  F   UNL     1       7.073   4.368  18.654  0.00  0.00    +0.000 F 
ATOM     21  F   UNL     1       7.754   6.316  19.299  0.00  0.00    +0.000 F 
ATOM     22  F   UNL     1       5.747   5.688  19.798  0.00  0.00    +0.000 F 
ENDBRANCH   7  19
BRANCH   1  24
ATOM     23  O   UNL     1       5.224   6.867  14.743  0.00  0.00    +0.000 OA
ATOM     24  C   UNL     1       5.506   5.698  15.032  0.00  0.00    +0.000 C 
BRANCH  24  25
ATOM     25  C   UNL     1       5.881   4.757  13.980  0.00  0.00    +0.000 A 
ATOM     26  C   UNL     1       5.170   3.708  13.411  0.00  0.00    +0.000 A 
ATOM     27  C   UNL     1       5.969   3.182  12.370  0.00  0.00    +0.000 A 
ATOM     28  C   UNL     1       7.139   3.889  12.396  0.00  0.00    +0.000 A 
ATOM     29  O   UNL     1       7.104   4.847  13.365  0.00  0.00    +0.000 OA
ENDBRANCH  24  25
ENDBRANCH   1  24
BRANCH   7  30
ATOM     30  O   UNL     1       7.285   6.914  16.848  0.00  0.00    +0.000 OA
ATOM     31  H   UNL     1       7.782   6.182  16.423  0.00  0.00    +0.000 HD
ENDBRANCH   7  30
TORSDOF 5
ENDMDL
MODEL 3
REMARK VINA RESULT:      -7.2      2.293      6.401
REMARK  Name = 
REMARK  5 active torsions:
REMARK  status: ('A' for Active; 'I' for Inactive)
REMARK    1  A    between atoms: C_2  and  C_3
REMARK    2  A    between atoms: C_2  and  C_8
REMARK    3  A    between atoms: C_9  and  C_10
REMARK    4  A    between atoms: C_23  and  O_24
REMARK    5  A    between atoms: C_23  and  C_25
REMARK                            x       y       z     vdW  Elec       q    Type
REMARK                         _______ _______ _______ _____ _____    ______ ____
ROOT
ATOM      1  C   UNL     1       5.981   4.910  16.245  0.00  0.00    +0.000 C 
ATOM      2  C   UNL     1       5.023   6.121  16.314  0.00  0.00    +0.000 C 
ATOM      3  N   UNL     1       5.795   7.340  16.431  0.00  0.00    +0.000 N 
ATOM      4  C   UNL     1       6.901   7.459  17.211  0.00  0.00    +0.000 C 
ATOM      5  S   UNL     1       7.517   8.952  17.582  0.00  0.00    +0.000 S 
ATOM      6  N   UNL     1       7.467   6.310  17.666  0.00  0.00    +0.000 N 
ATOM      7  C   UNL     1       6.926   4.958  17.483  0.00  0.00    +0.000 C 
ATOM      8  H   UNL     1       5.350   8.214  16.167  0.00  0.00    +0.000 HD
ATOM      9  H   UNL     1       8.252   6.430  18.298  0.00  0.00    +0.000 HD
ENDROOT
BRANCH   2  10
ATOM     10  C   UNL     1       3.902   6.110  17.354  0.00  0.00    +0.000 A 
ATOM     11  C   UNL     1       3.624   7.270  18.111  0.00  0.00    +0.000 A 
ATOM     12  C   UNL     1       2.749   7.231  19.207  0.00  0.00    +0.000 A 
ATOM     13  C   UNL     1       2.116   6.035  19.488  0.00  0.00    +0.000 A 
ATOM     14  C   UNL     1       2.306   4.926  18.714  0.00  0.00    +0.000 A 
ATOM     15  C   UNL     1       3.191   4.925  17.660  0.00  0.00    +0.000 A 
ATOM     16  O   UNL     1       1.558   3.868  19.123  0.00  0.00    +0.000 OA
ATOM     17  C   UNL     1       0.898   4.437  20.272  0.00  0.00    +0.000 C 
ATOM     18  O   UNL     1       1.265   5.808  20.523  0.00  0.00    +0.000 OA
ENDBRANCH   2  10
BRANCH   7  19
ATOM     19  C   UNL     1       6.221   4.351  18.778  0.00  0.00    +0.000 C 
ATOM     20  F   UNL     1       5.330   3.376  18.484  0.00  0.00    +0.000 F 
ATOM     21  F   UNL     1       7.122   3.782  19.624  0.00  0.00    +0.000 F 
ATOM     22  F   UNL     1       5.586   5.298  19.509  0.00  0.00    +0.000 F 
ENDBRANCH   7  19
BRANCH   1  24
ATOM     23  O   UNL     1       7.827   5.600  14.825  0.00  0.00    +0.000 OA
ATOM     24  C   UNL     1       6.772   4.961  14.910  0.00  0.00    +0.000 C 
BRANCH  24  25
ATOM     25  C   UNL     1       6.286   4.202  13.761  0.00  0.00    +0.000 A 
ATOM     26  C   UNL     1       4.995   3.837  13.401  0.00  0.00    +0.000 A 
ATOM     27  C   UNL     1       5.082   3.188  12.147  0.00  0.00    +0.000 A 
ATOM     28  C   UNL     1       6.414   3.137  11.839  0.00  0.00    +0.000 A 
ATOM     29  O   UNL     1       7.158   3.745  12.806  0.00  0.00    +0.000 OA
ENDBRANCH  24  25
ENDBRANCH   1  24
BRANCH   7  30
ATOM     30  O   UNL     1       8.089   4.149  17.266  0.00  0.00    +0.000 OA
ATOM     31  H   UNL     1       8.053   3.881  16.322  0.00  0.00    +0.000 HD
ENDBRANCH   7  30
TORSDOF 5
ENDMDL
MODEL 4
REMARK VINA RESULT:      -7.0      0.494      1.003
REMARK  Name = 
REMARK  5 active torsions:
REMARK  status: ('A' for Active; 'I' for Inactive)
REMARK    1  A    between atoms: C_2  and  C_3
REMARK    2  A    between atoms: C_2  and  C_8
REMARK    3  A    between atoms: C_9  and  C_10
REMARK    4  A    between atoms: C_23  and  O_24
REMARK    5  A    between atoms: C_23  and  C_25
REMARK                            x       y       z     vdW  Elec       q    Type
REMARK                         _______ _______ _______ _____ _____    ______ ____
ROOT
ATOM      1  C   UNL     1       4.418   4.144  18.182  0.00  0.00    +0.000 C 
ATOM      2  C   UNL     1       5.736   3.684  17.519  0.00  0.00    +0.000 C 
ATOM      3  N   UNL     1       6.854   4.062  18.358  0.00  0.00    +0.000 N 
ATOM      4  C   UNL     1       6.942   5.253  19.006  0.00  0.00    +0.000 C 
ATOM      5  S   UNL     1       8.382   5.766  19.643  0.00  0.00    +0.000 S 
ATOM      6  N   UNL     1       5.804   5.992  19.103  0.00  0.00    +0.000 N 
ATOM      7  C   UNL     1       4.518   5.671  18.473  0.00  0.00    +0.000 C 
ATOM      8  H   UNL     1       7.733   3.566  18.235  0.00  0.00    +0.000 HD
ATOM      9  H   UNL     1       5.912   6.905  19.534  0.00  0.00    +0.000 HD
ENDROOT
BRANCH   2  10
ATOM     10  C   UNL     1       6.008   4.092  16.070  0.00  0.00    +0.000 A 
ATOM     11  C   UNL     1       5.187   3.604  15.029  0.00  0.00    +0.000 A 
ATOM     12  C   UNL     1       5.532   3.791  13.682  0.00  0.00    +0.000 A 
ATOM     13  C   UNL     1       6.670   4.523  13.401  0.00  0.00    +0.000 A 
ATOM     14  C   UNL     1       7.429   5.076  14.393  0.00  0.00    +0.000 A 
ATOM     15  C   UNL     1       7.136   4.871  15.723  0.00  0.00    +0.000 A 
ATOM     16  O   UNL     1       8.474   5.798  13.912  0.00  0.00    +0.000 OA
ATOM     17  C   UNL     1       8.301   5.604  12.494  0.00  0.00    +0.000 C 
ATOM     18  O   UNL     1       7.169   4.776  12.163  0.00  0.00    +0.000 OA
ENDBRANCH   2  10
BRANCH   7  19
ATOM     19  C   UNL     1       4.188   6.534  17.174  0.00  0.00    +0.000 C 
ATOM     20  F   UNL     1       3.302   7.528  17.414  0.00  0.00    +0.000 F 
ATOM     21  F   UNL     1       5.299   7.145  16.679  0.00  0.00    +0.000 F 
ATOM     22  F   UNL     1       3.710   5.776  16.160  0.00  0.00    +0.000 F 
ENDBRANCH   7  19
BRANCH   1  24
ATOM     23  O   UNL     1       5.137   2.805  20.078  0.00  0.00    +0.000 OA
ATOM     24  C   UNL     1       4.186   3.320  19.478  0.00  0.00    +0.000 C 
BRANCH  24  25
ATOM     25  C   UNL     1       2.834   3.202  20.018  0.00  0.00    +0.000 A 
ATOM     26  C   UNL     1       1.600   3.301  19.389  0.00  0.00    +0.000 A 
ATOM     27  C   UNL     1       0.615   3.011  20.362  0.00  0.00    +0.000 A 
ATOM     28  C   UNL     1       1.288   2.813  21.535  0.00  0.00    +0.000 A 
ATOM     29  O   UNL     1       2.633   2.925  21.346  0.00  0.00    +0.000 OA
ENDBRANCH  24  25
ENDBRANCH   1  24
BRANCH   7  30
ATOM     30  O   UNL     1       3.549   6.066  19.453  0.00  0.00    +0.000 OA
ATOM     31  H   UNL     1       3.947   6.827  19.928  0.00  0.00    +0.000 HD
ENDBRANCH   7  30
TORSDOF 5
ENDMDL
MODEL 5
REMARK VINA RESULT:      -7.0      2.339      6.392
REMARK  Name = 
REMARK  5 active torsions:
REMARK  status: ('A' for Active; 'I' for Inactive)
REMARK    1  A    between atoms: C_2  and  C_3
REMARK    2  A    between atoms: C_2  and  C_8
REMARK    3  A    between atoms: C_9  and  C_10
REMARK    4  A    between atoms: C_23  and  O_24
REMARK    5  A    between atoms: C_23  and  C_25
REMARK                            x       y       z     vdW  Elec       q    Type
REMARK                         _______ _______ _______ _____ _____    ______ ____
ROOT
ATOM      1  C   UNL     1       5.155   5.240  16.060  0.00  0.00    +0.000 C 
ATOM      2  C   UNL     1       5.217   6.537  16.898  0.00  0.00    +0.000 C 
ATOM      3  N   UNL     1       6.332   6.462  17.819  0.00  0.00    +0.000 N 
ATOM      4  C   UNL     1       6.670   5.338  18.504  0.00  0.00    +0.000 C 
ATOM      5  S   UNL     1       7.708   5.413  19.792  0.00  0.00    +0.000 S 
ATOM      6  N   UNL     1       6.119   4.167  18.086  0.00  0.00    +0.000 N 
ATOM      7  C   UNL     1       5.107   4.024  17.033  0.00  0.00    +0.000 C 
ATOM      8  H   UNL     1       6.698   7.331  18.198  0.00  0.00    +0.000 HD
ATOM      9  H   UNL     1       6.337   3.354  18.655  0.00  0.00    +0.000 HD
ENDROOT
BRANCH   2  10
ATOM     10  C   UNL     1       3.958   6.991  17.638  0.00  0.00    +0.000 A 
ATOM     11  C   UNL     1       3.084   7.929  17.042  0.00  0.00    +0.000 A 
ATOM     12  C   UNL     1       2.041   8.517  17.772  0.00  0.00    +0.000 A 
ATOM     13  C   UNL     1       1.853   8.106  19.078  0.00  0.00    +0.000 A 
ATOM     14  C   UNL     1       2.633   7.137  19.643  0.00  0.00    +0.000 A 
ATOM     15  C   UNL     1       3.690   6.576  18.962  0.00  0.00    +0.000 A 
ATOM     16  O   UNL     1       2.258   6.838  20.914  0.00  0.00    +0.000 OA
ATOM     17  C   UNL     1       1.166   7.762  21.093  0.00  0.00    +0.000 C 
ATOM     18  O   UNL     1       0.917   8.586  19.937  0.00  0.00    +0.000 OA
ENDBRANCH   2  10
BRANCH   7  19
ATOM     19  C   UNL     1       3.628   3.769  17.573  0.00  0.00    +0.000 C 
ATOM     20  F   UNL     1       2.704   4.549  16.965  0.00  0.00    +0.000 F 
ATOM     21  F   UNL     1       3.226   2.487  17.357  0.00  0.00    +0.000 F 
ATOM     22  F   UNL     1       3.529   3.959  18.909  0.00  0.00    +0.000 F 
ENDBRANCH   7  19
BRANCH   1  24
ATOM     23  O   UNL     1       7.470   5.676  15.465  0.00  0.00    +0.000 OA
ATOM     24  C   UNL     1       6.391   5.181  15.121  0.00  0.00    +0.000 C 
BRANCH  24  25
ATOM     25  C   UNL     1       6.284   4.486  13.840  0.00  0.00    +0.000 A 
ATOM     26  C   UNL     1       7.222   4.300  12.833  0.00  0.00    +0.000 A 
ATOM     27  C   UNL     1       6.622   3.474  11.855  0.00  0.00    +0.000 A 
ATOM     28  C   UNL     1       5.341   3.252  12.281  0.00  0.00    +0.000 A 
ATOM     29  O   UNL     1       5.119   3.858  13.481  0.00  0.00    +0.000 OA
ENDBRANCH  24  25
ENDBRANCH   1  24
BRANCH   7  30
ATOM     30  O   UNL     1       5.482   2.817  16.358  0.00  0.00    +0.000 OA
ATOM     31  H   UNL     1       5.266   2.965  15.411  0.00  0.00    +0.000 HD
ENDBRANCH   7  30
TORSDOF 5
ENDMDL
MODEL 6
REMARK VINA RESULT:      -7.0      2.636      6.269
REMARK  Name = 
REMARK  5 active torsions:
REMARK  status: ('A' for Active; 'I' for Inactive)
REMARK    1  A    between atoms: C_2  and  C_3
REMARK    2  A    between atoms: C_2  and  C_8
REMARK    3  A    between atoms: C_9  and  C_10
REMARK    4  A    between atoms: C_23  and  O_24
REMARK    5  A    between atoms: C_23  and  C_25
REMARK                            x       y       z     vdW  Elec       q    Type
REMARK                         _______ _______ _______ _____ _____    ______ ____
ROOT
ATOM      1  C   UNL     1       5.905   5.674  18.012  0.00  0.00    +0.000 C 
ATOM      2  C   UNL     1       5.761   4.140  17.892  0.00  0.00    +0.000 C 
ATOM      3  N   UNL     1       5.863   3.754  16.501  0.00  0.00    +0.000 N 
ATOM      4  C   UNL     1       5.293   4.448  15.482  0.00  0.00    +0.000 C 
ATOM      5  S   UNL     1       5.139   3.771  13.978  0.00  0.00    +0.000 S 
ATOM      6  N   UNL     1       4.860   5.708  15.755  0.00  0.00    +0.000 N 
ATOM      7  C   UNL     1       4.852   6.343  17.079  0.00  0.00    +0.000 C 
ATOM      8  H   UNL     1       6.109   2.791  16.289  0.00  0.00    +0.000 HD
ATOM      9  H   UNL     1       4.380   6.180  14.995  0.00  0.00    +0.000 HD
ENDROOT
BRANCH   2  10
ATOM     10  C   UNL     1       4.547   3.466  18.534  0.00  0.00    +0.000 A 
ATOM     11  C   UNL     1       3.681   2.669  17.751  0.00  0.00    +0.000 A 
ATOM     12  C   UNL     1       2.456   2.211  18.259  0.00  0.00    +0.000 A 
ATOM     13  C   UNL     1       2.148   2.510  19.574  0.00  0.00    +0.000 A 
ATOM     14  C   UNL     1       3.013   3.204  20.371  0.00  0.00    +0.000 A 
ATOM     15  C   UNL     1       4.201   3.702  19.884  0.00  0.00    +0.000 A 
ATOM     16  O   UNL     1       2.551   3.351  21.640  0.00  0.00    +0.000 OA
ATOM     17  C   UNL     1       1.272   2.693  21.536  0.00  0.00    +0.000 C 
ATOM     18  O   UNL     1       1.000   2.175  20.218  0.00  0.00    +0.000 OA
ENDBRANCH   2  10
BRANCH   7  19
ATOM     19  C   UNL     1       3.416   6.404  17.769  0.00  0.00    +0.000 C 
ATOM     20  F   UNL     1       3.482   6.399  19.121  0.00  0.00    +0.000 F 
ATOM     21  F   UNL     1       2.745   7.541  17.439  0.00  0.00    +0.000 F 
ATOM     22  F   UNL     1       2.615   5.384  17.381  0.00  0.00    +0.000 F 
ENDBRANCH   7  19
BRANCH   1  24
ATOM     23  O   UNL     1       8.078   5.314  16.987  0.00  0.00    +0.000 OA
ATOM     24  C   UNL     1       7.355   6.080  17.635  0.00  0.00    +0.000 C 
BRANCH  24  25
ATOM     25  C   UNL     1       7.847   7.404  18.006  0.00  0.00    +0.000 A 
ATOM     26  C   UNL     1       8.566   7.820  19.119  0.00  0.00    +0.000 A 
ATOM     27  C   UNL     1       8.862   9.191  18.933  0.00  0.00    +0.000 A 
ATOM     28  C   UNL     1       8.262   9.552  17.758  0.00  0.00    +0.000 A 
ATOM     29  O   UNL     1       7.641   8.483  17.184  0.00  0.00    +0.000 OA
ENDBRANCH  24  25
ENDBRANCH   1  24
BRANCH   7  30
ATOM     30  O   UNL     1       5.206   7.705  16.808  0.00  0.00    +0.000 OA
ATOM     31  H   UNL     1       5.202   7.791  15.830  0.00  0.00    +0.000 HD
ENDBRANCH   7  30
TORSDOF 5
ENDMDL
MODEL 7
REMARK VINA RESULT:      -6.9      2.621      3.852
REMARK  Name = 
REMARK  5 active torsions:
REMARK  status: ('A' for Active; 'I' for Inactive)
REMARK    1  A    between atoms: C_2  and  C_3
REMARK    2  A    between atoms: C_2  and  C_8
REMARK    3  A    between atoms: C_9  and  C_10
REMARK    4  A    between atoms: C_23  and  O_24
REMARK    5  A    between atoms: C_23  and  C_25
REMARK                            x       y       z     vdW  Elec       q    Type
REMARK                         _______ _______ _______ _____ _____    ______ ____
ROOT
ATOM      1  C   UNL     1       4.793   5.781  18.022  0.00  0.00    +0.000 C 
ATOM      2  C   UNL     1       4.329   5.000  16.772  0.00  0.00    +0.000 C 
ATOM      3  N   UNL     1       3.820   3.705  17.174  0.00  0.00    +0.000 N 
ATOM      4  C   UNL     1       4.397   2.933  18.132  0.00  0.00    +0.000 C 
ATOM      5  S   UNL     1       3.990   1.335  18.288  0.00  0.00    +0.000 S 
ATOM      6  N   UNL     1       5.312   3.529  18.942  0.00  0.00    +0.000 N 
ATOM      7  C   UNL     1       5.814   4.901  18.803  0.00  0.00    +0.000 C 
ATOM      8  H   UNL     1       3.197   3.218  16.536  0.00  0.00    +0.000 HD
ATOM      9  H   UNL     1       5.774   2.914  19.605  0.00  0.00    +0.000 HD
ENDROOT
BRANCH   2  10
ATOM     10  C   UNL     1       5.305   4.838  15.605  0.00  0.00    +0.000 A 
ATOM     11  C   UNL     1       6.275   5.834  15.348  0.00  0.00    +0.000 A 
ATOM     12  C   UNL     1       7.041   5.816  14.173  0.00  0.00    +0.000 A 
ATOM     13  C   UNL     1       6.864   4.759  13.300  0.00  0.00    +0.000 A 
ATOM     14  C   UNL     1       5.993   3.742  13.575  0.00  0.00    +0.000 A 
ATOM     15  C   UNL     1       5.198   3.758  14.699  0.00  0.00    +0.000 A 
ATOM     16  O   UNL     1       6.000   2.776  12.620  0.00  0.00    +0.000 OA
ATOM     17  C   UNL     1       6.958   3.324  11.693  0.00  0.00    +0.000 C 
ATOM     18  O   UNL     1       7.495   4.596  12.108  0.00  0.00    +0.000 OA
ENDBRANCH   2  10
BRANCH   7  19
ATOM     19  C   UNL     1       7.275   5.005  18.172  0.00  0.00    +0.000 C 
ATOM     20  F   UNL     1       7.504   6.195  17.569  0.00  0.00    +0.000 F 
ATOM     21  F   UNL     1       8.244   4.880  19.119  0.00  0.00    +0.000 F 
ATOM     22  F   UNL     1       7.518   4.022  17.273  0.00  0.00    +0.000 F 
ENDBRANCH   7  19
BRANCH   1  24
ATOM     23  O   UNL     1       3.191   5.394  19.807  0.00  0.00    +0.000 OA
ATOM     24  C   UNL     1       3.554   6.138  18.888  0.00  0.00    +0.000 C 
BRANCH  24  25
ATOM     25  C   UNL     1       2.847   7.392  18.643  0.00  0.00    +0.000 A 
ATOM     26  C   UNL     1       2.822   8.208  17.520  0.00  0.00    +0.000 A 
ATOM     27  C   UNL     1       1.902   9.250  17.785  0.00  0.00    +0.000 A 
ATOM     28  C   UNL     1       1.465   9.052  19.066  0.00  0.00    +0.000 A 
ATOM     29  O   UNL     1       2.028   7.932  19.601  0.00  0.00    +0.000 OA
ENDBRANCH  24  25
ENDBRANCH   1  24
BRANCH   7  30
ATOM     30  O   UNL     1       5.948   5.356  20.155  0.00  0.00    +0.000 OA
ATOM     31  H   UNL     1       6.638   4.787  20.560  0.00  0.00    +0.000 HD
ENDBRANCH   7  30
TORSDOF 5
ENDMDL
MODEL 8
REMARK VINA RESULT:      -6.8      7.529      9.468
REMARK  Name = 
REMARK  5 active torsions:
REMARK  status: ('A' for Active; 'I' for Inactive)
REMARK    1  A    between atoms: C_2  and  C_3
REMARK    2  A    between atoms: C_2  and  C_8
REMARK    3  A    between atoms: C_9  and  C_10
REMARK    4  A    between atoms: C_23  and  O_24
REMARK    5  A    between atoms: C_23  and  C_25
REMARK                            x       y       z     vdW  Elec       q    Type
REMARK                         _______ _______ _______ _____ _____    ______ ____
ROOT
ATOM      1  C   UNL     1      -1.440  11.563  20.043  0.00  0.00    +0.000 C 
ATOM      2  C   UNL     1      -0.006  11.239  20.520  0.00  0.00    +0.000 C 
ATOM      3  N   UNL     1       0.909  12.235  20.004  0.00  0.00    +0.000 N 
ATOM      4  C   UNL     1       0.841  12.741  18.745  0.00  0.00    +0.000 C 
ATOM      5  S   UNL     1       2.111  13.589  18.105  0.00  0.00    +0.000 S 
ATOM      6  N   UNL     1      -0.305  12.517  18.047  0.00  0.00    +0.000 N 
ATOM      7  C   UNL     1      -1.429  11.684  18.490  0.00  0.00    +0.000 C 
ATOM      8  H   UNL     1       1.802  12.352  20.474  0.00  0.00    +0.000 HD
ATOM      9  H   UNL     1      -0.303  12.849  17.088  0.00  0.00    +0.000 HD
ENDROOT
BRANCH   2  10
ATOM     10  C   UNL     1       0.550   9.837  20.269  0.00  0.00    +0.000 A 
ATOM     11  C   UNL     1       0.286   8.793  21.184  0.00  0.00    +0.000 A 
ATOM     12  C   UNL     1       0.947   7.559  21.091  0.00  0.00    +0.000 A 
ATOM     13  C   UNL     1       1.822   7.371  20.037  0.00  0.00    +0.000 A 
ATOM     14  C   UNL     1       2.023   8.338  19.093  0.00  0.00    +0.000 A 
ATOM     15  C   UNL     1       1.421   9.573  19.186  0.00  0.00    +0.000 A 
ATOM     16  O   UNL     1       2.879   7.944  18.115  0.00  0.00    +0.000 OA
ATOM     17  C   UNL     1       3.219   6.620  18.576  0.00  0.00    +0.000 C 
ATOM     18  O   UNL     1       2.567   6.258  19.809  0.00  0.00    +0.000 OA
ENDBRANCH   2  10
BRANCH   7  19
ATOM     19  C   UNL     1      -1.499  10.251  17.794  0.00  0.00    +0.000 C 
ATOM     20  F   UNL     1      -1.968   9.287  18.620  0.00  0.00    +0.000 F 
ATOM     21  F   UNL     1      -2.336  10.253  16.720  0.00  0.00    +0.000 F 
ATOM     22  F   UNL     1      -0.297   9.852  17.316  0.00  0.00    +0.000 F 
ENDBRANCH   7  19
BRANCH   1  24
ATOM     23  O   UNL     1      -1.632  13.976  20.242  0.00  0.00    +0.000 OA
ATOM     24  C   UNL     1      -1.919  12.874  20.723  0.00  0.00    +0.000 C 
BRANCH  24  25
ATOM     25  C   UNL     1      -2.762  12.796  21.914  0.00  0.00    +0.000 A 
ATOM     26  C   UNL     1      -2.567  12.127  23.115  0.00  0.00    +0.000 A 
ATOM     27  C   UNL     1      -3.651  12.464  23.958  0.00  0.00    +0.000 A 
ATOM     28  C   UNL     1      -4.474  13.265  23.215  0.00  0.00    +0.000 A 
ATOM     29  O   UNL     1      -3.952  13.476  21.974  0.00  0.00    +0.000 OA
ENDBRANCH  24  25
ENDBRANCH   1  24
BRANCH   7  30
ATOM     30  O   UNL     1      -2.585  12.393  18.027  0.00  0.00    +0.000 OA
ATOM     31  H   UNL     1      -2.793  13.047  18.729  0.00  0.00    +0.000 HD
ENDBRANCH   7  30
TORSDOF 5
ENDMDL
MODEL 9
REMARK VINA RESULT:      -6.6      2.517      6.442
REMARK  Name = 
REMARK  5 active torsions:
REMARK  status: ('A' for Active; 'I' for Inactive)
REMARK    1  A    between atoms: C_2  and  C_3
REMARK    2  A    between atoms: C_2  and  C_8
REMARK    3  A    between atoms: C_9  and  C_10
REMARK    4  A    between atoms: C_23  and  O_24
REMARK    5  A    between atoms: C_23  and  C_25
REMARK                            x       y       z     vdW  Elec       q    Type
REMARK                         _______ _______ _______ _____ _____    ______ ____
ROOT
ATOM      1  C   UNL     1       5.464   5.175  16.564  0.00  0.00    +0.000 C 
ATOM      2  C   UNL     1       4.015   4.821  16.968  0.00  0.00    +0.000 C 
ATOM      3  N   UNL     1       3.224   6.032  17.037  0.00  0.00    +0.000 N 
ATOM      4  C   UNL     1       3.680   7.200  17.561  0.00  0.00    +0.000 C 
ATOM      5  S   UNL     1       2.629   8.424  17.939  0.00  0.00    +0.000 S 
ATOM      6  N   UNL     1       5.020   7.311  17.758  0.00  0.00    +0.000 N 
ATOM      7  C   UNL     1       6.007   6.243  17.560  0.00  0.00    +0.000 C 
ATOM      8  H   UNL     1       2.214   5.948  16.970  0.00  0.00    +0.000 HD
ATOM      9  H   UNL     1       5.326   8.168  18.210  0.00  0.00    +0.000 HD
ENDROOT
BRANCH   2  10
ATOM     10  C   UNL     1       3.790   3.977  18.223  0.00  0.00    +0.000 A 
ATOM     11  C   UNL     1       2.759   4.314  19.130  0.00  0.00    +0.000 A 
ATOM     12  C   UNL     1       2.660   3.691  20.383  0.00  0.00    +0.000 A 
ATOM     13  C   UNL     1       3.566   2.690  20.681  0.00  0.00    +0.000 A 
ATOM     14  C   UNL     1       4.513   2.291  19.782  0.00  0.00    +0.000 A 
ATOM     15  C   UNL     1       4.659   2.915  18.564  0.00  0.00    +0.000 A 
ATOM     16  O   UNL     1       5.272   1.262  20.243  0.00  0.00    +0.000 OA
ATOM     17  C   UNL     1       4.708   1.084  21.558  0.00  0.00    +0.000 C 
ATOM     18  O   UNL     1       3.636   2.003  21.851  0.00  0.00    +0.000 OA
ENDBRANCH   2  10
BRANCH   7  19
ATOM     19  C   UNL     1       6.526   5.570  18.909  0.00  0.00    +0.000 C 
ATOM     20  F   UNL     1       6.972   4.305  18.728  0.00  0.00    +0.000 F 
ATOM     21  F   UNL     1       7.573   6.255  19.444  0.00  0.00    +0.000 F 
ATOM     22  F   UNL     1       5.576   5.550  19.873  0.00  0.00    +0.000 F 
ENDBRANCH   7  19
BRANCH   1  24
ATOM     23  O   UNL     1       5.186   6.866  14.842  0.00  0.00    +0.000 OA
ATOM     24  C   UNL     1       5.473   5.692  15.099  0.00  0.00    +0.000 C 
BRANCH  24  25
ATOM     25  C   UNL     1       5.877   4.788  14.025  0.00  0.00    +0.000 A 
ATOM     26  C   UNL     1       5.204   3.723  13.441  0.00  0.00    +0.000 A 
ATOM     27  C   UNL     1       6.015   3.251  12.382  0.00  0.00    +0.000 A 
ATOM     28  C   UNL     1       7.155   4.005  12.414  0.00  0.00    +0.000 A 
ATOM     29  O   UNL     1       7.090   4.940  13.403  0.00  0.00    +0.000 OA
ENDBRANCH  24  25
ENDBRANCH   1  24
BRANCH   7  30
ATOM     30  O   UNL     1       7.142   6.922  17.008  0.00  0.00    +0.000 OA
ATOM     31  H   UNL     1       7.723   7.130  17.772  0.00  0.00    +0.000 HD
ENDBRANCH   7  30
TORSDOF 5
ENDMDL
