MODEL 1
REMARK VINA RESULT:      -6.9      0.000      0.000
REMARK  Name = 
REMARK  2 active torsions:
REMARK  status: ('A' for Active; 'I' for Inactive)
REMARK    1  A    between atoms: C_1  and  C_2
REMARK    2  A    between atoms: N_13  and  C_14
REMARK                            x       y       z     vdW  Elec       q    Type
REMARK                         _______ _______ _______ _____ _____    ______ ____
ROOT
ATOM      1  C   UNL     1       1.228   6.275  20.889  0.00  0.00    +0.000 C 
ATOM      2  C   UNL     1       1.704   4.965  20.321  0.00  0.00    +0.000 A 
ATOM      3  C   UNL     1       1.229   3.779  20.899  0.00  0.00    +0.000 A 
ATOM      4  C   UNL     1       1.652   2.561  20.394  0.00  0.00    +0.000 A 
ATOM      5  N   UNL     1       2.507   2.441  19.363  0.00  0.00    +0.000 NA
ATOM      6  C   UNL     1       2.972   3.592  18.796  0.00  0.00    +0.000 A 
ATOM      7  C   UNL     1       2.604   4.874  19.235  0.00  0.00    +0.000 A 
ATOM      8  C   UNL     1       3.157   6.092  18.564  0.00  0.00    +0.000 C 
ATOM      9  O   UNL     1       2.861   7.225  18.918  0.00  0.00    +0.000 OA
ATOM     10  C   UNL     1       4.069   5.866  17.464  0.00  0.00    +0.000 A 
ATOM     11  C   UNL     1       4.746   6.800  16.642  0.00  0.00    +0.000 A 
ATOM     12  C   UNL     1       5.496   6.079  15.741  0.00  0.00    +0.000 A 
ATOM     13  N   UNL     1       5.295   4.744  15.988  0.00  0.00    +0.000 N 
ATOM     14  C   UNL     1       5.916   3.669  15.243  0.00  0.00    +0.000 C 
ATOM     15  C   UNL     1       4.423   4.601  17.042  0.00  0.00    +0.000 A 
ATOM     16  C   UNL     1       3.929   3.387  17.644  0.00  0.00    +0.000 C 
ATOM     17  O   UNL     1       4.251   2.268  17.260  0.00  0.00    +0.000 OA
ENDROOT
TORSDOF 0
ENDMDL
MODEL 2
REMARK VINA RESULT:      -6.6      1.761      2.782
REMARK  Name = 
REMARK  2 active torsions:
REMARK  status: ('A' for Active; 'I' for Inactive)
REMARK    1  A    between atoms: C_1  and  C_2
REMARK    2  A    between atoms: N_13  and  C_14
REMARK                            x       y       z     vdW  Elec       q    Type
REMARK                         _______ _______ _______ _____ _____    ______ ____
ROOT
ATOM      1  C   UNL     1       0.547   2.224  18.565  0.00  0.00    +0.000 C 
ATOM      2  C   UNL     1       1.536   3.046  19.346  0.00  0.00    +0.000 A 
ATOM      3  C   UNL     1       1.277   3.284  20.704  0.00  0.00    +0.000 A 
ATOM      4  C   UNL     1       2.172   4.037  21.444  0.00  0.00    +0.000 A 
ATOM      5  N   UNL     1       3.298   4.566  20.933  0.00  0.00    +0.000 NA
ATOM      6  C   UNL     1       3.556   4.338  19.612  0.00  0.00    +0.000 A 
ATOM      7  C   UNL     1       2.711   3.588  18.778  0.00  0.00    +0.000 A 
ATOM      8  C   UNL     1       3.060   3.380  17.338  0.00  0.00    +0.000 C 
ATOM      9  O   UNL     1       2.350   2.734  16.580  0.00  0.00    +0.000 OA
ATOM     10  C   UNL     1       4.291   3.987  16.876  0.00  0.00    +0.000 A 
ATOM     11  C   UNL     1       4.882   3.969  15.589  0.00  0.00    +0.000 A 
ATOM     12  C   UNL     1       6.049   4.694  15.669  0.00  0.00    +0.000 A 
ATOM     13  N   UNL     1       6.183   5.148  16.958  0.00  0.00    +0.000 N 
ATOM     14  C   UNL     1       7.290   5.951  17.434  0.00  0.00    +0.000 C 
ATOM     15  C   UNL     1       5.112   4.721  17.707  0.00  0.00    +0.000 A 
ATOM     16  C   UNL     1       4.835   4.960  19.102  0.00  0.00    +0.000 C 
ATOM     17  O   UNL     1       5.573   5.616  19.830  0.00  0.00    +0.000 OA
ENDROOT
TORSDOF 0
ENDMDL
MODEL 3
REMARK VINA RESULT:      -6.4      1.691      4.847
REMARK  Name = 
REMARK  2 active torsions:
REMARK  status: ('A' for Active; 'I' for Inactive)
REMARK    1  A    between atoms: C_1  and  C_2
REMARK    2  A    between atoms: N_13  and  C_14
REMARK                            x       y       z     vdW  Elec       q    Type
REMARK                         _______ _______ _______ _____ _____    ______ ____
ROOT
ATOM      1  C   UNL     1       7.541   6.156  18.006  0.00  0.00    +0.000 C 
ATOM      2  C   UNL     1       6.563   5.381  17.165  0.00  0.00    +0.000 A 
ATOM      3  C   UNL     1       6.870   5.171  15.813  0.00  0.00    +0.000 A 
ATOM      4  C   UNL     1       5.987   4.461  15.018  0.00  0.00    +0.000 A 
ATOM      5  N   UNL     1       4.829   3.948  15.470  0.00  0.00    +0.000 NA
ATOM      6  C   UNL     1       4.525   4.148  16.785  0.00  0.00    +0.000 A 
ATOM      7  C   UNL     1       5.353   4.854  17.671  0.00  0.00    +0.000 A 
ATOM      8  C   UNL     1       4.952   5.034  19.102  0.00  0.00    +0.000 C 
ATOM      9  O   UNL     1       5.646   5.643  19.904  0.00  0.00    +0.000 OA
ATOM     10  C   UNL     1       3.690   4.448  19.499  0.00  0.00    +0.000 A 
ATOM     11  C   UNL     1       3.049   4.447  20.761  0.00  0.00    +0.000 A 
ATOM     12  C   UNL     1       1.868   3.754  20.616  0.00  0.00    +0.000 A 
ATOM     13  N   UNL     1       1.775   3.336  19.312  0.00  0.00    +0.000 N 
ATOM     14  C   UNL     1       0.669   2.573  18.772  0.00  0.00    +0.000 C 
ATOM     15  C   UNL     1       2.885   3.756  18.617  0.00  0.00    +0.000 A 
ATOM     16  C   UNL     1       3.210   3.547  17.228  0.00  0.00    +0.000 C 
ATOM     17  O   UNL     1       2.486   2.930  16.454  0.00  0.00    +0.000 OA
ENDROOT
TORSDOF 0
ENDMDL
MODEL 4
REMARK VINA RESULT:      -6.3      1.607      4.743
REMARK  Name = 
REMARK  2 active torsions:
REMARK  status: ('A' for Active; 'I' for Inactive)
REMARK    1  A    between atoms: C_1  and  C_2
REMARK    2  A    between atoms: N_13  and  C_14
REMARK                            x       y       z     vdW  Elec       q    Type
REMARK                         _______ _______ _______ _____ _____    ______ ____
ROOT
ATOM      1  C   UNL     1       4.817   7.381  16.253  0.00  0.00    +0.000 C 
ATOM      2  C   UNL     1       5.391   6.197  16.984  0.00  0.00    +0.000 A 
ATOM      3  C   UNL     1       6.716   5.827  16.711  0.00  0.00    +0.000 A 
ATOM      4  C   UNL     1       7.267   4.743  17.371  0.00  0.00    +0.000 A 
ATOM      5  N   UNL     1       6.599   4.006  18.277  0.00  0.00    +0.000 NA
ATOM      6  C   UNL     1       5.310   4.362  18.547  0.00  0.00    +0.000 A 
ATOM      7  C   UNL     1       4.661   5.444  17.931  0.00  0.00    +0.000 A 
ATOM      8  C   UNL     1       3.243   5.774  18.277  0.00  0.00    +0.000 C 
ATOM      9  O   UNL     1       2.644   6.708  17.763  0.00  0.00    +0.000 OA
ATOM     10  C   UNL     1       2.604   4.927  19.262  0.00  0.00    +0.000 A 
ATOM     11  C   UNL     1       1.292   4.984  19.791  0.00  0.00    +0.000 A 
ATOM     12  C   UNL     1       1.174   3.955  20.697  0.00  0.00    +0.000 A 
ATOM     13  N   UNL     1       2.369   3.280  20.735  0.00  0.00    +0.000 N 
ATOM     14  C   UNL     1       2.636   2.131  21.575  0.00  0.00    +0.000 C 
ATOM     15  C   UNL     1       3.253   3.866  19.860  0.00  0.00    +0.000 A 
ATOM     16  C   UNL     1       4.616   3.494  19.572  0.00  0.00    +0.000 C 
ATOM     17  O   UNL     1       5.182   2.548  20.109  0.00  0.00    +0.000 OA
ENDROOT
TORSDOF 0
ENDMDL
MODEL 5
REMARK VINA RESULT:      -6.3      2.451      3.851
REMARK  Name = 
REMARK  2 active torsions:
REMARK  status: ('A' for Active; 'I' for Inactive)
REMARK    1  A    between atoms: C_1  and  C_2
REMARK    2  A    between atoms: N_13  and  C_14
REMARK                            x       y       z     vdW  Elec       q    Type
REMARK                         _______ _______ _______ _____ _____    ______ ____
ROOT
ATOM      1  C   UNL     1       1.927   9.902  17.846  0.00  0.00    +0.000 C 
ATOM      2  C   UNL     1       1.736   8.920  18.970  0.00  0.00    +0.000 A 
ATOM      3  C   UNL     1       0.962   9.314  20.071  0.00  0.00    +0.000 A 
ATOM      4  C   UNL     1       0.771   8.428  21.118  0.00  0.00    +0.000 A 
ATOM      5  N   UNL     1       1.291   7.188  21.146  0.00  0.00    +0.000 NA
ATOM      6  C   UNL     1       2.044   6.799  20.077  0.00  0.00    +0.000 A 
ATOM      7  C   UNL     1       2.296   7.623  18.968  0.00  0.00    +0.000 A 
ATOM      8  C   UNL     1       3.134   7.127  17.832  0.00  0.00    +0.000 C 
ATOM      9  O   UNL     1       3.376   7.814  16.849  0.00  0.00    +0.000 OA
ATOM     10  C   UNL     1       3.651   5.780  17.949  0.00  0.00    +0.000 A 
ATOM     11  C   UNL     1       4.461   5.040  17.053  0.00  0.00    +0.000 A 
ATOM     12  C   UNL     1       4.679   3.808  17.627  0.00  0.00    +0.000 A 
ATOM     13  N   UNL     1       4.029   3.778  18.836  0.00  0.00    +0.000 N 
ATOM     14  C   UNL     1       4.024   2.645  19.737  0.00  0.00    +0.000 C 
ATOM     15  C   UNL     1       3.396   4.981  19.044  0.00  0.00    +0.000 A 
ATOM     16  C   UNL     1       2.599   5.396  20.172  0.00  0.00    +0.000 C 
ATOM     17  O   UNL     1       2.380   4.676  21.140  0.00  0.00    +0.000 OA
ENDROOT
TORSDOF 0
ENDMDL
MODEL 6
REMARK VINA RESULT:      -6.2      1.147      4.598
REMARK  Name = 
REMARK  2 active torsions:
REMARK  status: ('A' for Active; 'I' for Inactive)
REMARK    1  A    between atoms: C_1  and  C_2
REMARK    2  A    between atoms: N_13  and  C_14
REMARK                            x       y       z     vdW  Elec       q    Type
REMARK                         _______ _______ _______ _____ _____    ______ ____
ROOT
ATOM      1  C   UNL     1       4.971   7.220  15.515  0.00  0.00    +0.000 C 
ATOM      2  C   UNL     1       5.049   5.785  15.964  0.00  0.00    +0.000 A 
ATOM      3  C   UNL     1       5.814   4.891  15.200  0.00  0.00    +0.000 A 
ATOM      4  C   UNL     1       5.902   3.567  15.592  0.00  0.00    +0.000 A 
ATOM      5  N   UNL     1       5.287   3.072  16.682  0.00  0.00    +0.000 NA
ATOM      6  C   UNL     1       4.542   3.937  17.430  0.00  0.00    +0.000 A 
ATOM      7  C   UNL     1       4.391   5.298  17.115  0.00  0.00    +0.000 A 
ATOM      8  C   UNL     1       3.556   6.187  17.983  0.00  0.00    +0.000 C 
ATOM      9  O   UNL     1       3.400   7.375  17.742  0.00  0.00    +0.000 OA
ATOM     10  C   UNL     1       2.933   5.568  19.134  0.00  0.00    +0.000 A 
ATOM     11  C   UNL     1       2.100   6.136  20.127  0.00  0.00    +0.000 A 
ATOM     12  C   UNL     1       1.769   5.129  21.004  0.00  0.00    +0.000 A 
ATOM     13  N   UNL     1       2.374   3.973  20.576  0.00  0.00    +0.000 N 
ATOM     14  C   UNL     1       2.262   2.693  21.243  0.00  0.00    +0.000 C 
ATOM     15  C   UNL     1       3.091   4.230  19.431  0.00  0.00    +0.000 A 
ATOM     16  C   UNL     1       3.879   3.319  18.638  0.00  0.00    +0.000 C 
ATOM     17  O   UNL     1       4.010   2.131  18.913  0.00  0.00    +0.000 OA
ENDROOT
TORSDOF 0
ENDMDL
MODEL 7
REMARK VINA RESULT:      -6.1      1.101      1.197
REMARK  Name = 
REMARK  2 active torsions:
REMARK  status: ('A' for Active; 'I' for Inactive)
REMARK    1  A    between atoms: C_1  and  C_2
REMARK    2  A    between atoms: N_13  and  C_14
REMARK                            x       y       z     vdW  Elec       q    Type
REMARK                         _______ _______ _______ _____ _____    ______ ____
ROOT
ATOM      1  C   UNL     1       1.072   5.040  20.519  0.00  0.00    +0.000 C 
ATOM      2  C   UNL     1       1.732   4.057  19.588  0.00  0.00    +0.000 A 
ATOM      3  C   UNL     1       1.238   2.745  19.549  0.00  0.00    +0.000 A 
ATOM      4  C   UNL     1       1.827   1.823  18.702  0.00  0.00    +0.000 A 
ATOM      5  N   UNL     1       2.865   2.112  17.896  0.00  0.00    +0.000 NA
ATOM      6  C   UNL     1       3.349   3.387  17.928  0.00  0.00    +0.000 A 
ATOM      7  C   UNL     1       2.821   4.393  18.753  0.00  0.00    +0.000 A 
ATOM      8  C   UNL     1       3.405   5.771  18.736  0.00  0.00    +0.000 C 
ATOM      9  O   UNL     1       2.974   6.674  19.439  0.00  0.00    +0.000 OA
ATOM     10  C   UNL     1       4.519   5.990  17.838  0.00  0.00    +0.000 A 
ATOM     11  C   UNL     1       5.272   7.165  17.598  0.00  0.00    +0.000 A 
ATOM     12  C   UNL     1       6.222   6.852  16.653  0.00  0.00    +0.000 A 
ATOM     13  N   UNL     1       6.069   5.530  16.313  0.00  0.00    +0.000 N 
ATOM     14  C   UNL     1       6.887   4.832  15.343  0.00  0.00    +0.000 C 
ATOM     15  C   UNL     1       5.028   4.992  17.032  0.00  0.00    +0.000 A 
ATOM     16  C   UNL     1       4.514   3.645  17.001  0.00  0.00    +0.000 C 
ATOM     17  O   UNL     1       4.976   2.766  16.281  0.00  0.00    +0.000 OA
ENDROOT
TORSDOF 0
ENDMDL
MODEL 8
REMARK VINA RESULT:      -6.1      2.385      3.981
REMARK  Name = 
REMARK  2 active torsions:
REMARK  status: ('A' for Active; 'I' for Inactive)
REMARK    1  A    between atoms: C_1  and  C_2
REMARK    2  A    between atoms: N_13  and  C_14
REMARK                            x       y       z     vdW  Elec       q    Type
REMARK                         _______ _______ _______ _____ _____    ______ ____
ROOT
ATOM      1  C   UNL     1       0.627   8.148  21.198  0.00  0.00    +0.000 C 
ATOM      2  C   UNL     1       1.381   8.325  19.907  0.00  0.00    +0.000 A 
ATOM      3  C   UNL     1       1.262   9.548  19.231  0.00  0.00    +0.000 A 
ATOM      4  C   UNL     1       1.945   9.736  18.042  0.00  0.00    +0.000 A 
ATOM      5  N   UNL     1       2.734   8.800  17.483  0.00  0.00    +0.000 NA
ATOM      6  C   UNL     1       2.856   7.609  18.137  0.00  0.00    +0.000 A 
ATOM      7  C   UNL     1       2.203   7.322  19.347  0.00  0.00    +0.000 A 
ATOM      8  C   UNL     1       2.383   5.990  20.007  0.00  0.00    +0.000 C 
ATOM      9  O   UNL     1       1.832   5.702  21.059  0.00  0.00    +0.000 OA
ATOM     10  C   UNL     1       3.250   5.047  19.333  0.00  0.00    +0.000 A 
ATOM     11  C   UNL     1       3.614   3.729  19.702  0.00  0.00    +0.000 A 
ATOM     12  C   UNL     1       4.461   3.254  18.727  0.00  0.00    +0.000 A 
ATOM     13  N   UNL     1       4.623   4.239  17.784  0.00  0.00    +0.000 N 
ATOM     14  C   UNL     1       5.447   4.114  16.600  0.00  0.00    +0.000 C 
ATOM     15  C   UNL     1       3.885   5.342  18.145  0.00  0.00    +0.000 A 
ATOM     16  C   UNL     1       3.755   6.603  17.456  0.00  0.00    +0.000 C 
ATOM     17  O   UNL     1       4.324   6.853  16.400  0.00  0.00    +0.000 OA
ENDROOT
TORSDOF 0
ENDMDL
MODEL 9
REMARK VINA RESULT:      -6.0      2.483      4.901
REMARK  Name = 
REMARK  2 active torsions:
REMARK  status: ('A' for Active; 'I' for Inactive)
REMARK    1  A    between atoms: C_1  and  C_2
REMARK    2  A    between atoms: N_13  and  C_14
REMARK                            x       y       z     vdW  Elec       q    Type
REMARK                         _______ _______ _______ _____ _____    ______ ____
ROOT
ATOM      1  C   UNL     1       3.637   2.831  20.074  0.00  0.00    +0.000 C 
ATOM      2  C   UNL     1       3.805   3.876  19.003  0.00  0.00    +0.000 A 
ATOM      3  C   UNL     1       4.564   3.549  17.870  0.00  0.00    +0.000 A 
ATOM      4  C   UNL     1       4.734   4.492  16.871  0.00  0.00    +0.000 A 
ATOM      5  N   UNL     1       4.205   5.728  16.919  0.00  0.00    +0.000 NA
ATOM      6  C   UNL     1       3.464   6.052  18.019  0.00  0.00    +0.000 A 
ATOM      7  C   UNL     1       3.235   5.166  19.084  0.00  0.00    +0.000 A 
ATOM      8  C   UNL     1       2.412   5.593  20.259  0.00  0.00    +0.000 C 
ATOM      9  O   UNL     1       2.191   4.851  21.206  0.00  0.00    +0.000 OA
ATOM     10  C   UNL     1       1.884   6.940  20.224  0.00  0.00    +0.000 A 
ATOM     11  C   UNL     1       1.082   7.623  21.170  0.00  0.00    +0.000 A 
ATOM     12  C   UNL     1       0.848   8.883  20.669  0.00  0.00    +0.000 A 
ATOM     13  N   UNL     1       1.479   8.984  19.453  0.00  0.00    +0.000 N 
ATOM     14  C   UNL     1       1.461  10.165  18.616  0.00  0.00    +0.000 C 
ATOM     15  C   UNL     1       2.117   7.800  19.170  0.00  0.00    +0.000 A 
ATOM     16  C   UNL     1       2.900   7.454  18.010  0.00  0.00    +0.000 C 
ATOM     17  O   UNL     1       3.101   8.228  17.080  0.00  0.00    +0.000 OA
ENDROOT
TORSDOF 0
ENDMDL
