MODEL 1
REMARK VINA RESULT:      -7.7      0.000      0.000
REMARK  Name = 
REMARK  8 active torsions:
REMARK  status: ('A' for Active; 'I' for Inactive)
REMARK    1  A    between atoms: C_2  and  C_3
REMARK    2  A    between atoms: N_5  and  C_6
REMARK    3  A    between atoms: C_9  and  S_10
REMARK    4  A    between atoms: S_10  and  N_13
REMARK    5  A    between atoms: C_16  and  N_17
REMARK    6  A    between atoms: C_18  and  O_20
REMARK    7  A    between atoms: O_20  and  C_21
REMARK    8  A    between atoms: C_21  and  C_22
REMARK                            x       y       z     vdW  Elec       q    Type
REMARK                         _______ _______ _______ _____ _____    ______ ____
ROOT
ATOM      1  N   UNL     1       3.464   4.205  20.452  0.00  0.00    +0.000 NA
ATOM      2  C   UNL     1       2.254   4.056  21.265  0.00  0.00    +0.000 C 
ATOM      3  C   UNL     1       1.222   4.921  20.564  0.00  0.00    +0.000 C 
ATOM      4  C   UNL     1       2.016   6.069  19.937  0.00  0.00    +0.000 C 
ATOM      5  C   UNL     1       3.486   5.584  19.921  0.00  0.00    +0.000 C 
ENDROOT
BRANCH   4   6
ATOM      6  N   UNL     1       1.822   7.323  20.649  0.00  0.00    +0.000 N 
ATOM      7  C   UNL     1       1.548   8.483  19.986  0.00  0.00    +0.000 C 
ATOM      8  O   UNL     1       1.519   8.592  18.770  0.00  0.00    +0.000 OA
ATOM      9  H   UNL     1       1.675   7.347  21.648  0.00  0.00    +0.000 HD
BRANCH   7  10
ATOM     10  O   UNL     1       1.377   9.483  20.879  0.00  0.00    +0.000 OA
BRANCH  10  11
ATOM     11  C   UNL     1       0.234   9.343  21.731  0.00  0.00    +0.000 C 
BRANCH  11  12
ATOM     12  C   UNL     1      -0.571  10.614  21.795  0.00  0.00    +0.000 A 
ATOM     13  C   UNL     1      -0.881  11.322  20.625  0.00  0.00    +0.000 A 
ATOM     14  C   UNL     1      -1.659  12.480  20.682  0.00  0.00    +0.000 A 
ATOM     15  C   UNL     1      -2.127  12.946  21.910  0.00  0.00    +0.000 A 
ATOM     16  C   UNL     1      -1.815  12.257  23.081  0.00  0.00    +0.000 A 
ATOM     17  C   UNL     1      -1.037  11.100  23.025  0.00  0.00    +0.000 A 
ENDBRANCH  11  12
ENDBRANCH  10  11
ENDBRANCH   7  10
ENDBRANCH   4   6
BRANCH   1  18
ATOM     18  S   UNL     1       4.010   2.935  19.491  0.00  0.00    +0.000 S 
ATOM     19  O   UNL     1       2.848   2.260  18.952  0.00  0.00    +0.000 OA
ATOM     20  O   UNL     1       5.014   2.208  20.237  0.00  0.00    +0.000 OA
BRANCH  18  24
ATOM     21  C   UNL     1       6.246   4.681  15.870  0.00  0.00    +0.000 A 
ATOM     22  C   UNL     1       6.853   4.631  17.130  0.00  0.00    +0.000 A 
ATOM     23  C   UNL     1       6.158   4.146  18.247  0.00  0.00    +0.000 A 
ATOM     24  C   UNL     1       4.838   3.719  18.113  0.00  0.00    +0.000 A 
ATOM     25  C   UNL     1       4.217   3.763  16.861  0.00  0.00    +0.000 A 
ATOM     26  C   UNL     1       4.915   4.256  15.750  0.00  0.00    +0.000 A 
BRANCH  21  29
ATOM     27  C   UNL     1       6.859   4.522  13.456  0.00  0.00    +0.000 C 
ATOM     28  O   UNL     1       6.198   3.540  13.141  0.00  0.00    +0.000 OA
ATOM     29  N   UNL     1       6.905   5.125  14.699  0.00  0.00    +0.000 N 
ATOM     30  H   UNL     1       7.401   6.004  14.772  0.00  0.00    +0.000 HD
BRANCH  27  32
ATOM     31  C   UNL     1       8.703   6.024  12.852  0.00  0.00    +0.000 C 
ATOM     32  C   UNL     1       7.714   5.212  12.448  0.00  0.00    +0.000 C 
ENDBRANCH  27  32
ENDBRANCH  21  29
ENDBRANCH  18  24
ENDBRANCH   1  18
TORSDOF 8
ENDMDL
MODEL 2
REMARK VINA RESULT:      -7.7      2.405      9.400
REMARK  Name = 
REMARK  8 active torsions:
REMARK  status: ('A' for Active; 'I' for Inactive)
REMARK    1  A    between atoms: C_2  and  C_3
REMARK    2  A    between atoms: N_5  and  C_6
REMARK    3  A    between atoms: C_9  and  S_10
REMARK    4  A    between atoms: S_10  and  N_13
REMARK    5  A    between atoms: C_16  and  N_17
REMARK    6  A    between atoms: C_18  and  O_20
REMARK    7  A    between atoms: O_20  and  C_21
REMARK    8  A    between atoms: C_21  and  C_22
REMARK                            x       y       z     vdW  Elec       q    Type
REMARK                         _______ _______ _______ _____ _____    ______ ____
ROOT
ATOM      1  N   UNL     1       2.807   4.621  19.122  0.00  0.00    +0.000 NA
ATOM      2  C   UNL     1       3.034   3.238  18.691  0.00  0.00    +0.000 C 
ATOM      3  C   UNL     1       4.489   2.971  19.035  0.00  0.00    +0.000 C 
ATOM      4  C   UNL     1       5.193   4.322  18.886  0.00  0.00    +0.000 C 
ATOM      5  C   UNL     1       4.059   5.375  18.901  0.00  0.00    +0.000 C 
ENDROOT
BRANCH   4   6
ATOM      6  N   UNL     1       6.026   4.377  17.695  0.00  0.00    +0.000 N 
ATOM      7  C   UNL     1       7.379   4.534  17.777  0.00  0.00    +0.000 C 
ATOM      8  O   UNL     1       7.988   4.719  18.819  0.00  0.00    +0.000 OA
ATOM      9  H   UNL     1       5.675   4.094  16.790  0.00  0.00    +0.000 HD
BRANCH   7  10
ATOM     10  O   UNL     1       7.912   4.515  16.535  0.00  0.00    +0.000 OA
BRANCH  10  11
ATOM     11  C   UNL     1       7.324   5.440  15.612  0.00  0.00    +0.000 C 
BRANCH  11  12
ATOM     12  C   UNL     1       6.961   4.772  14.312  0.00  0.00    +0.000 A 
ATOM     13  C   UNL     1       5.849   3.922  14.232  0.00  0.00    +0.000 A 
ATOM     14  C   UNL     1       5.492   3.333  13.018  0.00  0.00    +0.000 A 
ATOM     15  C   UNL     1       6.248   3.581  11.873  0.00  0.00    +0.000 A 
ATOM     16  C   UNL     1       7.363   4.416  11.943  0.00  0.00    +0.000 A 
ATOM     17  C   UNL     1       7.721   5.004  13.157  0.00  0.00    +0.000 A 
ENDBRANCH  11  12
ENDBRANCH  10  11
ENDBRANCH   7  10
ENDBRANCH   4   6
BRANCH   1  18
ATOM     18  S   UNL     1       1.866   4.949  20.478  0.00  0.00    +0.000 S 
ATOM     19  O   UNL     1       2.670   4.668  21.649  0.00  0.00    +0.000 OA
ATOM     20  O   UNL     1       0.577   4.322  20.292  0.00  0.00    +0.000 OA
BRANCH  18  24
ATOM     21  C   UNL     1       0.934   9.448  20.247  0.00  0.00    +0.000 A 
ATOM     22  C   UNL     1       1.677   8.818  19.242  0.00  0.00    +0.000 A 
ATOM     23  C   UNL     1       2.006   7.459  19.333  0.00  0.00    +0.000 A 
ATOM     24  C   UNL     1       1.604   6.718  20.444  0.00  0.00    +0.000 A 
ATOM     25  C   UNL     1       0.863   7.333  21.457  0.00  0.00    +0.000 A 
ATOM     26  C   UNL     1       0.544   8.694  21.364  0.00  0.00    +0.000 A 
BRANCH  21  29
ATOM     27  C   UNL     1      -0.369  11.361  19.315  0.00  0.00    +0.000 C 
ATOM     28  O   UNL     1      -1.029  10.769  18.471  0.00  0.00    +0.000 OA
ATOM     29  N   UNL     1       0.540  10.806  20.197  0.00  0.00    +0.000 N 
ATOM     30  H   UNL     1       0.914  11.407  20.920  0.00  0.00    +0.000 HD
BRANCH  27  32
ATOM     31  C   UNL     1      -0.345  13.655  18.443  0.00  0.00    +0.000 C 
ATOM     32  C   UNL     1      -0.516  12.836  19.491  0.00  0.00    +0.000 C 
ENDBRANCH  27  32
ENDBRANCH  21  29
ENDBRANCH  18  24
ENDBRANCH   1  18
TORSDOF 8
ENDMDL
MODEL 3
REMARK VINA RESULT:      -7.5      2.455      9.354
REMARK  Name = 
REMARK  8 active torsions:
REMARK  status: ('A' for Active; 'I' for Inactive)
REMARK    1  A    between atoms: C_2  and  C_3
REMARK    2  A    between atoms: N_5  and  C_6
REMARK    3  A    between atoms: C_9  and  S_10
REMARK    4  A    between atoms: S_10  and  N_13
REMARK    5  A    between atoms: C_16  and  N_17
REMARK    6  A    between atoms: C_18  and  O_20
REMARK    7  A    between atoms: O_20  and  C_21
REMARK    8  A    between atoms: C_21  and  C_22
REMARK                            x       y       z     vdW  Elec       q    Type
REMARK                         _______ _______ _______ _____ _____    ______ ____
ROOT
ATOM      1  N   UNL     1       2.790   4.626  19.106  0.00  0.00    +0.000 NA
ATOM      2  C   UNL     1       2.890   3.242  18.636  0.00  0.00    +0.000 C 
ATOM      3  C   UNL     1       4.307   2.826  18.992  0.00  0.00    +0.000 C 
ATOM      4  C   UNL     1       5.140   4.106  18.895  0.00  0.00    +0.000 C 
ATOM      5  C   UNL     1       4.112   5.263  18.926  0.00  0.00    +0.000 C 
ENDROOT
BRANCH   4   6
ATOM      6  N   UNL     1       5.994   4.115  17.717  0.00  0.00    +0.000 N 
ATOM      7  C   UNL     1       7.282   4.559  17.775  0.00  0.00    +0.000 C 
ATOM      8  O   UNL     1       7.798   5.050  18.768  0.00  0.00    +0.000 OA
ATOM      9  H   UNL     1       5.746   3.608  16.879  0.00  0.00    +0.000 HD
BRANCH   7  10
ATOM     10  O   UNL     1       7.861   4.426  16.561  0.00  0.00    +0.000 OA
BRANCH  10  11
ATOM     11  C   UNL     1       7.479   5.418  15.599  0.00  0.00    +0.000 C 
BRANCH  11  12
ATOM     12  C   UNL     1       7.045   4.792  14.300  0.00  0.00    +0.000 A 
ATOM     13  C   UNL     1       7.757   5.035  13.117  0.00  0.00    +0.000 A 
ATOM     14  C   UNL     1       7.375   4.425  11.921  0.00  0.00    +0.000 A 
ATOM     15  C   UNL     1       6.272   3.572  11.894  0.00  0.00    +0.000 A 
ATOM     16  C   UNL     1       5.549   3.332  13.062  0.00  0.00    +0.000 A 
ATOM     17  C   UNL     1       5.930   3.943  14.258  0.00  0.00    +0.000 A 
ENDBRANCH  11  12
ENDBRANCH  10  11
ENDBRANCH   7  10
ENDBRANCH   4   6
BRANCH   1  18
ATOM     18  S   UNL     1       1.862   5.004  20.458  0.00  0.00    +0.000 S 
ATOM     19  O   UNL     1       2.709   4.870  21.625  0.00  0.00    +0.000 OA
ATOM     20  O   UNL     1       0.612   4.284  20.360  0.00  0.00    +0.000 OA
BRANCH  18  24
ATOM     21  C   UNL     1       1.172   9.539  20.120  0.00  0.00    +0.000 A 
ATOM     22  C   UNL     1       0.863   8.854  21.300  0.00  0.00    +0.000 A 
ATOM     23  C   UNL     1       1.024   7.465  21.392  0.00  0.00    +0.000 A 
ATOM     24  C   UNL     1       1.485   6.745  20.291  0.00  0.00    +0.000 A 
ATOM     25  C   UNL     1       1.798   7.414  19.104  0.00  0.00    +0.000 A 
ATOM     26  C   UNL     1       1.627   8.802  19.017  0.00  0.00    +0.000 A 
BRANCH  21  29
ATOM     27  C   UNL     1      -0.097  11.655  19.744  0.00  0.00    +0.000 C 
ATOM     28  O   UNL     1      -1.233  11.204  19.680  0.00  0.00    +0.000 OA
ATOM     29  N   UNL     1       1.065  10.943  19.977  0.00  0.00    +0.000 N 
ATOM     30  H   UNL     1       1.914  11.473  20.126  0.00  0.00    +0.000 HD
BRANCH  27  32
ATOM     31  C   UNL     1       0.882  13.566  18.556  0.00  0.00    +0.000 C 
ATOM     32  C   UNL     1       0.145  13.118  19.584  0.00  0.00    +0.000 C 
ENDBRANCH  27  32
ENDBRANCH  21  29
ENDBRANCH  18  24
ENDBRANCH   1  18
TORSDOF 8
ENDMDL
MODEL 4
REMARK VINA RESULT:      -7.4      1.765      2.308
REMARK  Name = 
REMARK  8 active torsions:
REMARK  status: ('A' for Active; 'I' for Inactive)
REMARK    1  A    between atoms: C_2  and  C_3
REMARK    2  A    between atoms: N_5  and  C_6
REMARK    3  A    between atoms: C_9  and  S_10
REMARK    4  A    between atoms: S_10  and  N_13
REMARK    5  A    between atoms: C_16  and  N_17
REMARK    6  A    between atoms: C_18  and  O_20
REMARK    7  A    between atoms: O_20  and  C_21
REMARK    8  A    between atoms: C_21  and  C_22
REMARK                            x       y       z     vdW  Elec       q    Type
REMARK                         _______ _______ _______ _____ _____    ______ ____
ROOT
ATOM      1  N   UNL     1       2.995   4.136  19.664  0.00  0.00    +0.000 NA
ATOM      2  C   UNL     1       1.702   4.183  18.976  0.00  0.00    +0.000 C 
ATOM      3  C   UNL     1       1.829   5.351  18.015  0.00  0.00    +0.000 C 
ATOM      4  C   UNL     1       2.766   6.343  18.707  0.00  0.00    +0.000 C 
ATOM      5  C   UNL     1       3.480   5.525  19.810  0.00  0.00    +0.000 C 
ENDROOT
BRANCH   4   6
ATOM      6  N   UNL     1       2.056   7.508  19.211  0.00  0.00    +0.000 N 
ATOM      7  C   UNL     1       1.998   8.671  18.500  0.00  0.00    +0.000 C 
ATOM      8  O   UNL     1       2.585   8.863  17.446  0.00  0.00    +0.000 OA
ATOM      9  H   UNL     1       1.412   7.441  19.988  0.00  0.00    +0.000 HD
BRANCH   7  10
ATOM     10  O   UNL     1       1.250   9.574  19.171  0.00  0.00    +0.000 OA
BRANCH  10  11
ATOM     11  C   UNL     1       0.831  10.705  18.398  0.00  0.00    +0.000 C 
BRANCH  11  12
ATOM     12  C   UNL     1      -0.670  10.798  18.318  0.00  0.00    +0.000 A 
ATOM     13  C   UNL     1      -1.395   9.942  17.477  0.00  0.00    +0.000 A 
ATOM     14  C   UNL     1      -2.788  10.005  17.433  0.00  0.00    +0.000 A 
ATOM     15  C   UNL     1      -3.471  10.929  18.222  0.00  0.00    +0.000 A 
ATOM     16  C   UNL     1      -2.760  11.793  19.054  0.00  0.00    +0.000 A 
ATOM     17  C   UNL     1      -1.366  11.732  19.098  0.00  0.00    +0.000 A 
ENDBRANCH  11  12
ENDBRANCH  10  11
ENDBRANCH   7  10
ENDBRANCH   4   6
BRANCH   1  18
ATOM     18  S   UNL     1       4.092   2.902  19.338  0.00  0.00    +0.000 S 
ATOM     19  O   UNL     1       3.334   1.736  18.933  0.00  0.00    +0.000 OA
ATOM     20  O   UNL     1       5.032   2.835  20.434  0.00  0.00    +0.000 OA
BRANCH  18  24
ATOM     21  C   UNL     1       6.295   4.594  15.670  0.00  0.00    +0.000 A 
ATOM     22  C   UNL     1       5.050   3.969  15.533  0.00  0.00    +0.000 A 
ATOM     23  C   UNL     1       4.398   3.408  16.639  0.00  0.00    +0.000 A 
ATOM     24  C   UNL     1       4.998   3.455  17.897  0.00  0.00    +0.000 A 
ATOM     25  C   UNL     1       6.241   4.074  18.051  0.00  0.00    +0.000 A 
ATOM     26  C   UNL     1       6.891   4.627  16.939  0.00  0.00    +0.000 A 
BRANCH  21  29
ATOM     27  C   UNL     1       7.046   4.755  13.296  0.00  0.00    +0.000 C 
ATOM     28  O   UNL     1       6.468   3.781  12.832  0.00  0.00    +0.000 OA
ATOM     29  N   UNL     1       6.986   5.210  14.600  0.00  0.00    +0.000 N 
ATOM     30  H   UNL     1       7.420   6.101  14.803  0.00  0.00    +0.000 HD
BRANCH  27  32
ATOM     31  C   UNL     1       9.082   6.064  12.892  0.00  0.00    +0.000 C 
ATOM     32  C   UNL     1       7.910   5.606  12.427  0.00  0.00    +0.000 C 
ENDBRANCH  27  32
ENDBRANCH  21  29
ENDBRANCH  18  24
ENDBRANCH   1  18
TORSDOF 8
ENDMDL
MODEL 5
REMARK VINA RESULT:      -7.3      4.756      9.684
REMARK  Name = 
REMARK  8 active torsions:
REMARK  status: ('A' for Active; 'I' for Inactive)
REMARK    1  A    between atoms: C_2  and  C_3
REMARK    2  A    between atoms: N_5  and  C_6
REMARK    3  A    between atoms: C_9  and  S_10
REMARK    4  A    between atoms: S_10  and  N_13
REMARK    5  A    between atoms: C_16  and  N_17
REMARK    6  A    between atoms: C_18  and  O_20
REMARK    7  A    between atoms: O_20  and  C_21
REMARK    8  A    between atoms: C_21  and  C_22
REMARK                            x       y       z     vdW  Elec       q    Type
REMARK                         _______ _______ _______ _____ _____    ______ ____
ROOT
ATOM      1  N   UNL     1      -0.205  11.653  20.492  0.00  0.00    +0.000 NA
ATOM      2  C   UNL     1       1.143  11.960  20.006  0.00  0.00    +0.000 C 
ATOM      3  C   UNL     1       1.397  10.926  18.923  0.00  0.00    +0.000 C 
ATOM      4  C   UNL     1       0.620   9.683  19.363  0.00  0.00    +0.000 C 
ATOM      5  C   UNL     1      -0.388  10.188  20.423  0.00  0.00    +0.000 C 
ENDROOT
BRANCH   4   6
ATOM      6  N   UNL     1       1.500   8.631  19.848  0.00  0.00    +0.000 N 
ATOM      7  C   UNL     1       2.185   7.822  18.989  0.00  0.00    +0.000 C 
ATOM      8  O   UNL     1       2.066   7.851  17.773  0.00  0.00    +0.000 OA
ATOM      9  H   UNL     1       1.799   8.593  20.812  0.00  0.00    +0.000 HD
BRANCH   7  10
ATOM     10  O   UNL     1       2.952   6.962  19.693  0.00  0.00    +0.000 OA
BRANCH  10  11
ATOM     11  C   UNL     1       3.504   5.881  18.931  0.00  0.00    +0.000 C 
BRANCH  11  12
ATOM     12  C   UNL     1       2.620   4.663  18.974  0.00  0.00    +0.000 A 
ATOM     13  C   UNL     1       2.741   3.658  18.005  0.00  0.00    +0.000 A 
ATOM     14  C   UNL     1       1.947   2.512  18.068  0.00  0.00    +0.000 A 
ATOM     15  C   UNL     1       1.017   2.363  19.097  0.00  0.00    +0.000 A 
ATOM     16  C   UNL     1       0.879   3.362  20.060  0.00  0.00    +0.000 A 
ATOM     17  C   UNL     1       1.673   4.509  19.997  0.00  0.00    +0.000 A 
ENDBRANCH  11  12
ENDBRANCH  10  11
ENDBRANCH   7  10
ENDBRANCH   4   6
BRANCH   1  18
ATOM     18  S   UNL     1      -1.496  12.671  20.132  0.00  0.00    +0.000 S 
ATOM     19  O   UNL     1      -0.948  13.923  19.653  0.00  0.00    +0.000 OA
ATOM     20  O   UNL     1      -2.417  12.639  21.246  0.00  0.00    +0.000 OA
BRANCH  18  24
ATOM     21  C   UNL     1      -3.726  10.962  16.489  0.00  0.00    +0.000 A 
ATOM     22  C   UNL     1      -4.323  10.970  17.754  0.00  0.00    +0.000 A 
ATOM     23  C   UNL     1      -3.629  11.444  18.876  0.00  0.00    +0.000 A 
ATOM     24  C   UNL     1      -2.319  11.902  18.742  0.00  0.00    +0.000 A 
ATOM     25  C   UNL     1      -1.708  11.898  17.485  0.00  0.00    +0.000 A 
ATOM     26  C   UNL     1      -2.404  11.416  16.368  0.00  0.00    +0.000 A 
BRANCH  21  29
ATOM     27  C   UNL     1      -3.778  10.085  14.153  0.00  0.00    +0.000 C 
ATOM     28  O   UNL     1      -2.579   9.932  13.964  0.00  0.00    +0.000 OA
ATOM     29  N   UNL     1      -4.385  10.530  15.313  0.00  0.00    +0.000 N 
ATOM     30  H   UNL     1      -5.394  10.485  15.358  0.00  0.00    +0.000 HD
BRANCH  27  32
ATOM     31  C   UNL     1      -4.390   9.833  11.790  0.00  0.00    +0.000 C 
ATOM     32  C   UNL     1      -4.760   9.761  13.077  0.00  0.00    +0.000 C 
ENDBRANCH  27  32
ENDBRANCH  21  29
ENDBRANCH  18  24
ENDBRANCH   1  18
TORSDOF 8
ENDMDL
MODEL 6
REMARK VINA RESULT:      -7.3      2.736      9.918
REMARK  Name = 
REMARK  8 active torsions:
REMARK  status: ('A' for Active; 'I' for Inactive)
REMARK    1  A    between atoms: C_2  and  C_3
REMARK    2  A    between atoms: N_5  and  C_6
REMARK    3  A    between atoms: C_9  and  S_10
REMARK    4  A    between atoms: S_10  and  N_13
REMARK    5  A    between atoms: C_16  and  N_17
REMARK    6  A    between atoms: C_18  and  O_20
REMARK    7  A    between atoms: O_20  and  C_21
REMARK    8  A    between atoms: C_21  and  C_22
REMARK                            x       y       z     vdW  Elec       q    Type
REMARK                         _______ _______ _______ _____ _____    ______ ____
ROOT
ATOM      1  N   UNL     1       3.197   5.290  17.876  0.00  0.00    +0.000 NA
ATOM      2  C   UNL     1       2.860   3.996  17.277  0.00  0.00    +0.000 C 
ATOM      3  C   UNL     1       4.128   3.173  17.419  0.00  0.00    +0.000 C 
ATOM      4  C   UNL     1       5.275   4.183  17.333  0.00  0.00    +0.000 C 
ATOM      5  C   UNL     1       4.622   5.562  17.592  0.00  0.00    +0.000 C 
ENDROOT
BRANCH   4   6
ATOM      6  N   UNL     1       5.983   4.101  16.066  0.00  0.00    +0.000 N 
ATOM      7  C   UNL     1       7.137   4.795  15.847  0.00  0.00    +0.000 C 
ATOM      8  O   UNL     1       7.624   5.587  16.639  0.00  0.00    +0.000 OA
ATOM      9  H   UNL     1       5.774   3.381  15.388  0.00  0.00    +0.000 HD
BRANCH   7  10
ATOM     10  O   UNL     1       7.607   4.514  14.612  0.00  0.00    +0.000 OA
BRANCH  10  11
ATOM     11  C   UNL     1       6.774   4.958  13.534  0.00  0.00    +0.000 C 
BRANCH  11  12
ATOM     12  C   UNL     1       6.427   3.830  12.599  0.00  0.00    +0.000 A 
ATOM     13  C   UNL     1       7.436   3.098  11.959  0.00  0.00    +0.000 A 
ATOM     14  C   UNL     1       7.114   2.028  11.121  0.00  0.00    +0.000 A 
ATOM     15  C   UNL     1       5.779   1.686  10.909  0.00  0.00    +0.000 A 
ATOM     16  C   UNL     1       4.766   2.415  11.532  0.00  0.00    +0.000 A 
ATOM     17  C   UNL     1       5.088   3.485  12.369  0.00  0.00    +0.000 A 
ENDBRANCH  11  12
ENDBRANCH  10  11
ENDBRANCH   7  10
ENDBRANCH   4   6
BRANCH   1  18
ATOM     18  S   UNL     1       2.544   5.741  19.360  0.00  0.00    +0.000 S 
ATOM     19  O   UNL     1       3.613   5.721  20.336  0.00  0.00    +0.000 OA
ATOM     20  O   UNL     1       1.332   4.980  19.567  0.00  0.00    +0.000 OA
BRANCH  18  24
ATOM     21  C   UNL     1       1.047  10.045  18.729  0.00  0.00    +0.000 A 
ATOM     22  C   UNL     1       1.746   9.375  17.719  0.00  0.00    +0.000 A 
ATOM     23  C   UNL     1       2.247   8.083  17.924  0.00  0.00    +0.000 A 
ATOM     24  C   UNL     1       2.065   7.453  19.154  0.00  0.00    +0.000 A 
ATOM     25  C   UNL     1       1.369   8.109  20.174  0.00  0.00    +0.000 A 
ATOM     26  C   UNL     1       0.877   9.405  19.965  0.00  0.00    +0.000 A 
BRANCH  21  29
ATOM     27  C   UNL     1       1.048  12.527  18.990  0.00  0.00    +0.000 C 
ATOM     28  O   UNL     1       2.145  12.678  19.511  0.00  0.00    +0.000 OA
ATOM     29  N   UNL     1       0.486  11.335  18.572  0.00  0.00    +0.000 N 
ATOM     30  H   UNL     1      -0.376  11.386  18.045  0.00  0.00    +0.000 HD
BRANCH  27  32
ATOM     31  C   UNL     1       0.684  14.942  18.746  0.00  0.00    +0.000 C 
ATOM     32  C   UNL     1       0.169  13.703  18.724  0.00  0.00    +0.000 C 
ENDBRANCH  27  32
ENDBRANCH  21  29
ENDBRANCH  18  24
ENDBRANCH   1  18
TORSDOF 8
ENDMDL
MODEL 7
REMARK VINA RESULT:      -7.3      3.829     10.114
REMARK  Name = 
REMARK  8 active torsions:
REMARK  status: ('A' for Active; 'I' for Inactive)
REMARK    1  A    between atoms: C_2  and  C_3
REMARK    2  A    between atoms: N_5  and  C_6
REMARK    3  A    between atoms: C_9  and  S_10
REMARK    4  A    between atoms: S_10  and  N_13
REMARK    5  A    between atoms: C_16  and  N_17
REMARK    6  A    between atoms: C_18  and  O_20
REMARK    7  A    between atoms: O_20  and  C_21
REMARK    8  A    between atoms: C_21  and  C_22
REMARK                            x       y       z     vdW  Elec       q    Type
REMARK                         _______ _______ _______ _____ _____    ______ ____
ROOT
ATOM      1  N   UNL     1       1.004   8.904  18.977  0.00  0.00    +0.000 NA
ATOM      2  C   UNL     1       1.075   7.849  19.992  0.00  0.00    +0.000 C 
ATOM      3  C   UNL     1       2.514   7.369  19.935  0.00  0.00    +0.000 C 
ATOM      4  C   UNL     1       2.943   7.553  18.477  0.00  0.00    +0.000 C 
ATOM      5  C   UNL     1       1.907   8.528  17.868  0.00  0.00    +0.000 C 
ENDROOT
BRANCH   4   6
ATOM      6  N   UNL     1       3.038   6.285  17.770  0.00  0.00    +0.000 N 
ATOM      7  C   UNL     1       4.245   5.727  17.466  0.00  0.00    +0.000 C 
ATOM      8  O   UNL     1       5.324   6.260  17.680  0.00  0.00    +0.000 OA
ATOM      9  H   UNL     1       2.239   5.676  17.665  0.00  0.00    +0.000 HD
BRANCH   7  10
ATOM     10  O   UNL     1       4.052   4.542  16.847  0.00  0.00    +0.000 OA
BRANCH  10  11
ATOM     11  C   UNL     1       4.262   3.389  17.671  0.00  0.00    +0.000 C 
BRANCH  11  12
ATOM     12  C   UNL     1       3.164   3.225  18.689  0.00  0.00    +0.000 A 
ATOM     13  C   UNL     1       3.430   3.373  20.057  0.00  0.00    +0.000 A 
ATOM     14  C   UNL     1       2.403   3.258  20.996  0.00  0.00    +0.000 A 
ATOM     15  C   UNL     1       1.102   2.987  20.576  0.00  0.00    +0.000 A 
ATOM     16  C   UNL     1       0.827   2.827  19.219  0.00  0.00    +0.000 A 
ATOM     17  C   UNL     1       1.853   2.941  18.279  0.00  0.00    +0.000 A 
ENDBRANCH  11  12
ENDBRANCH  10  11
ENDBRANCH   7  10
ENDBRANCH   4   6
BRANCH   1  18
ATOM     18  S   UNL     1       0.874  10.520  19.432  0.00  0.00    +0.000 S 
ATOM     19  O   UNL     1       1.668  11.302  18.508  0.00  0.00    +0.000 OA
ATOM     20  O   UNL     1       1.093  10.603  20.859  0.00  0.00    +0.000 OA
BRANCH  18  24
ATOM     21  C   UNL     1      -3.429  11.859  18.507  0.00  0.00    +0.000 A 
ATOM     22  C   UNL     1      -2.778  12.291  19.669  0.00  0.00    +0.000 A 
ATOM     23  C   UNL     1      -1.486  11.846  19.980  0.00  0.00    +0.000 A 
ATOM     24  C   UNL     1      -0.837  10.949  19.134  0.00  0.00    +0.000 A 
ATOM     25  C   UNL     1      -1.473  10.507  17.970  0.00  0.00    +0.000 A 
ATOM     26  C   UNL     1      -2.768  10.950  17.668  0.00  0.00    +0.000 A 
BRANCH  21  29
ATOM     27  C   UNL     1      -5.888  11.569  18.200  0.00  0.00    +0.000 C 
ATOM     28  O   UNL     1      -6.023  10.448  18.672  0.00  0.00    +0.000 OA
ATOM     29  N   UNL     1      -4.717  12.299  18.120  0.00  0.00    +0.000 N 
ATOM     30  H   UNL     1      -4.788  13.262  17.818  0.00  0.00    +0.000 HD
BRANCH  27  32
ATOM     31  C   UNL     1      -7.464  13.450  18.226  0.00  0.00    +0.000 C 
ATOM     32  C   UNL     1      -7.065  12.305  17.653  0.00  0.00    +0.000 C 
ENDBRANCH  27  32
ENDBRANCH  21  29
ENDBRANCH  18  24
ENDBRANCH   1  18
TORSDOF 8
ENDMDL
MODEL 8
REMARK VINA RESULT:      -7.3      4.478     11.687
REMARK  Name = 
REMARK  8 active torsions:
REMARK  status: ('A' for Active; 'I' for Inactive)
REMARK    1  A    between atoms: C_2  and  C_3
REMARK    2  A    between atoms: N_5  and  C_6
REMARK    3  A    between atoms: C_9  and  S_10
REMARK    4  A    between atoms: S_10  and  N_13
REMARK    5  A    between atoms: C_16  and  N_17
REMARK    6  A    between atoms: C_18  and  O_20
REMARK    7  A    between atoms: O_20  and  C_21
REMARK    8  A    between atoms: C_21  and  C_22
REMARK                            x       y       z     vdW  Elec       q    Type
REMARK                         _______ _______ _______ _____ _____    ______ ____
ROOT
ATOM      1  N   UNL     1      -0.610  10.880  19.049  0.00  0.00    +0.000 NA
ATOM      2  C   UNL     1       0.550  11.303  19.839  0.00  0.00    +0.000 C 
ATOM      3  C   UNL     1       1.744  10.974  18.960  0.00  0.00    +0.000 C 
ATOM      4  C   UNL     1       1.325   9.741  18.156  0.00  0.00    +0.000 C 
ATOM      5  C   UNL     1      -0.218   9.684  18.274  0.00  0.00    +0.000 C 
ENDROOT
BRANCH   4   6
ATOM      6  N   UNL     1       1.990   8.533  18.619  0.00  0.00    +0.000 N 
ATOM      7  C   UNL     1       2.881   7.864  17.832  0.00  0.00    +0.000 C 
ATOM      8  O   UNL     1       3.135   8.159  16.674  0.00  0.00    +0.000 OA
ATOM      9  H   UNL     1       1.984   8.265  19.593  0.00  0.00    +0.000 HD
BRANCH   7  10
ATOM     10  O   UNL     1       3.379   6.807  18.510  0.00  0.00    +0.000 OA
BRANCH  10  11
ATOM     11  C   UNL     1       2.560   6.345  19.592  0.00  0.00    +0.000 C 
BRANCH  11  12
ATOM     12  C   UNL     1       2.024   4.962  19.332  0.00  0.00    +0.000 A 
ATOM     13  C   UNL     1       2.306   4.301  18.128  0.00  0.00    +0.000 A 
ATOM     14  C   UNL     1       1.839   3.005  17.903  0.00  0.00    +0.000 A 
ATOM     15  C   UNL     1       1.079   2.359  18.877  0.00  0.00    +0.000 A 
ATOM     16  C   UNL     1       0.782   3.010  20.074  0.00  0.00    +0.000 A 
ATOM     17  C   UNL     1       1.248   4.307  20.299  0.00  0.00    +0.000 A 
ENDBRANCH  11  12
ENDBRANCH  10  11
ENDBRANCH   7  10
ENDBRANCH   4   6
BRANCH   1  18
ATOM     18  S   UNL     1      -1.634  12.022  18.356  0.00  0.00    +0.000 S 
ATOM     19  O   UNL     1      -2.241  11.416  17.189  0.00  0.00    +0.000 OA
ATOM     20  O   UNL     1      -0.912  13.270  18.256  0.00  0.00    +0.000 OA
BRANCH  18  24
ATOM     21  C   UNL     1      -5.015  12.919  21.343  0.00  0.00    +0.000 A 
ATOM     22  C   UNL     1      -3.674  13.074  21.711  0.00  0.00    +0.000 A 
ATOM     23  C   UNL     1      -2.640  12.755  20.822  0.00  0.00    +0.000 A 
ATOM     24  C   UNL     1      -2.941  12.260  19.553  0.00  0.00    +0.000 A 
ATOM     25  C   UNL     1      -4.275  12.098  19.170  0.00  0.00    +0.000 A 
ATOM     26  C   UNL     1      -5.305  12.412  20.067  0.00  0.00    +0.000 A 
BRANCH  21  29
ATOM     27  C   UNL     1      -6.331  12.779  23.458  0.00  0.00    +0.000 C 
ATOM     28  O   UNL     1      -5.606  12.032  24.102  0.00  0.00    +0.000 OA
ATOM     29  N   UNL     1      -6.104  13.257  22.182  0.00  0.00    +0.000 N 
ATOM     30  H   UNL     1      -6.734  13.966  21.831  0.00  0.00    +0.000 HD
BRANCH  27  32
ATOM     31  C   UNL     1      -7.916  14.589  23.940  0.00  0.00    +0.000 C 
ATOM     32  C   UNL     1      -7.603  13.289  24.048  0.00  0.00    +0.000 C 
ENDBRANCH  27  32
ENDBRANCH  21  29
ENDBRANCH  18  24
ENDBRANCH   1  18
TORSDOF 8
ENDMDL
MODEL 9
REMARK VINA RESULT:      -7.3      3.752     10.120
REMARK  Name = 
REMARK  8 active torsions:
REMARK  status: ('A' for Active; 'I' for Inactive)
REMARK    1  A    between atoms: C_2  and  C_3
REMARK    2  A    between atoms: N_5  and  C_6
REMARK    3  A    between atoms: C_9  and  S_10
REMARK    4  A    between atoms: S_10  and  N_13
REMARK    5  A    between atoms: C_16  and  N_17
REMARK    6  A    between atoms: C_18  and  O_20
REMARK    7  A    between atoms: O_20  and  C_21
REMARK    8  A    between atoms: C_21  and  C_22
REMARK                            x       y       z     vdW  Elec       q    Type
REMARK                         _______ _______ _______ _____ _____    ______ ____
ROOT
ATOM      1  N   UNL     1       1.082   8.867  18.866  0.00  0.00    +0.000 NA
ATOM      2  C   UNL     1       1.190   7.846  19.911  0.00  0.00    +0.000 C 
ATOM      3  C   UNL     1       2.615   7.336  19.793  0.00  0.00    +0.000 C 
ATOM      4  C   UNL     1       2.967   7.462  18.309  0.00  0.00    +0.000 C 
ATOM      5  C   UNL     1       1.915   8.436  17.723  0.00  0.00    +0.000 C 
ENDROOT
BRANCH   4   6
ATOM      6  N   UNL     1       3.000   6.170  17.642  0.00  0.00    +0.000 N 
ATOM      7  C   UNL     1       4.129   5.404  17.627  0.00  0.00    +0.000 C 
ATOM      8  O   UNL     1       5.205   5.755  18.086  0.00  0.00    +0.000 OA
ATOM      9  H   UNL     1       2.153   5.700  17.354  0.00  0.00    +0.000 HD
BRANCH   7  10
ATOM     10  O   UNL     1       3.881   4.245  16.979  0.00  0.00    +0.000 OA
BRANCH  10  11
ATOM     11  C   UNL     1       4.057   3.062  17.768  0.00  0.00    +0.000 C 
BRANCH  11  12
ATOM     12  C   UNL     1       3.047   2.982  18.883  0.00  0.00    +0.000 A 
ATOM     13  C   UNL     1       3.460   2.991  20.222  0.00  0.00    +0.000 A 
ATOM     14  C   UNL     1       2.520   2.954  21.254  0.00  0.00    +0.000 A 
ATOM     15  C   UNL     1       1.159   2.901  20.956  0.00  0.00    +0.000 A 
ATOM     16  C   UNL     1       0.737   2.881  19.628  0.00  0.00    +0.000 A 
ATOM     17  C   UNL     1       1.676   2.917  18.595  0.00  0.00    +0.000 A 
ENDBRANCH  11  12
ENDBRANCH  10  11
ENDBRANCH   7  10
ENDBRANCH   4   6
BRANCH   1  18
ATOM     18  S   UNL     1       1.005  10.499  19.270  0.00  0.00    +0.000 S 
ATOM     19  O   UNL     1       1.942  11.207  18.423  0.00  0.00    +0.000 OA
ATOM     20  O   UNL     1       1.075  10.608  20.710  0.00  0.00    +0.000 OA
BRANCH  18  24
ATOM     21  C   UNL     1      -3.318  11.674  18.227  0.00  0.00    +0.000 A 
ATOM     22  C   UNL     1      -2.705  10.578  17.609  0.00  0.00    +0.000 A 
ATOM     23  C   UNL     1      -1.372  10.246  17.887  0.00  0.00    +0.000 A 
ATOM     24  C   UNL     1      -0.633  11.022  18.779  0.00  0.00    +0.000 A 
ATOM     25  C   UNL     1      -1.231  12.121  19.403  0.00  0.00    +0.000 A 
ATOM     26  C   UNL     1      -2.562  12.452  19.116  0.00  0.00    +0.000 A 
BRANCH  21  29
ATOM     27  C   UNL     1      -5.693  11.954  18.942  0.00  0.00    +0.000 C 
ATOM     28  O   UNL     1      -5.597  11.607  20.112  0.00  0.00    +0.000 OA
ATOM     29  N   UNL     1      -4.670  12.039  18.016  0.00  0.00    +0.000 N 
ATOM     30  H   UNL     1      -4.884  12.462  17.123  0.00  0.00    +0.000 HD
BRANCH  27  32
ATOM     31  C   UNL     1      -7.075  12.957  17.180  0.00  0.00    +0.000 C 
ATOM     32  C   UNL     1      -7.013  12.363  18.381  0.00  0.00    +0.000 C 
ENDBRANCH  27  32
ENDBRANCH  21  29
ENDBRANCH  18  24
ENDBRANCH   1  18
TORSDOF 8
ENDMDL
