MODEL 1
REMARK VINA RESULT:      -7.9      0.000      0.000
REMARK  Name = 
REMARK  9 active torsions:
REMARK  status: ('A' for Active; 'I' for Inactive)
REMARK    1  A    between atoms: C_1  and  C_2
REMARK    2  A    between atoms: C_2  and  C_3
REMARK    3  A    between atoms: C_2  and  C_4
REMARK    4  A    between atoms: C_4  and  C_5
REMARK    5  A    between atoms: C_5  and  N_6
REMARK    6  A    between atoms: C_7  and  C_9
REMARK    7  A    between atoms: C_15  and  S_16
REMARK    8  A    between atoms: S_16  and  N_19
REMARK    9  A    between atoms: C_31  and  O_32
REMARK                            x       y       z     vdW  Elec       q    Type
REMARK                         _______ _______ _______ _____ _____    ______ ____
ROOT
ATOM      1  C   UNL     1       2.739   6.905  18.651  0.00  0.00    +0.000 A 
ATOM      2  C   UNL     1       2.474   6.317  19.878  0.00  0.00    +0.000 A 
ATOM      3  N   UNL     1       1.718   6.885  20.848  0.00  0.00    +0.000 NA
ATOM      4  C   UNL     1       1.179   8.086  20.610  0.00  0.00    +0.000 A 
ATOM      5  C   UNL     1       0.369   8.649  21.590  0.00  0.00    +0.000 A 
ATOM      6  C   UNL     1      -0.258   9.888  21.413  0.00  0.00    +0.000 A 
ATOM      7  C   UNL     1      -0.039  10.598  20.238  0.00  0.00    +0.000 A 
ATOM      8  C   UNL     1       0.764  10.051  19.232  0.00  0.00    +0.000 A 
ATOM      9  C   UNL     1       1.386   8.792  19.398  0.00  0.00    +0.000 A 
ATOM     10  C   UNL     1       2.202   8.172  18.419  0.00  0.00    +0.000 A 
ENDROOT
BRANCH   1  12
ATOM     11  N   UNL     1       4.586   6.778  17.048  0.00  0.00    +0.000 N 
ATOM     12  C   UNL     1       3.566   6.120  17.692  0.00  0.00    +0.000 C 
ATOM     13  O   UNL     1       3.316   4.944  17.505  0.00  0.00    +0.000 OA
ATOM     14  H   UNL     1       4.679   7.781  17.180  0.00  0.00    +0.000 HD
BRANCH  11  15
ATOM     15  C   UNL     1       5.438   6.098  16.099  0.00  0.00    +0.000 C 
BRANCH  15  16
ATOM     16  C   UNL     1       6.876   5.970  16.606  0.00  0.00    +0.000 C 
BRANCH  16  18
ATOM     17  C   UNL     1       7.910   5.920  18.920  0.00  0.00    +0.000 C 
ATOM     18  C   UNL     1       7.136   6.762  17.904  0.00  0.00    +0.000 C 
ATOM     19  C   UNL     1       7.902   8.057  17.626  0.00  0.00    +0.000 C 
ENDBRANCH  16  18
ENDBRANCH  15  16
ENDBRANCH  11  15
ENDBRANCH   1  12
BRANCH   7  20
ATOM     20  S   UNL     1      -0.905  12.135  19.940  0.00  0.00    +0.000 S 
ATOM     21  O   UNL     1       0.099  13.104  19.548  0.00  0.00    +0.000 OA
ATOM     22  O   UNL     1      -2.027  11.830  19.078  0.00  0.00    +0.000 OA
BRANCH  20  23
ATOM     23  N   UNL     1      -1.514  12.590  21.478  0.00  0.00    +0.000 NA
ATOM     24  C   UNL     1      -0.726  13.634  22.182  0.00  0.00    +0.000 C 
ATOM     25  C   UNL     1      -1.268  13.954  23.566  0.00  0.00    +0.000 C 
ATOM     26  C   UNL     1      -2.763  14.224  23.535  0.00  0.00    +0.000 C 
ATOM     27  C   UNL     1      -3.483  13.015  22.963  0.00  0.00    +0.000 C 
ATOM     28  C   UNL     1      -2.992  12.669  21.571  0.00  0.00    +0.000 C 
ATOM     29  O   UNL     1      -3.031  15.396  22.751  0.00  0.00    +0.000 OA
ATOM     30  C   UNL     1      -3.945  16.166  23.532  0.00  0.00    +0.000 C 
ATOM     31  C   UNL     1      -3.609  15.799  24.951  0.00  0.00    +0.000 C 
ATOM     32  O   UNL     1      -3.241  14.424  24.876  0.00  0.00    +0.000 OA
ENDBRANCH  20  23
ENDBRANCH   7  20
BRANCH  10  33
ATOM     33  O   UNL     1       2.484   8.784  17.218  0.00  0.00    +0.000 OA
ATOM     34  H   UNL     1       2.032   9.637  17.136  0.00  0.00    +0.000 HD
ENDBRANCH  10  33
TORSDOF 7
ENDMDL
MODEL 2
REMARK VINA RESULT:      -7.9      2.621      3.932
REMARK  Name = 
REMARK  9 active torsions:
REMARK  status: ('A' for Active; 'I' for Inactive)
REMARK    1  A    between atoms: C_1  and  C_2
REMARK    2  A    between atoms: C_2  and  C_3
REMARK    3  A    between atoms: C_2  and  C_4
REMARK    4  A    between atoms: C_4  and  C_5
REMARK    5  A    between atoms: C_5  and  N_6
REMARK    6  A    between atoms: C_7  and  C_9
REMARK    7  A    between atoms: C_15  and  S_16
REMARK    8  A    between atoms: S_16  and  N_19
REMARK    9  A    between atoms: C_31  and  O_32
REMARK                            x       y       z     vdW  Elec       q    Type
REMARK                         _______ _______ _______ _____ _____    ______ ____
ROOT
ATOM      1  C   UNL     1       2.675   7.070  18.666  0.00  0.00    +0.000 A 
ATOM      2  C   UNL     1       2.442   6.503  19.908  0.00  0.00    +0.000 A 
ATOM      3  N   UNL     1       1.696   7.077  20.882  0.00  0.00    +0.000 NA
ATOM      4  C   UNL     1       1.132   8.265  20.631  0.00  0.00    +0.000 A 
ATOM      5  C   UNL     1       0.332   8.834  21.615  0.00  0.00    +0.000 A 
ATOM      6  C   UNL     1      -0.318  10.060  21.426  0.00  0.00    +0.000 A 
ATOM      7  C   UNL     1      -0.133  10.749  20.234  0.00  0.00    +0.000 A 
ATOM      8  C   UNL     1       0.659  10.196  19.223  0.00  0.00    +0.000 A 
ATOM      9  C   UNL     1       1.305   8.950  19.402  0.00  0.00    +0.000 A 
ATOM     10  C   UNL     1       2.112   8.323  18.419  0.00  0.00    +0.000 A 
ENDROOT
BRANCH   1  12
ATOM     11  N   UNL     1       4.519   6.931  17.060  0.00  0.00    +0.000 N 
ATOM     12  C   UNL     1       3.496   6.280  17.706  0.00  0.00    +0.000 C 
ATOM     13  O   UNL     1       3.238   5.105  17.521  0.00  0.00    +0.000 OA
ATOM     14  H   UNL     1       4.617   7.934  17.192  0.00  0.00    +0.000 HD
BRANCH  11  15
ATOM     15  C   UNL     1       5.366   6.245  16.111  0.00  0.00    +0.000 C 
BRANCH  15  16
ATOM     16  C   UNL     1       6.758   5.964  16.680  0.00  0.00    +0.000 C 
BRANCH  16  18
ATOM     17  C   UNL     1       7.844   5.958  18.970  0.00  0.00    +0.000 C 
ATOM     18  C   UNL     1       7.077   6.792  17.943  0.00  0.00    +0.000 C 
ATOM     19  C   UNL     1       7.881   8.047  17.601  0.00  0.00    +0.000 C 
ENDBRANCH  16  18
ENDBRANCH  15  16
ENDBRANCH  11  15
ENDBRANCH   1  12
BRANCH   7  20
ATOM     20  S   UNL     1      -1.029  12.266  19.923  0.00  0.00    +0.000 S 
ATOM     21  O   UNL     1      -1.498  12.194  18.553  0.00  0.00    +0.000 OA
ATOM     22  O   UNL     1      -1.953  12.447  21.022  0.00  0.00    +0.000 OA
BRANCH  20  23
ATOM     23  N   UNL     1       0.165  13.495  20.014  0.00  0.00    +0.000 NA
ATOM     24  C   UNL     1       1.362  13.150  20.824  0.00  0.00    +0.000 C 
ATOM     25  C   UNL     1       2.357  14.294  20.928  0.00  0.00    +0.000 C 
ATOM     26  C   UNL     1       2.682  14.882  19.566  0.00  0.00    +0.000 C 
ATOM     27  C   UNL     1       1.402  15.367  18.905  0.00  0.00    +0.000 C 
ATOM     28  C   UNL     1       0.383  14.254  18.759  0.00  0.00    +0.000 C 
ATOM     29  O   UNL     1       3.334  13.896  18.752  0.00  0.00    +0.000 OA
ATOM     30  C   UNL     1       4.451  14.570  18.171  0.00  0.00    +0.000 C 
ATOM     31  C   UNL     1       4.804  15.624  19.183  0.00  0.00    +0.000 C 
ATOM     32  O   UNL     1       3.548  16.018  19.728  0.00  0.00    +0.000 OA
ENDBRANCH  20  23
ENDBRANCH   7  20
BRANCH  10  33
ATOM     33  O   UNL     1       2.362   8.916  17.201  0.00  0.00    +0.000 OA
ATOM     34  H   UNL     1       1.565   9.328  16.833  0.00  0.00    +0.000 HD
ENDBRANCH  10  33
TORSDOF 7
ENDMDL
MODEL 3
REMARK VINA RESULT:      -7.8      2.767      3.784
REMARK  Name = 
REMARK  9 active torsions:
REMARK  status: ('A' for Active; 'I' for Inactive)
REMARK    1  A    between atoms: C_1  and  C_2
REMARK    2  A    between atoms: C_2  and  C_3
REMARK    3  A    between atoms: C_2  and  C_4
REMARK    4  A    between atoms: C_4  and  C_5
REMARK    5  A    between atoms: C_5  and  N_6
REMARK    6  A    between atoms: C_7  and  C_9
REMARK    7  A    between atoms: C_15  and  S_16
REMARK    8  A    between atoms: S_16  and  N_19
REMARK    9  A    between atoms: C_31  and  O_32
REMARK                            x       y       z     vdW  Elec       q    Type
REMARK                         _______ _______ _______ _____ _____    ______ ____
ROOT
ATOM      1  C   UNL     1       2.515   7.326  18.810  0.00  0.00    +0.000 A 
ATOM      2  C   UNL     1       2.652   8.132  17.692  0.00  0.00    +0.000 A 
ATOM      3  N   UNL     1       2.160   9.391  17.595  0.00  0.00    +0.000 NA
ATOM      4  C   UNL     1       1.510   9.901  18.647  0.00  0.00    +0.000 A 
ATOM      5  C   UNL     1       1.043  11.207  18.563  0.00  0.00    +0.000 A 
ATOM      6  C   UNL     1       0.378  11.829  19.626  0.00  0.00    +0.000 A 
ATOM      7  C   UNL     1       0.144  11.111  20.793  0.00  0.00    +0.000 A 
ATOM      8  C   UNL     1       0.611   9.797  20.909  0.00  0.00    +0.000 A 
ATOM      9  C   UNL     1       1.298   9.170  19.844  0.00  0.00    +0.000 A 
ATOM     10  C   UNL     1       1.810   7.849  19.895  0.00  0.00    +0.000 A 
ENDROOT
BRANCH   1  12
ATOM     11  N   UNL     1       2.665   5.091  17.820  0.00  0.00    +0.000 N 
ATOM     12  C   UNL     1       3.148   5.978  18.752  0.00  0.00    +0.000 C 
ATOM     13  O   UNL     1       4.052   5.705  19.519  0.00  0.00    +0.000 OA
ATOM     14  H   UNL     1       1.848   5.352  17.276  0.00  0.00    +0.000 HD
BRANCH  11  15
ATOM     15  C   UNL     1       3.217   3.761  17.691  0.00  0.00    +0.000 C 
BRANCH  15  16
ATOM     16  C   UNL     1       2.168   2.676  17.938  0.00  0.00    +0.000 C 
BRANCH  16  18
ATOM     17  C   UNL     1       3.304   2.462  20.194  0.00  0.00    +0.000 C 
ATOM     18  C   UNL     1       1.984   2.336  19.432  0.00  0.00    +0.000 C 
ATOM     19  C   UNL     1       0.930   3.233  20.085  0.00  0.00    +0.000 C 
ENDBRANCH  16  18
ENDBRANCH  15  16
ENDBRANCH  11  15
ENDBRANCH   1  12
BRANCH   7  20
ATOM     20  S   UNL     1      -0.612  11.907  22.205  0.00  0.00    +0.000 S 
ATOM     21  O   UNL     1      -0.547  10.957  23.298  0.00  0.00    +0.000 OA
ATOM     22  O   UNL     1      -0.017  13.222  22.319  0.00  0.00    +0.000 OA
BRANCH  20  23
ATOM     23  N   UNL     1      -2.258  12.097  21.760  0.00  0.00    +0.000 NA
ATOM     24  C   UNL     1      -3.139  12.638  22.828  0.00  0.00    +0.000 C 
ATOM     25  C   UNL     1      -4.596  12.724  22.406  0.00  0.00    +0.000 C 
ATOM     26  C   UNL     1      -4.753  13.420  21.065  0.00  0.00    +0.000 C 
ATOM     27  C   UNL     1      -3.953  12.673  20.011  0.00  0.00    +0.000 C 
ATOM     28  C   UNL     1      -2.484  12.579  20.377  0.00  0.00    +0.000 C 
ATOM     29  O   UNL     1      -4.315  14.783  21.168  0.00  0.00    +0.000 OA
ATOM     30  C   UNL     1      -5.335  15.552  20.530  0.00  0.00    +0.000 C 
ATOM     31  C   UNL     1      -6.583  14.740  20.735  0.00  0.00    +0.000 C 
ATOM     32  O   UNL     1      -6.134  13.389  20.668  0.00  0.00    +0.000 OA
ENDBRANCH  20  23
ENDBRANCH   7  20
BRANCH  10  33
ATOM     33  O   UNL     1       1.636   7.047  21.002  0.00  0.00    +0.000 OA
ATOM     34  H   UNL     1       1.148   7.505  21.702  0.00  0.00    +0.000 HD
ENDBRANCH  10  33
TORSDOF 7
ENDMDL
MODEL 4
REMARK VINA RESULT:      -7.7      2.368      3.318
REMARK  Name = 
REMARK  9 active torsions:
REMARK  status: ('A' for Active; 'I' for Inactive)
REMARK    1  A    between atoms: C_1  and  C_2
REMARK    2  A    between atoms: C_2  and  C_3
REMARK    3  A    between atoms: C_2  and  C_4
REMARK    4  A    between atoms: C_4  and  C_5
REMARK    5  A    between atoms: C_5  and  N_6
REMARK    6  A    between atoms: C_7  and  C_9
REMARK    7  A    between atoms: C_15  and  S_16
REMARK    8  A    between atoms: S_16  and  N_19
REMARK    9  A    between atoms: C_31  and  O_32
REMARK                            x       y       z     vdW  Elec       q    Type
REMARK                         _______ _______ _______ _____ _____    ______ ____
ROOT
ATOM      1  C   UNL     1       2.269   7.710  19.009  0.00  0.00    +0.000 A 
ATOM      2  C   UNL     1       2.315   8.421  17.820  0.00  0.00    +0.000 A 
ATOM      3  N   UNL     1       1.797   9.661  17.653  0.00  0.00    +0.000 NA
ATOM      4  C   UNL     1       1.213  10.251  18.703  0.00  0.00    +0.000 A 
ATOM      5  C   UNL     1       0.719  11.541  18.542  0.00  0.00    +0.000 A 
ATOM      6  C   UNL     1       0.118  12.242  19.594  0.00  0.00    +0.000 A 
ATOM      7  C   UNL     1      -0.023  11.622  20.830  0.00  0.00    +0.000 A 
ATOM      8  C   UNL     1       0.472  10.328  21.022  0.00  0.00    +0.000 A 
ATOM      9  C   UNL     1       1.095   9.621  19.968  0.00  0.00    +0.000 A 
ATOM     10  C   UNL     1       1.631   8.314  20.092  0.00  0.00    +0.000 A 
ENDROOT
BRANCH   1  12
ATOM     11  N   UNL     1       3.939   6.152  18.123  0.00  0.00    +0.000 N 
ATOM     12  C   UNL     1       2.918   6.369  19.018  0.00  0.00    +0.000 C 
ATOM     13  O   UNL     1       2.531   5.519  19.798  0.00  0.00    +0.000 OA
ATOM     14  H   UNL     1       4.147   6.873  17.439  0.00  0.00    +0.000 HD
BRANCH  11  15
ATOM     15  C   UNL     1       4.625   4.882  18.060  0.00  0.00    +0.000 C 
BRANCH  15  16
ATOM     16  C   UNL     1       4.633   4.301  16.645  0.00  0.00    +0.000 C 
BRANCH  16  18
ATOM     17  C   UNL     1       7.152   4.565  16.538  0.00  0.00    +0.000 C 
ATOM     18  C   UNL     1       5.831   4.780  15.798  0.00  0.00    +0.000 C 
ATOM     19  C   UNL     1       5.882   4.066  14.446  0.00  0.00    +0.000 C 
ENDBRANCH  16  18
ENDBRANCH  15  16
ENDBRANCH  11  15
ENDBRANCH   1  12
BRANCH   7  20
ATOM     20  S   UNL     1      -0.694  12.526  22.220  0.00  0.00    +0.000 S 
ATOM     21  O   UNL     1      -0.971  11.548  23.253  0.00  0.00    +0.000 OA
ATOM     22  O   UNL     1       0.192  13.644  22.466  0.00  0.00    +0.000 OA
BRANCH  20  23
ATOM     23  N   UNL     1      -2.191  13.140  21.650  0.00  0.00    +0.000 NA
ATOM     24  C   UNL     1      -2.928  12.241  20.725  0.00  0.00    +0.000 C 
ATOM     25  C   UNL     1      -4.213  12.857  20.197  0.00  0.00    +0.000 C 
ATOM     26  C   UNL     1      -5.068  13.422  21.320  0.00  0.00    +0.000 C 
ATOM     27  C   UNL     1      -4.271  14.463  22.087  0.00  0.00    +0.000 C 
ATOM     28  C   UNL     1      -2.986  13.890  22.653  0.00  0.00    +0.000 C 
ATOM     29  O   UNL     1      -5.493  12.362  22.189  0.00  0.00    +0.000 OA
ATOM     30  C   UNL     1      -6.888  12.586  22.397  0.00  0.00    +0.000 C 
ATOM     31  C   UNL     1      -7.336  13.272  21.136  0.00  0.00    +0.000 C 
ATOM     32  O   UNL     1      -6.219  14.076  20.762  0.00  0.00    +0.000 OA
ENDBRANCH  20  23
ENDBRANCH   7  20
BRANCH  10  33
ATOM     33  O   UNL     1       1.547   7.607  21.271  0.00  0.00    +0.000 OA
ATOM     34  H   UNL     1       1.778   8.156  22.035  0.00  0.00    +0.000 HD
ENDBRANCH  10  33
TORSDOF 7
ENDMDL
MODEL 5
REMARK VINA RESULT:      -7.6      2.564      3.611
REMARK  Name = 
REMARK  9 active torsions:
REMARK  status: ('A' for Active; 'I' for Inactive)
REMARK    1  A    between atoms: C_1  and  C_2
REMARK    2  A    between atoms: C_2  and  C_3
REMARK    3  A    between atoms: C_2  and  C_4
REMARK    4  A    between atoms: C_4  and  C_5
REMARK    5  A    between atoms: C_5  and  N_6
REMARK    6  A    between atoms: C_7  and  C_9
REMARK    7  A    between atoms: C_15  and  S_16
REMARK    8  A    between atoms: S_16  and  N_19
REMARK    9  A    between atoms: C_31  and  O_32
REMARK                            x       y       z     vdW  Elec       q    Type
REMARK                         _______ _______ _______ _____ _____    ______ ____
ROOT
ATOM      1  C   UNL     1       2.247   7.624  18.964  0.00  0.00    +0.000 A 
ATOM      2  C   UNL     1       2.362   8.362  17.797  0.00  0.00    +0.000 A 
ATOM      3  N   UNL     1       1.918   9.634  17.652  0.00  0.00    +0.000 NA
ATOM      4  C   UNL     1       1.342  10.228  18.703  0.00  0.00    +0.000 A 
ATOM      5  C   UNL     1       0.925  11.547  18.567  0.00  0.00    +0.000 A 
ATOM      6  C   UNL     1       0.338  12.253  19.623  0.00  0.00    +0.000 A 
ATOM      7  C   UNL     1       0.131  11.611  20.838  0.00  0.00    +0.000 A 
ATOM      8  C   UNL     1       0.549  10.286  21.006  0.00  0.00    +0.000 A 
ATOM      9  C   UNL     1       1.157   9.573  19.948  0.00  0.00    +0.000 A 
ATOM     10  C   UNL     1       1.616   8.235  20.049  0.00  0.00    +0.000 A 
ENDROOT
BRANCH   1  12
ATOM     11  N   UNL     1       3.202   5.731  17.738  0.00  0.00    +0.000 N 
ATOM     12  C   UNL     1       2.820   6.249  18.952  0.00  0.00    +0.000 C 
ATOM     13  O   UNL     1       2.926   5.633  19.996  0.00  0.00    +0.000 OA
ATOM     14  H   UNL     1       2.998   6.263  16.896  0.00  0.00    +0.000 HD
BRANCH  11  15
ATOM     15  C   UNL     1       3.766   4.405  17.630  0.00  0.00    +0.000 C 
BRANCH  15  16
ATOM     16  C   UNL     1       2.736   3.377  17.160  0.00  0.00    +0.000 C 
BRANCH  16  18
ATOM     17  C   UNL     1       3.634   2.210  19.223  0.00  0.00    +0.000 C 
ATOM     18  C   UNL     1       2.539   2.215  18.156  0.00  0.00    +0.000 C 
ATOM     19  C   UNL     1       1.168   2.285  18.833  0.00  0.00    +0.000 C 
ENDBRANCH  16  18
ENDBRANCH  15  16
ENDBRANCH  11  15
ENDBRANCH   1  12
BRANCH   7  20
ATOM     20  S   UNL     1      -0.523  12.514  22.236  0.00  0.00    +0.000 S 
ATOM     21  O   UNL     1      -0.709  11.549  23.301  0.00  0.00    +0.000 OA
ATOM     22  O   UNL     1       0.318  13.679  22.419  0.00  0.00    +0.000 OA
BRANCH  20  23
ATOM     23  N   UNL     1      -2.071  13.044  21.719  0.00  0.00    +0.000 NA
ATOM     24  C   UNL     1      -3.218  12.358  22.368  0.00  0.00    +0.000 C 
ATOM     25  C   UNL     1      -4.564  12.814  21.829  0.00  0.00    +0.000 C 
ATOM     26  C   UNL     1      -4.679  14.329  21.813  0.00  0.00    +0.000 C 
ATOM     27  C   UNL     1      -3.557  14.912  20.970  0.00  0.00    +0.000 C 
ATOM     28  C   UNL     1      -2.190  14.502  21.482  0.00  0.00    +0.000 C 
ATOM     29  O   UNL     1      -4.625  14.836  23.154  0.00  0.00    +0.000 OA
ATOM     30  C   UNL     1      -5.693  15.780  23.240  0.00  0.00    +0.000 C 
ATOM     31  C   UNL     1      -6.709  15.268  22.258  0.00  0.00    +0.000 C 
ATOM     32  O   UNL     1      -5.925  14.709  21.207  0.00  0.00    +0.000 OA
ENDBRANCH  20  23
ENDBRANCH   7  20
BRANCH  10  33
ATOM     33  O   UNL     1       1.463   7.503  21.205  0.00  0.00    +0.000 OA
ATOM     34  H   UNL     1       0.529   7.350  21.412  0.00  0.00    +0.000 HD
ENDBRANCH  10  33
TORSDOF 7
ENDMDL
MODEL 6
REMARK VINA RESULT:      -7.6      2.317      3.109
REMARK  Name = 
REMARK  9 active torsions:
REMARK  status: ('A' for Active; 'I' for Inactive)
REMARK    1  A    between atoms: C_1  and  C_2
REMARK    2  A    between atoms: C_2  and  C_3
REMARK    3  A    between atoms: C_2  and  C_4
REMARK    4  A    between atoms: C_4  and  C_5
REMARK    5  A    between atoms: C_5  and  N_6
REMARK    6  A    between atoms: C_7  and  C_9
REMARK    7  A    between atoms: C_15  and  S_16
REMARK    8  A    between atoms: S_16  and  N_19
REMARK    9  A    between atoms: C_31  and  O_32
REMARK                            x       y       z     vdW  Elec       q    Type
REMARK                         _______ _______ _______ _____ _____    ______ ____
ROOT
ATOM      1  C   UNL     1       2.375   7.402  18.949  0.00  0.00    +0.000 A 
ATOM      2  C   UNL     1       2.475   8.146  17.785  0.00  0.00    +0.000 A 
ATOM      3  N   UNL     1       1.971   9.394  17.631  0.00  0.00    +0.000 NA
ATOM      4  C   UNL     1       1.345   9.957  18.671  0.00  0.00    +0.000 A 
ATOM      5  C   UNL     1       0.865  11.254  18.527  0.00  0.00    +0.000 A 
ATOM      6  C   UNL     1       0.224  11.929  19.572  0.00  0.00    +0.000 A 
ATOM      7  C   UNL     1       0.026  11.275  20.783  0.00  0.00    +0.000 A 
ATOM      8  C   UNL     1       0.507   9.973  20.959  0.00  0.00    +0.000 A 
ATOM      9  C   UNL     1       1.171   9.293  19.912  0.00  0.00    +0.000 A 
ATOM     10  C   UNL     1       1.694   7.980  20.022  0.00  0.00    +0.000 A 
ENDROOT
BRANCH   1  12
ATOM     11  N   UNL     1       4.251   5.944  18.354  0.00  0.00    +0.000 N 
ATOM     12  C   UNL     1       3.017   6.057  18.948  0.00  0.00    +0.000 C 
ATOM     13  O   UNL     1       2.440   5.115  19.458  0.00  0.00    +0.000 OA
ATOM     14  H   UNL     1       4.632   6.750  17.866  0.00  0.00    +0.000 HD
BRANCH  11  15
ATOM     15  C   UNL     1       4.948   4.679  18.304  0.00  0.00    +0.000 C 
BRANCH  15  16
ATOM     16  C   UNL     1       4.764   3.973  16.960  0.00  0.00    +0.000 C 
BRANCH  16  18
ATOM     17  C   UNL     1       5.694   5.128  14.905  0.00  0.00    +0.000 C 
ATOM     18  C   UNL     1       5.980   4.124  16.022  0.00  0.00    +0.000 C 
ATOM     19  C   UNL     1       7.229   4.558  16.791  0.00  0.00    +0.000 C 
ENDBRANCH  16  18
ENDBRANCH  15  16
ENDBRANCH  11  15
ENDBRANCH   1  12
BRANCH   7  20
ATOM     20  S   UNL     1      -0.698  12.143  22.168  0.00  0.00    +0.000 S 
ATOM     21  O   UNL     1      -0.557  11.274  23.319  0.00  0.00    +0.000 OA
ATOM     22  O   UNL     1      -0.145  13.481  22.168  0.00  0.00    +0.000 OA
BRANCH  20  23
ATOM     23  N   UNL     1      -2.367  12.251  21.782  0.00  0.00    +0.000 NA
ATOM     24  C   UNL     1      -3.232  12.769  22.873  0.00  0.00    +0.000 C 
ATOM     25  C   UNL     1      -4.706  12.782  22.505  0.00  0.00    +0.000 C 
ATOM     26  C   UNL     1      -4.944  13.447  21.160  0.00  0.00    +0.000 C 
ATOM     27  C   UNL     1      -4.149  12.720  20.089  0.00  0.00    +0.000 C 
ATOM     28  C   UNL     1      -2.665  12.699  20.401  0.00  0.00    +0.000 C 
ATOM     29  O   UNL     1      -4.565  14.830  21.226  0.00  0.00    +0.000 OA
ATOM     30  C   UNL     1      -5.642  15.542  20.615  0.00  0.00    +0.000 C 
ATOM     31  C   UNL     1      -6.844  14.677  20.878  0.00  0.00    +0.000 C 
ATOM     32  O   UNL     1      -6.335  13.347  20.815  0.00  0.00    +0.000 OA
ENDBRANCH  20  23
ENDBRANCH   7  20
BRANCH  10  33
ATOM     33  O   UNL     1       1.557   7.239  21.175  0.00  0.00    +0.000 OA
ATOM     34  H   UNL     1       2.417   6.979  21.538  0.00  0.00    +0.000 HD
ENDBRANCH  10  33
TORSDOF 7
ENDMDL
MODEL 7
REMARK VINA RESULT:      -7.6      2.748      4.099
REMARK  Name = 
REMARK  9 active torsions:
REMARK  status: ('A' for Active; 'I' for Inactive)
REMARK    1  A    between atoms: C_1  and  C_2
REMARK    2  A    between atoms: C_2  and  C_3
REMARK    3  A    between atoms: C_2  and  C_4
REMARK    4  A    between atoms: C_4  and  C_5
REMARK    5  A    between atoms: C_5  and  N_6
REMARK    6  A    between atoms: C_7  and  C_9
REMARK    7  A    between atoms: C_15  and  S_16
REMARK    8  A    between atoms: S_16  and  N_19
REMARK    9  A    between atoms: C_31  and  O_32
REMARK                            x       y       z     vdW  Elec       q    Type
REMARK                         _______ _______ _______ _____ _____    ______ ____
ROOT
ATOM      1  C   UNL     1       2.298   7.767  18.895  0.00  0.00    +0.000 A 
ATOM      2  C   UNL     1       2.328   8.586  17.777  0.00  0.00    +0.000 A 
ATOM      3  N   UNL     1       1.741   9.805  17.709  0.00  0.00    +0.000 NA
ATOM      4  C   UNL     1       1.099  10.261  18.791  0.00  0.00    +0.000 A 
ATOM      5  C   UNL     1       0.534  11.530  18.734  0.00  0.00    +0.000 A 
ATOM      6  C   UNL     1      -0.131  12.096  19.829  0.00  0.00    +0.000 A 
ATOM      7  C   UNL     1      -0.263  11.358  20.999  0.00  0.00    +0.000 A 
ATOM      8  C   UNL     1       0.305  10.082  21.087  0.00  0.00    +0.000 A 
ATOM      9  C   UNL     1       0.991   9.512  19.990  0.00  0.00    +0.000 A 
ATOM     10  C   UNL     1       1.601   8.232  20.011  0.00  0.00    +0.000 A 
ENDROOT
BRANCH   1  12
ATOM     11  N   UNL     1       2.620   5.584  17.831  0.00  0.00    +0.000 N 
ATOM     12  C   UNL     1       3.026   6.470  18.800  0.00  0.00    +0.000 C 
ATOM     13  O   UNL     1       3.936   6.235  19.572  0.00  0.00    +0.000 OA
ATOM     14  H   UNL     1       1.793   5.806  17.284  0.00  0.00    +0.000 HD
BRANCH  11  15
ATOM     15  C   UNL     1       3.267   4.302  17.667  0.00  0.00    +0.000 C 
BRANCH  15  16
ATOM     16  C   UNL     1       2.820   3.292  18.726  0.00  0.00    +0.000 C 
BRANCH  16  18
ATOM     17  C   UNL     1       0.564   2.139  18.796  0.00  0.00    +0.000 C 
ATOM     18  C   UNL     1       1.330   3.426  19.104  0.00  0.00    +0.000 C 
ATOM     19  C   UNL     1       1.157   3.783  20.581  0.00  0.00    +0.000 C 
ENDBRANCH  16  18
ENDBRANCH  15  16
ENDBRANCH  11  15
ENDBRANCH   1  12
BRANCH   7  20
ATOM     20  S   UNL     1      -1.016  12.090  22.446  0.00  0.00    +0.000 S 
ATOM     21  O   UNL     1      -1.422  10.992  23.300  0.00  0.00    +0.000 OA
ATOM     22  O   UNL     1      -0.112  13.115  22.923  0.00  0.00    +0.000 OA
BRANCH  20  23
ATOM     23  N   UNL     1      -2.433  12.855  21.852  0.00  0.00    +0.000 NA
ATOM     24  C   UNL     1      -3.054  12.198  20.673  0.00  0.00    +0.000 C 
ATOM     25  C   UNL     1      -4.265  12.950  20.145  0.00  0.00    +0.000 C 
ATOM     26  C   UNL     1      -5.247  13.284  21.255  0.00  0.00    +0.000 C 
ATOM     27  C   UNL     1      -4.546  14.113  22.318  0.00  0.00    +0.000 C 
ATOM     28  C   UNL     1      -3.340  13.395  22.893  0.00  0.00    +0.000 C 
ATOM     29  O   UNL     1      -5.777  12.075  21.818  0.00  0.00    +0.000 OA
ATOM     30  C   UNL     1      -7.186  12.290  21.904  0.00  0.00    +0.000 C 
ATOM     31  C   UNL     1      -7.477  13.244  20.779  0.00  0.00    +0.000 C 
ATOM     32  O   UNL     1      -6.321  14.076  20.722  0.00  0.00    +0.000 OA
ENDBRANCH  20  23
ENDBRANCH   7  20
BRANCH  10  33
ATOM     33  O   UNL     1       1.533   7.415  21.118  0.00  0.00    +0.000 OA
ATOM     34  H   UNL     1       0.703   6.917  21.145  0.00  0.00    +0.000 HD
ENDBRANCH  10  33
TORSDOF 7
ENDMDL
MODEL 8
REMARK VINA RESULT:      -7.6      2.150      2.882
REMARK  Name = 
REMARK  9 active torsions:
REMARK  status: ('A' for Active; 'I' for Inactive)
REMARK    1  A    between atoms: C_1  and  C_2
REMARK    2  A    between atoms: C_2  and  C_3
REMARK    3  A    between atoms: C_2  and  C_4
REMARK    4  A    between atoms: C_4  and  C_5
REMARK    5  A    between atoms: C_5  and  N_6
REMARK    6  A    between atoms: C_7  and  C_9
REMARK    7  A    between atoms: C_15  and  S_16
REMARK    8  A    between atoms: S_16  and  N_19
REMARK    9  A    between atoms: C_31  and  O_32
REMARK                            x       y       z     vdW  Elec       q    Type
REMARK                         _______ _______ _______ _____ _____    ______ ____
ROOT
ATOM      1  C   UNL     1       2.205   7.676  19.214  0.00  0.00    +0.000 A 
ATOM      2  C   UNL     1       2.080   8.341  18.005  0.00  0.00    +0.000 A 
ATOM      3  N   UNL     1       1.394   9.497  17.838  0.00  0.00    +0.000 NA
ATOM      4  C   UNL     1       0.806  10.046  18.908  0.00  0.00    +0.000 A 
ATOM      5  C   UNL     1       0.138  11.254  18.745  0.00  0.00    +0.000 A 
ATOM      6  C   UNL     1      -0.481  11.910  19.816  0.00  0.00    +0.000 A 
ATOM      7  C   UNL     1      -0.459  11.325  21.075  0.00  0.00    +0.000 A 
ATOM      8  C   UNL     1       0.214  10.114  21.270  0.00  0.00    +0.000 A 
ATOM      9  C   UNL     1       0.855   9.454  20.196  0.00  0.00    +0.000 A 
ATOM     10  C   UNL     1       1.565   8.233  20.321  0.00  0.00    +0.000 A 
ENDROOT
BRANCH   1  12
ATOM     11  N   UNL     1       4.048   6.343  18.304  0.00  0.00    +0.000 N 
ATOM     12  C   UNL     1       3.025   6.431  19.217  0.00  0.00    +0.000 C 
ATOM     13  O   UNL     1       2.767   5.544  20.009  0.00  0.00    +0.000 OA
ATOM     14  H   UNL     1       4.147   7.080  17.611  0.00  0.00    +0.000 HD
BRANCH  11  15
ATOM     15  C   UNL     1       4.894   5.173  18.233  0.00  0.00    +0.000 C 
BRANCH  15  16
ATOM     16  C   UNL     1       6.147   5.316  19.099  0.00  0.00    +0.000 C 
BRANCH  16  18
ATOM     17  C   UNL     1       7.388   4.635  16.996  0.00  0.00    +0.000 C 
ATOM     18  C   UNL     1       7.441   5.475  18.274  0.00  0.00    +0.000 C 
ATOM     19  C   UNL     1       7.698   6.939  17.912  0.00  0.00    +0.000 C 
ENDBRANCH  16  18
ENDBRANCH  15  16
ENDBRANCH  11  15
ENDBRANCH   1  12
BRANCH   7  20
ATOM     20  S   UNL     1      -1.151  12.186  22.482  0.00  0.00    +0.000 S 
ATOM     21  O   UNL     1      -1.695  11.171  23.360  0.00  0.00    +0.000 OA
ATOM     22  O   UNL     1      -0.144  13.117  22.947  0.00  0.00    +0.000 OA
BRANCH  20  23
ATOM     23  N   UNL     1      -2.458  13.088  21.832  0.00  0.00    +0.000 NA
ATOM     24  C   UNL     1      -3.806  12.527  22.110  0.00  0.00    +0.000 C 
ATOM     25  C   UNL     1      -4.925  13.323  21.458  0.00  0.00    +0.000 C 
ATOM     26  C   UNL     1      -4.801  14.809  21.750  0.00  0.00    +0.000 C 
ATOM     27  C   UNL     1      -3.454  15.311  21.260  0.00  0.00    +0.000 C 
ATOM     28  C   UNL     1      -2.302  14.560  21.899  0.00  0.00    +0.000 C 
ATOM     29  O   UNL     1      -4.950  15.043  23.158  0.00  0.00    +0.000 OA
ATOM     30  C   UNL     1      -5.856  16.143  23.260  0.00  0.00    +0.000 C 
ATOM     31  C   UNL     1      -6.712  16.022  22.030  0.00  0.00    +0.000 C 
ATOM     32  O   UNL     1      -5.822  15.525  21.035  0.00  0.00    +0.000 OA
ENDBRANCH  20  23
ENDBRANCH   7  20
BRANCH  10  33
ATOM     33  O   UNL     1       1.652   7.566  21.523  0.00  0.00    +0.000 OA
ATOM     34  H   UNL     1       1.273   8.084  22.249  0.00  0.00    +0.000 HD
ENDBRANCH  10  33
TORSDOF 7
ENDMDL
MODEL 9
REMARK VINA RESULT:      -7.5      2.183      3.040
REMARK  Name = 
REMARK  9 active torsions:
REMARK  status: ('A' for Active; 'I' for Inactive)
REMARK    1  A    between atoms: C_1  and  C_2
REMARK    2  A    between atoms: C_2  and  C_3
REMARK    3  A    between atoms: C_2  and  C_4
REMARK    4  A    between atoms: C_4  and  C_5
REMARK    5  A    between atoms: C_5  and  N_6
REMARK    6  A    between atoms: C_7  and  C_9
REMARK    7  A    between atoms: C_15  and  S_16
REMARK    8  A    between atoms: S_16  and  N_19
REMARK    9  A    between atoms: C_31  and  O_32
REMARK                            x       y       z     vdW  Elec       q    Type
REMARK                         _______ _______ _______ _____ _____    ______ ____
ROOT
ATOM      1  C   UNL     1       2.218   7.720  19.017  0.00  0.00    +0.000 A 
ATOM      2  C   UNL     1       2.128   8.397  17.811  0.00  0.00    +0.000 A 
ATOM      3  N   UNL     1       1.529   9.601  17.655  0.00  0.00    +0.000 NA
ATOM      4  C   UNL     1       0.998  10.190  18.733  0.00  0.00    +0.000 A 
ATOM      5  C   UNL     1       0.421  11.445  18.581  0.00  0.00    +0.000 A 
ATOM      6  C   UNL     1      -0.132  12.144  19.660  0.00  0.00    +0.000 A 
ATOM      7  C   UNL     1      -0.138  11.556  20.919  0.00  0.00    +0.000 A 
ATOM      8  C   UNL     1       0.444  10.297  21.103  0.00  0.00    +0.000 A 
ATOM      9  C   UNL     1       1.019   9.593  20.020  0.00  0.00    +0.000 A 
ATOM     10  C   UNL     1       1.636   8.322  20.134  0.00  0.00    +0.000 A 
ENDROOT
BRANCH   1  12
ATOM     11  N   UNL     1       3.910   6.237  18.050  0.00  0.00    +0.000 N 
ATOM     12  C   UNL     1       2.941   6.417  19.008  0.00  0.00    +0.000 C 
ATOM     13  O   UNL     1       2.655   5.566  19.828  0.00  0.00    +0.000 OA
ATOM     14  H   UNL     1       4.032   6.952  17.340  0.00  0.00    +0.000 HD
BRANCH  11  15
ATOM     15  C   UNL     1       4.662   5.005  17.965  0.00  0.00    +0.000 C 
BRANCH  15  16
ATOM     16  C   UNL     1       4.577   4.375  16.574  0.00  0.00    +0.000 C 
BRANCH  16  18
ATOM     17  C   UNL     1       6.072   4.361  14.527  0.00  0.00    +0.000 C 
ATOM     18  C   UNL     1       5.954   3.977  16.002  0.00  0.00    +0.000 C 
ATOM     19  C   UNL     1       7.096   4.621  16.791  0.00  0.00    +0.000 C 
ENDBRANCH  16  18
ENDBRANCH  15  16
ENDBRANCH  11  15
ENDBRANCH   1  12
BRANCH   7  20
ATOM     20  S   UNL     1      -0.745  12.464  22.335  0.00  0.00    +0.000 S 
ATOM     21  O   UNL     1      -0.989  11.487  23.377  0.00  0.00    +0.000 OA
ATOM     22  O   UNL     1       0.160  13.574  22.547  0.00  0.00    +0.000 OA
BRANCH  20  23
ATOM     23  N   UNL     1      -2.259  13.091  21.827  0.00  0.00    +0.000 NA
ATOM     24  C   UNL     1      -3.447  12.414  22.409  0.00  0.00    +0.000 C 
ATOM     25  C   UNL     1      -4.761  12.961  21.877  0.00  0.00    +0.000 C 
ATOM     26  C   UNL     1      -4.812  14.478  21.959  0.00  0.00    +0.000 C 
ATOM     27  C   UNL     1      -3.651  15.066  21.176  0.00  0.00    +0.000 C 
ATOM     28  C   UNL     1      -2.313  14.565  21.684  0.00  0.00    +0.000 C 
ATOM     29  O   UNL     1      -4.765  14.894  23.331  0.00  0.00    +0.000 OA
ATOM     30  C   UNL     1      -5.795  15.875  23.460  0.00  0.00    +0.000 C 
ATOM     31  C   UNL     1      -6.811  15.471  22.428  0.00  0.00    +0.000 C 
ATOM     32  O   UNL     1      -6.029  14.949  21.357  0.00  0.00    +0.000 OA
ENDBRANCH  20  23
ENDBRANCH   7  20
BRANCH  10  33
ATOM     33  O   UNL     1       1.687   7.647  21.333  0.00  0.00    +0.000 OA
ATOM     34  H   UNL     1       0.830   7.654  21.785  0.00  0.00    +0.000 HD
ENDBRANCH  10  33
TORSDOF 7
ENDMDL
