MODEL 1
REMARK VINA RESULT:      -8.6      0.000      0.000
REMARK  Name = 
REMARK  5 active torsions:
REMARK  status: ('A' for Active; 'I' for Inactive)
REMARK    1  A    between atoms: C_2  and  C_3
REMARK    2  A    between atoms: C_3  and  C_4
REMARK    3  A    between atoms: C_4  and  C_5
REMARK    4  A    between atoms: N_11  and  C_12
REMARK    5  A    between atoms: N_16  and  C_17
REMARK                            x       y       z     vdW  Elec       q    Type
REMARK                         _______ _______ _______ _____ _____    ______ ____
ROOT
ATOM      1  O   UNL     1       8.301   6.747  18.967  0.00  0.00    +0.000 OA
ATOM      2  C   UNL     1       7.912   7.324  17.953  0.00  0.00    +0.000 C 
ATOM      3  N   UNL     1       7.462   6.635  16.844  0.00  0.00    +0.000 N 
ATOM      4  H   UNL     1       7.470   7.133  15.965  0.00  0.00    +0.000 HD
ENDROOT
BRANCH   3   5
ATOM      5  C   UNL     1       7.462   5.165  16.768  0.00  0.00    +0.000 C 
ATOM      6  C   UNL     1       7.107   4.677  15.367  0.00  0.00    +0.000 C 
ATOM      7  C   UNL     1       5.615   4.436  15.419  0.00  0.00    +0.000 C 
ATOM      8  O   UNL     1       4.948   4.278  14.410  0.00  0.00    +0.000 OA
ATOM      9  N   UNL     1       5.228   4.398  16.764  0.00  0.00    +0.000 N 
ATOM     10  C   UNL     1       6.387   4.497  17.626  0.00  0.00    +0.000 C 
BRANCH   9  11
ATOM     11  C   UNL     1       3.914   4.158  17.263  0.00  0.00    +0.000 A 
ATOM     12  C   UNL     1       3.080   5.200  17.686  0.00  0.00    +0.000 A 
ATOM     13  C   UNL     1       1.805   4.948  18.214  0.00  0.00    +0.000 A 
ATOM     14  C   UNL     1       1.346   3.642  18.336  0.00  0.00    +0.000 A 
ATOM     15  C   UNL     1       2.149   2.593  17.907  0.00  0.00    +0.000 A 
ATOM     16  C   UNL     1       3.414   2.850  17.367  0.00  0.00    +0.000 A 
ENDBRANCH   9  11
ENDBRANCH   3   5
BRANCH   2  17
ATOM     17  C   UNL     1       7.976   8.844  17.821  0.00  0.00    +0.000 C 
BRANCH  17  18
ATOM     18  C   UNL     1       8.882   9.553  18.831  0.00  0.00    +0.000 C 
BRANCH  18  19
ATOM     19  C   UNL     1       9.397  10.876  18.315  0.00  0.00    +0.000 A 
ATOM     20  C   UNL     1      10.778  11.118  18.240  0.00  0.00    +0.000 A 
ATOM     21  C   UNL     1      11.261  12.339  17.769  0.00  0.00    +0.000 A 
ATOM     22  C   UNL     1      10.372  13.334  17.367  0.00  0.00    +0.000 A 
ATOM     23  C   UNL     1       9.000  13.107  17.438  0.00  0.00    +0.000 A 
ATOM     24  C   UNL     1       8.512  11.885  17.914  0.00  0.00    +0.000 A 
ENDBRANCH  18  19
ENDBRANCH  17  18
ENDBRANCH   2  17
TORSDOF 5
ENDMDL
MODEL 2
REMARK VINA RESULT:      -8.2      0.365      1.440
REMARK  Name = 
REMARK  5 active torsions:
REMARK  status: ('A' for Active; 'I' for Inactive)
REMARK    1  A    between atoms: C_2  and  C_3
REMARK    2  A    between atoms: C_3  and  C_4
REMARK    3  A    between atoms: C_4  and  C_5
REMARK    4  A    between atoms: N_11  and  C_12
REMARK    5  A    between atoms: N_16  and  C_17
REMARK                            x       y       z     vdW  Elec       q    Type
REMARK                         _______ _______ _______ _____ _____    ______ ____
ROOT
ATOM      1  O   UNL     1       7.913   6.575  18.848  0.00  0.00    +0.000 OA
ATOM      2  C   UNL     1       7.731   7.205  17.807  0.00  0.00    +0.000 C 
ATOM      3  N   UNL     1       7.495   6.576  16.600  0.00  0.00    +0.000 N 
ATOM      4  H   UNL     1       7.677   7.113  15.764  0.00  0.00    +0.000 HD
ENDROOT
BRANCH   3   5
ATOM      5  C   UNL     1       7.492   5.111  16.455  0.00  0.00    +0.000 C 
ATOM      6  C   UNL     1       7.025   4.687  15.066  0.00  0.00    +0.000 C 
ATOM      7  C   UNL     1       5.543   4.435  15.228  0.00  0.00    +0.000 C 
ATOM      8  O   UNL     1       4.796   4.320  14.271  0.00  0.00    +0.000 OA
ATOM      9  N   UNL     1       5.267   4.331  16.596  0.00  0.00    +0.000 N 
ATOM     10  C   UNL     1       6.492   4.397  17.366  0.00  0.00    +0.000 C 
BRANCH   9  11
ATOM     11  C   UNL     1       3.998   4.060  17.189  0.00  0.00    +0.000 A 
ATOM     12  C   UNL     1       3.579   2.755  17.479  0.00  0.00    +0.000 A 
ATOM     13  C   UNL     1       2.313   2.499  18.024  0.00  0.00    +0.000 A 
ATOM     14  C   UNL     1       1.437   3.547  18.279  0.00  0.00    +0.000 A 
ATOM     15  C   UNL     1       1.837   4.851  18.015  0.00  0.00    +0.000 A 
ATOM     16  C   UNL     1       3.108   5.103  17.485  0.00  0.00    +0.000 A 
ENDBRANCH   9  11
ENDBRANCH   3   5
BRANCH   2  17
ATOM     17  C   UNL     1       7.837   8.727  17.763  0.00  0.00    +0.000 C 
BRANCH  17  18
ATOM     18  C   UNL     1       8.808   9.347  18.771  0.00  0.00    +0.000 C 
BRANCH  18  19
ATOM     19  C   UNL     1       9.180  10.769  18.417  0.00  0.00    +0.000 A 
ATOM     20  C   UNL     1       8.270  11.590  17.735  0.00  0.00    +0.000 A 
ATOM     21  C   UNL     1       8.608  12.902  17.401  0.00  0.00    +0.000 A 
ATOM     22  C   UNL     1       9.859  13.410  17.744  0.00  0.00    +0.000 A 
ATOM     23  C   UNL     1      10.772  12.603  18.421  0.00  0.00    +0.000 A 
ATOM     24  C   UNL     1      10.437  11.287  18.752  0.00  0.00    +0.000 A 
ENDBRANCH  18  19
ENDBRANCH  17  18
ENDBRANCH   2  17
TORSDOF 5
ENDMDL
MODEL 3
REMARK VINA RESULT:      -8.2      4.461      6.373
REMARK  Name = 
REMARK  5 active torsions:
REMARK  status: ('A' for Active; 'I' for Inactive)
REMARK    1  A    between atoms: C_2  and  C_3
REMARK    2  A    between atoms: C_3  and  C_4
REMARK    3  A    between atoms: C_4  and  C_5
REMARK    4  A    between atoms: N_11  and  C_12
REMARK    5  A    between atoms: N_16  and  C_17
REMARK                            x       y       z     vdW  Elec       q    Type
REMARK                         _______ _______ _______ _____ _____    ______ ____
ROOT
ATOM      1  O   UNL     1       6.914   4.696  19.110  0.00  0.00    +0.000 OA
ATOM      2  C   UNL     1       6.547   4.412  17.972  0.00  0.00    +0.000 C 
ATOM      3  N   UNL     1       5.284   3.918  17.710  0.00  0.00    +0.000 N 
ATOM      4  H   UNL     1       5.164   3.415  16.842  0.00  0.00    +0.000 HD
ENDROOT
BRANCH   3   5
ATOM      5  C   UNL     1       4.302   3.645  18.772  0.00  0.00    +0.000 C 
ATOM      6  C   UNL     1       2.971   3.173  18.195  0.00  0.00    +0.000 C 
ATOM      7  C   UNL     1       2.142   4.432  18.082  0.00  0.00    +0.000 C 
ATOM      8  O   UNL     1       1.111   4.474  17.430  0.00  0.00    +0.000 OA
ATOM      9  N   UNL     1       2.752   5.425  18.857  0.00  0.00    +0.000 N 
ATOM     10  C   UNL     1       3.889   4.882  19.570  0.00  0.00    +0.000 C 
BRANCH   9  11
ATOM     11  C   UNL     1       2.279   6.756  19.059  0.00  0.00    +0.000 A 
ATOM     12  C   UNL     1       1.787   7.189  20.296  0.00  0.00    +0.000 A 
ATOM     13  C   UNL     1       1.287   8.487  20.470  0.00  0.00    +0.000 A 
ATOM     14  C   UNL     1       1.263   9.375  19.402  0.00  0.00    +0.000 A 
ATOM     15  C   UNL     1       1.760   8.973  18.168  0.00  0.00    +0.000 A 
ATOM     16  C   UNL     1       2.272   7.681  18.003  0.00  0.00    +0.000 A 
ENDBRANCH   9  11
ENDBRANCH   3   5
BRANCH   2  17
ATOM     17  C   UNL     1       7.492   4.509  16.777  0.00  0.00    +0.000 C 
BRANCH  17  18
ATOM     18  C   UNL     1       7.083   5.513  15.696  0.00  0.00    +0.000 C 
BRANCH  18  19
ATOM     19  C   UNL     1       6.824   4.852  14.361  0.00  0.00    +0.000 A 
ATOM     20  C   UNL     1       5.715   4.009  14.192  0.00  0.00    +0.000 A 
ATOM     21  C   UNL     1       5.472   3.392  12.964  0.00  0.00    +0.000 A 
ATOM     22  C   UNL     1       6.333   3.609  11.890  0.00  0.00    +0.000 A 
ATOM     23  C   UNL     1       7.438   4.443  12.047  0.00  0.00    +0.000 A 
ATOM     24  C   UNL     1       7.687   5.059  13.277  0.00  0.00    +0.000 A 
ENDBRANCH  18  19
ENDBRANCH  17  18
ENDBRANCH   2  17
TORSDOF 5
ENDMDL
MODEL 4
REMARK VINA RESULT:      -8.1      4.390      6.284
REMARK  Name = 
REMARK  5 active torsions:
REMARK  status: ('A' for Active; 'I' for Inactive)
REMARK    1  A    between atoms: C_2  and  C_3
REMARK    2  A    between atoms: C_3  and  C_4
REMARK    3  A    between atoms: C_4  and  C_5
REMARK    4  A    between atoms: N_11  and  C_12
REMARK    5  A    between atoms: N_16  and  C_17
REMARK                            x       y       z     vdW  Elec       q    Type
REMARK                         _______ _______ _______ _____ _____    ______ ____
ROOT
ATOM      1  O   UNL     1       6.871   4.887  19.249  0.00  0.00    +0.000 OA
ATOM      2  C   UNL     1       6.541   4.517  18.123  0.00  0.00    +0.000 C 
ATOM      3  N   UNL     1       5.299   3.973  17.863  0.00  0.00    +0.000 N 
ATOM      4  H   UNL     1       5.215   3.409  17.029  0.00  0.00    +0.000 HD
ENDROOT
BRANCH   3   5
ATOM      5  C   UNL     1       4.295   3.746  18.916  0.00  0.00    +0.000 C 
ATOM      6  C   UNL     1       2.977   3.245  18.334  0.00  0.00    +0.000 C 
ATOM      7  C   UNL     1       2.149   4.496  18.146  0.00  0.00    +0.000 C 
ATOM      8  O   UNL     1       1.132   4.505  17.473  0.00  0.00    +0.000 OA
ATOM      9  N   UNL     1       2.741   5.524  18.889  0.00  0.00    +0.000 N 
ATOM     10  C   UNL     1       3.864   5.017  19.649  0.00  0.00    +0.000 C 
BRANCH   9  11
ATOM     11  C   UNL     1       2.262   6.862  19.020  0.00  0.00    +0.000 A 
ATOM     12  C   UNL     1       1.775   7.359  20.234  0.00  0.00    +0.000 A 
ATOM     13  C   UNL     1       1.268   8.662  20.340  0.00  0.00    +0.000 A 
ATOM     14  C   UNL     1       1.233   9.490  19.225  0.00  0.00    +0.000 A 
ATOM     15  C   UNL     1       1.727   9.024  18.012  0.00  0.00    +0.000 A 
ATOM     16  C   UNL     1       2.245   7.728  17.915  0.00  0.00    +0.000 A 
ENDBRANCH   9  11
ENDBRANCH   3   5
BRANCH   2  17
ATOM     17  C   UNL     1       7.517   4.559  16.949  0.00  0.00    +0.000 C 
BRANCH  17  18
ATOM     18  C   UNL     1       7.174   5.564  15.846  0.00  0.00    +0.000 C 
BRANCH  18  19
ATOM     19  C   UNL     1       6.883   4.893  14.523  0.00  0.00    +0.000 A 
ATOM     20  C   UNL     1       7.707   5.131  13.413  0.00  0.00    +0.000 A 
ATOM     21  C   UNL     1       7.442   4.519  12.187  0.00  0.00    +0.000 A 
ATOM     22  C   UNL     1       6.351   3.662  12.055  0.00  0.00    +0.000 A 
ATOM     23  C   UNL     1       5.525   3.419  13.150  0.00  0.00    +0.000 A 
ATOM     24  C   UNL     1       5.785   4.035  14.378  0.00  0.00    +0.000 A 
ENDBRANCH  18  19
ENDBRANCH  17  18
ENDBRANCH   2  17
TORSDOF 5
ENDMDL
MODEL 5
REMARK VINA RESULT:      -8.0      2.154      2.653
REMARK  Name = 
REMARK  5 active torsions:
REMARK  status: ('A' for Active; 'I' for Inactive)
REMARK    1  A    between atoms: C_2  and  C_3
REMARK    2  A    between atoms: C_3  and  C_4
REMARK    3  A    between atoms: C_4  and  C_5
REMARK    4  A    between atoms: N_11  and  C_12
REMARK    5  A    between atoms: N_16  and  C_17
REMARK                            x       y       z     vdW  Elec       q    Type
REMARK                         _______ _______ _______ _____ _____    ______ ____
ROOT
ATOM      1  O   UNL     1       8.038   7.255  16.435  0.00  0.00    +0.000 OA
ATOM      2  C   UNL     1       7.796   7.239  17.641  0.00  0.00    +0.000 C 
ATOM      3  N   UNL     1       6.915   6.335  18.202  0.00  0.00    +0.000 N 
ATOM      4  H   UNL     1       6.526   6.578  19.101  0.00  0.00    +0.000 HD
ENDROOT
BRANCH   3   5
ATOM      5  C   UNL     1       6.162   5.358  17.399  0.00  0.00    +0.000 C 
ATOM      6  C   UNL     1       4.948   5.999  16.733  0.00  0.00    +0.000 C 
ATOM      7  C   UNL     1       3.809   5.731  17.691  0.00  0.00    +0.000 C 
ATOM      8  O   UNL     1       2.740   6.311  17.605  0.00  0.00    +0.000 OA
ATOM      9  N   UNL     1       4.216   4.731  18.582  0.00  0.00    +0.000 N 
ATOM     10  C   UNL     1       5.527   4.235  18.220  0.00  0.00    +0.000 C 
BRANCH   9  11
ATOM     11  C   UNL     1       3.434   4.154  19.626  0.00  0.00    +0.000 A 
ATOM     12  C   UNL     1       3.749   2.910  20.186  0.00  0.00    +0.000 A 
ATOM     13  C   UNL     1       2.949   2.334  21.183  0.00  0.00    +0.000 A 
ATOM     14  C   UNL     1       1.810   2.992  21.631  0.00  0.00    +0.000 A 
ATOM     15  C   UNL     1       1.487   4.235  21.102  0.00  0.00    +0.000 A 
ATOM     16  C   UNL     1       2.297   4.813  20.118  0.00  0.00    +0.000 A 
ENDBRANCH   9  11
ENDBRANCH   3   5
BRANCH   2  17
ATOM     17  C   UNL     1       8.393   8.275  18.591  0.00  0.00    +0.000 C 
BRANCH  17  18
ATOM     18  C   UNL     1       8.425   9.710  18.060  0.00  0.00    +0.000 C 
BRANCH  18  19
ATOM     19  C   UNL     1       9.440  10.570  18.779  0.00  0.00    +0.000 A 
ATOM     20  C   UNL     1      10.525  11.119  18.080  0.00  0.00    +0.000 A 
ATOM     21  C   UNL     1      11.468  11.910  18.738  0.00  0.00    +0.000 A 
ATOM     22  C   UNL     1      11.338  12.163  20.102  0.00  0.00    +0.000 A 
ATOM     23  C   UNL     1      10.265  11.622  20.807  0.00  0.00    +0.000 A 
ATOM     24  C   UNL     1       9.321  10.825  20.151  0.00  0.00    +0.000 A 
ENDBRANCH  18  19
ENDBRANCH  17  18
ENDBRANCH   2  17
TORSDOF 5
ENDMDL
MODEL 6
REMARK VINA RESULT:      -7.9      2.107      2.646
REMARK  Name = 
REMARK  5 active torsions:
REMARK  status: ('A' for Active; 'I' for Inactive)
REMARK    1  A    between atoms: C_2  and  C_3
REMARK    2  A    between atoms: C_3  and  C_4
REMARK    3  A    between atoms: C_4  and  C_5
REMARK    4  A    between atoms: N_11  and  C_12
REMARK    5  A    between atoms: N_16  and  C_17
REMARK                            x       y       z     vdW  Elec       q    Type
REMARK                         _______ _______ _______ _____ _____    ______ ____
ROOT
ATOM      1  O   UNL     1       7.989   7.348  16.495  0.00  0.00    +0.000 OA
ATOM      2  C   UNL     1       7.833   7.267  17.712  0.00  0.00    +0.000 C 
ATOM      3  N   UNL     1       7.081   6.264  18.291  0.00  0.00    +0.000 N 
ATOM      4  H   UNL     1       6.731   6.437  19.223  0.00  0.00    +0.000 HD
ENDROOT
BRANCH   3   5
ATOM      5  C   UNL     1       6.370   5.247  17.499  0.00  0.00    +0.000 C 
ATOM      6  C   UNL     1       5.195   5.852  16.737  0.00  0.00    +0.000 C 
ATOM      7  C   UNL     1       4.005   5.633  17.644  0.00  0.00    +0.000 C 
ATOM      8  O   UNL     1       2.943   6.207  17.471  0.00  0.00    +0.000 OA
ATOM      9  N   UNL     1       4.361   4.680  18.605  0.00  0.00    +0.000 N 
ATOM     10  C   UNL     1       5.689   4.166  18.340  0.00  0.00    +0.000 C 
BRANCH   9  11
ATOM     11  C   UNL     1       3.523   4.155  19.633  0.00  0.00    +0.000 A 
ATOM     12  C   UNL     1       3.711   2.872  20.160  0.00  0.00    +0.000 A 
ATOM     13  C   UNL     1       2.854   2.351  21.141  0.00  0.00    +0.000 A 
ATOM     14  C   UNL     1       1.786   3.108  21.607  0.00  0.00    +0.000 A 
ATOM     15  C   UNL     1       1.589   4.390  21.111  0.00  0.00    +0.000 A 
ATOM     16  C   UNL     1       2.455   4.911  20.142  0.00  0.00    +0.000 A 
ENDBRANCH   9  11
ENDBRANCH   3   5
BRANCH   2  17
ATOM     17  C   UNL     1       8.392   8.323  18.664  0.00  0.00    +0.000 C 
BRANCH  17  18
ATOM     18  C   UNL     1       8.383   9.757  18.131  0.00  0.00    +0.000 C 
BRANCH  18  19
ATOM     19  C   UNL     1       9.455  10.616  18.763  0.00  0.00    +0.000 A 
ATOM     20  C   UNL     1       9.422  10.891  20.139  0.00  0.00    +0.000 A 
ATOM     21  C   UNL     1      10.405  11.686  20.729  0.00  0.00    +0.000 A 
ATOM     22  C   UNL     1      11.434  12.216  19.953  0.00  0.00    +0.000 A 
ATOM     23  C   UNL     1      11.477  11.950  18.585  0.00  0.00    +0.000 A 
ATOM     24  C   UNL     1      10.490  11.158  17.991  0.00  0.00    +0.000 A 
ENDBRANCH  18  19
ENDBRANCH  17  18
ENDBRANCH   2  17
TORSDOF 5
ENDMDL
MODEL 7
REMARK VINA RESULT:      -7.9      1.073      1.745
REMARK  Name = 
REMARK  5 active torsions:
REMARK  status: ('A' for Active; 'I' for Inactive)
REMARK    1  A    between atoms: C_2  and  C_3
REMARK    2  A    between atoms: C_3  and  C_4
REMARK    3  A    between atoms: C_4  and  C_5
REMARK    4  A    between atoms: N_11  and  C_12
REMARK    5  A    between atoms: N_16  and  C_17
REMARK                            x       y       z     vdW  Elec       q    Type
REMARK                         _______ _______ _______ _____ _____    ______ ____
ROOT
ATOM      1  O   UNL     1       8.443   7.037  18.873  0.00  0.00    +0.000 OA
ATOM      2  C   UNL     1       7.794   7.532  17.954  0.00  0.00    +0.000 C 
ATOM      3  N   UNL     1       7.215   6.760  16.965  0.00  0.00    +0.000 N 
ATOM      4  H   UNL     1       6.988   7.227  16.098  0.00  0.00    +0.000 HD
ENDROOT
BRANCH   3   5
ATOM      5  C   UNL     1       7.372   5.298  16.905  0.00  0.00    +0.000 C 
ATOM      6  C   UNL     1       7.082   4.761  15.507  0.00  0.00    +0.000 C 
ATOM      7  C   UNL     1       5.624   4.363  15.552  0.00  0.00    +0.000 C 
ATOM      8  O   UNL     1       4.986   4.125  14.540  0.00  0.00    +0.000 OA
ATOM      9  N   UNL     1       5.233   4.297  16.894  0.00  0.00    +0.000 N 
ATOM     10  C   UNL     1       6.368   4.528  17.763  0.00  0.00    +0.000 C 
BRANCH   9  11
ATOM     11  C   UNL     1       3.948   3.923  17.387  0.00  0.00    +0.000 A 
ATOM     12  C   UNL     1       3.615   2.589  17.651  0.00  0.00    +0.000 A 
ATOM     13  C   UNL     1       2.334   2.230  18.096  0.00  0.00    +0.000 A 
ATOM     14  C   UNL     1       1.359   3.203  18.277  0.00  0.00    +0.000 A 
ATOM     15  C   UNL     1       1.672   4.536  18.038  0.00  0.00    +0.000 A 
ATOM     16  C   UNL     1       2.955   4.891  17.608  0.00  0.00    +0.000 A 
ENDBRANCH   9  11
ENDBRANCH   3   5
BRANCH   2  17
ATOM     17  C   UNL     1       7.651   9.044  17.797  0.00  0.00    +0.000 C 
BRANCH  17  18
ATOM     18  C   UNL     1       8.962   9.810  17.601  0.00  0.00    +0.000 C 
BRANCH  18  19
ATOM     19  C   UNL     1       9.167  10.882  18.647  0.00  0.00    +0.000 A 
ATOM     20  C   UNL     1       9.095  12.238  18.294  0.00  0.00    +0.000 A 
ATOM     21  C   UNL     1       9.287  13.234  19.252  0.00  0.00    +0.000 A 
ATOM     22  C   UNL     1       9.553  12.887  20.576  0.00  0.00    +0.000 A 
ATOM     23  C   UNL     1       9.628  11.544  20.938  0.00  0.00    +0.000 A 
ATOM     24  C   UNL     1       9.440  10.545  19.978  0.00  0.00    +0.000 A 
ENDBRANCH  18  19
ENDBRANCH  17  18
ENDBRANCH   2  17
TORSDOF 5
ENDMDL
MODEL 8
REMARK VINA RESULT:      -7.9      1.262      1.274
REMARK  Name = 
REMARK  5 active torsions:
REMARK  status: ('A' for Active; 'I' for Inactive)
REMARK    1  A    between atoms: C_2  and  C_3
REMARK    2  A    between atoms: C_3  and  C_4
REMARK    3  A    between atoms: C_4  and  C_5
REMARK    4  A    between atoms: N_11  and  C_12
REMARK    5  A    between atoms: N_16  and  C_17
REMARK                            x       y       z     vdW  Elec       q    Type
REMARK                         _______ _______ _______ _____ _____    ______ ____
ROOT
ATOM      1  O   UNL     1       8.478   6.968  19.135  0.00  0.00    +0.000 OA
ATOM      2  C   UNL     1       8.023   7.444  18.096  0.00  0.00    +0.000 C 
ATOM      3  N   UNL     1       7.429   6.659  17.127  0.00  0.00    +0.000 N 
ATOM      4  H   UNL     1       7.379   7.048  16.196  0.00  0.00    +0.000 HD
ENDROOT
BRANCH   3   5
ATOM      5  C   UNL     1       7.340   5.194  17.236  0.00  0.00    +0.000 C 
ATOM      6  C   UNL     1       6.544   4.594  16.081  0.00  0.00    +0.000 C 
ATOM      7  C   UNL     1       5.135   4.481  16.615  0.00  0.00    +0.000 C 
ATOM      8  O   UNL     1       4.179   4.274  15.885  0.00  0.00    +0.000 OA
ATOM      9  N   UNL     1       5.185   4.612  18.008  0.00  0.00    +0.000 N 
ATOM     10  C   UNL     1       6.558   4.707  18.457  0.00  0.00    +0.000 C 
BRANCH   9  11
ATOM     11  C   UNL     1       4.083   4.532  18.910  0.00  0.00    +0.000 A 
ATOM     12  C   UNL     1       3.330   5.658  19.262  0.00  0.00    +0.000 A 
ATOM     13  C   UNL     1       2.275   5.573  20.182  0.00  0.00    +0.000 A 
ATOM     14  C   UNL     1       1.961   4.355  20.774  0.00  0.00    +0.000 A 
ATOM     15  C   UNL     1       2.684   3.221  20.427  0.00  0.00    +0.000 A 
ATOM     16  C   UNL     1       3.726   3.308  19.498  0.00  0.00    +0.000 A 
ENDBRANCH   9  11
ENDBRANCH   3   5
BRANCH   2  17
ATOM     17  C   UNL     1       8.158   8.930  17.770  0.00  0.00    +0.000 C 
BRANCH  17  18
ATOM     18  C   UNL     1       8.842   9.778  18.845  0.00  0.00    +0.000 C 
BRANCH  18  19
ATOM     19  C   UNL     1       9.449  11.043  18.283  0.00  0.00    +0.000 A 
ATOM     20  C   UNL     1      10.842  11.166  18.161  0.00  0.00    +0.000 A 
ATOM     21  C   UNL     1      11.410  12.332  17.647  0.00  0.00    +0.000 A 
ATOM     22  C   UNL     1      10.595  13.390  17.249  0.00  0.00    +0.000 A 
ATOM     23  C   UNL     1       9.211  13.280  17.366  0.00  0.00    +0.000 A 
ATOM     24  C   UNL     1       8.639  12.114  17.885  0.00  0.00    +0.000 A 
ENDBRANCH  18  19
ENDBRANCH  17  18
ENDBRANCH   2  17
TORSDOF 5
ENDMDL
MODEL 9
REMARK VINA RESULT:      -7.9      1.346      1.677
REMARK  Name = 
REMARK  5 active torsions:
REMARK  status: ('A' for Active; 'I' for Inactive)
REMARK    1  A    between atoms: C_2  and  C_3
REMARK    2  A    between atoms: C_3  and  C_4
REMARK    3  A    between atoms: C_4  and  C_5
REMARK    4  A    between atoms: N_11  and  C_12
REMARK    5  A    between atoms: N_16  and  C_17
REMARK                            x       y       z     vdW  Elec       q    Type
REMARK                         _______ _______ _______ _____ _____    ______ ____
ROOT
ATOM      1  O   UNL     1       8.417   6.835  19.044  0.00  0.00    +0.000 OA
ATOM      2  C   UNL     1       7.914   7.361  18.053  0.00  0.00    +0.000 C 
ATOM      3  N   UNL     1       7.289   6.622  17.067  0.00  0.00    +0.000 N 
ATOM      4  H   UNL     1       7.195   7.060  16.161  0.00  0.00    +0.000 HD
ENDROOT
BRANCH   3   5
ATOM      5  C   UNL     1       7.221   5.152  17.099  0.00  0.00    +0.000 C 
ATOM      6  C   UNL     1       6.314   4.610  15.998  0.00  0.00    +0.000 C 
ATOM      7  C   UNL     1       4.967   4.449  16.665  0.00  0.00    +0.000 C 
ATOM      8  O   UNL     1       3.944   4.272  16.025  0.00  0.00    +0.000 OA
ATOM      9  N   UNL     1       5.159   4.501  18.051  0.00  0.00    +0.000 N 
ATOM     10  C   UNL     1       6.571   4.586  18.362  0.00  0.00    +0.000 C 
BRANCH   9  11
ATOM     11  C   UNL     1       4.156   4.355  19.054  0.00  0.00    +0.000 A 
ATOM     12  C   UNL     1       3.894   3.124  19.667  0.00  0.00    +0.000 A 
ATOM     13  C   UNL     1       2.877   2.984  20.622  0.00  0.00    +0.000 A 
ATOM     14  C   UNL     1       2.095   4.078  20.974  0.00  0.00    +0.000 A 
ATOM     15  C   UNL     1       2.347   5.313  20.390  0.00  0.00    +0.000 A 
ATOM     16  C   UNL     1       3.373   5.451  19.449  0.00  0.00    +0.000 A 
ENDBRANCH   9  11
ENDBRANCH   3   5
BRANCH   2  17
ATOM     17  C   UNL     1       8.019   8.863  17.803  0.00  0.00    +0.000 C 
BRANCH  17  18
ATOM     18  C   UNL     1       8.815   9.648  18.848  0.00  0.00    +0.000 C 
BRANCH  18  19
ATOM     19  C   UNL     1       9.386  10.933  18.295  0.00  0.00    +0.000 A 
ATOM     20  C   UNL     1      10.775  11.103  18.188  0.00  0.00    +0.000 A 
ATOM     21  C   UNL     1      11.310  12.288  17.682  0.00  0.00    +0.000 A 
ATOM     22  C   UNL     1      10.464  13.319  17.276  0.00  0.00    +0.000 A 
ATOM     23  C   UNL     1       9.084  13.163  17.378  0.00  0.00    +0.000 A 
ATOM     24  C   UNL     1       8.545  11.978  17.889  0.00  0.00    +0.000 A 
ENDBRANCH  18  19
ENDBRANCH  17  18
ENDBRANCH   2  17
TORSDOF 5
ENDMDL
