MODEL 1
REMARK VINA RESULT:      -6.8      0.000      0.000
REMARK  Name = 
REMARK  2 active torsions:
REMARK  status: ('A' for Active; 'I' for Inactive)
REMARK    1  A    between atoms: C_4  and  N_5
REMARK    2  A    between atoms: N_5  and  C_6
REMARK                            x       y       z     vdW  Elec       q    Type
REMARK                         _______ _______ _______ _____ _____    ______ ____
ROOT
ATOM      1  N   UNL     1      -1.204  12.818  21.733  0.00  0.00    +0.000 N 
ATOM      2  C   UNL     1      -2.386  12.823  20.902  0.00  0.00    +0.000 A 
ATOM      3  N   UNL     1      -2.477  11.950  19.894  0.00  0.00    +0.000 NA
ATOM      4  C   UNL     1      -3.607  11.919  19.211  0.00  0.00    +0.000 A 
ATOM      5  N   UNL     1      -3.768  11.012  18.195  0.00  0.00    +0.000 N 
ATOM      6  C   UNL     1      -2.724  10.052  17.842  0.00  0.00    +0.000 C 
ATOM      7  C   UNL     1      -2.242  10.293  16.404  0.00  0.00    +0.000 C 
ATOM      8  O   UNL     1      -3.337  10.329  15.473  0.00  0.00    +0.000 OA
ATOM      9  C   UNL     1      -4.245  11.388  15.817  0.00  0.00    +0.000 C 
ATOM     10  C   UNL     1      -4.842  11.186  17.217  0.00  0.00    +0.000 C 
ATOM     11  N   UNL     1      -4.625  12.713  19.497  0.00  0.00    +0.000 NA
ATOM     12  C   UNL     1      -4.485  13.567  20.495  0.00  0.00    +0.000 A 
ATOM     13  N   UNL     1      -5.541  14.383  20.804  0.00  0.00    +0.000 N 
ATOM     14  C   UNL     1      -5.470  15.363  21.877  0.00  0.00    +0.000 C 
ATOM     15  C   UNL     1      -6.614  15.130  22.874  0.00  0.00    +0.000 C 
ATOM     16  O   UNL     1      -7.892  15.080  22.216  0.00  0.00    +0.000 OA
ATOM     17  C   UNL     1      -7.916  14.008  21.258  0.00  0.00    +0.000 C 
ATOM     18  C   UNL     1      -6.848  14.198  20.173  0.00  0.00    +0.000 C 
ATOM     19  N   UNL     1      -3.374  13.663  21.204  0.00  0.00    +0.000 NA
ENDROOT
BRANCH   1  23
ATOM     20  C   UNL     1       0.077  16.551  23.398  0.00  0.00    +0.000 A 
ATOM     21  C   UNL     1      -0.733  15.697  24.139  0.00  0.00    +0.000 A 
ATOM     22  C   UNL     1      -1.130  14.465  23.604  0.00  0.00    +0.000 A 
ATOM     23  C   UNL     1      -0.736  14.061  22.313  0.00  0.00    +0.000 A 
ATOM     24  C   UNL     1       0.117  14.930  21.604  0.00  0.00    +0.000 A 
ATOM     25  C   UNL     1       0.510  16.164  22.134  0.00  0.00    +0.000 A 
ENDBRANCH   1  23
BRANCH   1  26
ATOM     26  C   UNL     1      -0.546  11.552  21.990  0.00  0.00    +0.000 A 
ATOM     27  C   UNL     1       0.512  11.108  21.169  0.00  0.00    +0.000 A 
ATOM     28  C   UNL     1       1.178   9.903  21.412  0.00  0.00    +0.000 A 
ATOM     29  C   UNL     1       0.784   9.097  22.469  0.00  0.00    +0.000 A 
ATOM     30  C   UNL     1      -0.270   9.497  23.289  0.00  0.00    +0.000 A 
ATOM     31  C   UNL     1      -0.918  10.716  23.058  0.00  0.00    +0.000 A 
ENDBRANCH   1  26
TORSDOF 2
ENDMDL
MODEL 2
REMARK VINA RESULT:      -6.8      2.505      6.145
REMARK  Name = 
REMARK  2 active torsions:
REMARK  status: ('A' for Active; 'I' for Inactive)
REMARK    1  A    between atoms: C_4  and  N_5
REMARK    2  A    between atoms: N_5  and  C_6
REMARK                            x       y       z     vdW  Elec       q    Type
REMARK                         _______ _______ _______ _____ _____    ______ ____
ROOT
ATOM      1  N   UNL     1       0.735  12.316  19.841  0.00  0.00    +0.000 N 
ATOM      2  C   UNL     1      -0.639  12.626  20.161  0.00  0.00    +0.000 A 
ATOM      3  N   UNL     1      -0.899  13.559  21.082  0.00  0.00    +0.000 NA
ATOM      4  C   UNL     1      -2.163  13.883  21.286  0.00  0.00    +0.000 A 
ATOM      5  N   UNL     1      -2.481  14.865  22.189  0.00  0.00    +0.000 N 
ATOM      6  C   UNL     1      -1.455  15.589  22.937  0.00  0.00    +0.000 C 
ATOM      7  C   UNL     1      -1.617  15.338  24.444  0.00  0.00    +0.000 C 
ATOM      8  O   UNL     1      -2.959  15.606  24.888  0.00  0.00    +0.000 OA
ATOM      9  C   UNL     1      -3.888  14.756  24.197  0.00  0.00    +0.000 C 
ATOM     10  C   UNL     1      -3.852  14.996  22.681  0.00  0.00    +0.000 C 
ATOM     11  N   UNL     1      -3.152  13.319  20.614  0.00  0.00    +0.000 NA
ATOM     12  C   UNL     1      -2.847  12.393  19.721  0.00  0.00    +0.000 A 
ATOM     13  N   UNL     1      -3.867  11.815  19.013  0.00  0.00    +0.000 N 
ATOM     14  C   UNL     1      -3.625  10.778  18.021  0.00  0.00    +0.000 C 
ATOM     15  C   UNL     1      -4.226  11.197  16.671  0.00  0.00    +0.000 C 
ATOM     16  O   UNL     1      -5.609  11.570  16.796  0.00  0.00    +0.000 OA
ATOM     17  C   UNL     1      -5.744  12.679  17.701  0.00  0.00    +0.000 C 
ATOM     18  C   UNL     1      -5.235  12.325  19.105  0.00  0.00    +0.000 C 
ATOM     19  N   UNL     1      -1.606  12.008  19.485  0.00  0.00    +0.000 NA
ENDROOT
BRANCH   1  23
ATOM     20  C   UNL     1       1.896   8.345  18.730  0.00  0.00    +0.000 A 
ATOM     21  C   UNL     1       1.351   8.588  19.986  0.00  0.00    +0.000 A 
ATOM     22  C   UNL     1       0.948   9.882  20.339  0.00  0.00    +0.000 A 
ATOM     23  C   UNL     1       1.088  10.965  19.450  0.00  0.00    +0.000 A 
ATOM     24  C   UNL     1       1.606  10.680  18.172  0.00  0.00    +0.000 A 
ATOM     25  C   UNL     1       2.015   9.389  17.819  0.00  0.00    +0.000 A 
ENDBRANCH   1  23
BRANCH   1  26
ATOM     26  C   UNL     1       1.713  13.385  19.888  0.00  0.00    +0.000 A 
ATOM     27  C   UNL     1       1.762  14.365  18.874  0.00  0.00    +0.000 A 
ATOM     28  C   UNL     1       2.679  15.419  18.911  0.00  0.00    +0.000 A 
ATOM     29  C   UNL     1       3.592  15.504  19.952  0.00  0.00    +0.000 A 
ATOM     30  C   UNL     1       3.582  14.543  20.961  0.00  0.00    +0.000 A 
ATOM     31  C   UNL     1       2.646  13.503  20.934  0.00  0.00    +0.000 A 
ENDBRANCH   1  26
TORSDOF 2
ENDMDL
MODEL 3
REMARK VINA RESULT:      -6.7      2.516      3.654
REMARK  Name = 
REMARK  2 active torsions:
REMARK  status: ('A' for Active; 'I' for Inactive)
REMARK    1  A    between atoms: C_4  and  N_5
REMARK    2  A    between atoms: N_5  and  C_6
REMARK                            x       y       z     vdW  Elec       q    Type
REMARK                         _______ _______ _______ _____ _____    ______ ____
ROOT
ATOM      1  N   UNL     1       0.760  12.531  19.747  0.00  0.00    +0.000 N 
ATOM      2  C   UNL     1      -0.625  12.842  20.014  0.00  0.00    +0.000 A 
ATOM      3  N   UNL     1      -1.580  12.194  19.338  0.00  0.00    +0.000 NA
ATOM      4  C   UNL     1      -2.836  12.435  19.669  0.00  0.00    +0.000 A 
ATOM      5  N   UNL     1      -3.851  11.764  19.037  0.00  0.00    +0.000 N 
ATOM      6  C   UNL     1      -3.591  10.765  18.002  0.00  0.00    +0.000 C 
ATOM      7  C   UNL     1      -4.200  11.211  16.664  0.00  0.00    +0.000 C 
ATOM      8  O   UNL     1      -5.590  11.559  16.801  0.00  0.00    +0.000 OA
ATOM      9  C   UNL     1      -5.740  12.639  17.736  0.00  0.00    +0.000 C 
ATOM     10  C   UNL     1      -5.226  12.253  19.131  0.00  0.00    +0.000 C 
ATOM     11  N   UNL     1      -3.160  13.282  20.631  0.00  0.00    +0.000 NA
ATOM     12  C   UNL     1      -2.183  13.907  21.263  0.00  0.00    +0.000 A 
ATOM     13  N   UNL     1      -2.514  14.776  22.269  0.00  0.00    +0.000 N 
ATOM     14  C   UNL     1      -1.504  15.518  23.009  0.00  0.00    +0.000 C 
ATOM     15  C   UNL     1      -1.654  15.247  24.513  0.00  0.00    +0.000 C 
ATOM     16  O   UNL     1      -2.998  15.483  24.967  0.00  0.00    +0.000 OA
ATOM     17  C   UNL     1      -3.916  14.623  24.270  0.00  0.00    +0.000 C 
ATOM     18  C   UNL     1      -3.890  14.879  22.757  0.00  0.00    +0.000 C 
ATOM     19  N   UNL     1      -0.908  13.727  20.967  0.00  0.00    +0.000 NA
ENDROOT
BRANCH   1  23
ATOM     20  C   UNL     1       3.793  15.542  20.036  0.00  0.00    +0.000 A 
ATOM     21  C   UNL     1       2.856  15.591  19.009  0.00  0.00    +0.000 A 
ATOM     22  C   UNL     1       1.849  14.621  18.931  0.00  0.00    +0.000 A 
ATOM     23  C   UNL     1       1.760  13.574  19.869  0.00  0.00    +0.000 A 
ATOM     24  C   UNL     1       2.699  13.575  20.920  0.00  0.00    +0.000 A 
ATOM     25  C   UNL     1       3.709  14.540  20.997  0.00  0.00    +0.000 A 
ENDBRANCH   1  23
BRANCH   1  26
ATOM     26  C   UNL     1       1.108  11.167  19.400  0.00  0.00    +0.000 A 
ATOM     27  C   UNL     1       0.896  10.113  20.313  0.00  0.00    +0.000 A 
ATOM     28  C   UNL     1       1.200   8.787  19.992  0.00  0.00    +0.000 A 
ATOM     29  C   UNL     1       1.750   8.485  18.755  0.00  0.00    +0.000 A 
ATOM     30  C   UNL     1       1.989   9.505  17.836  0.00  0.00    +0.000 A 
ATOM     31  C   UNL     1       1.660  10.829  18.152  0.00  0.00    +0.000 A 
ENDBRANCH   1  26
TORSDOF 2
ENDMDL
MODEL 4
REMARK VINA RESULT:      -6.7      2.453      3.404
REMARK  Name = 
REMARK  2 active torsions:
REMARK  status: ('A' for Active; 'I' for Inactive)
REMARK    1  A    between atoms: C_4  and  N_5
REMARK    2  A    between atoms: N_5  and  C_6
REMARK                            x       y       z     vdW  Elec       q    Type
REMARK                         _______ _______ _______ _____ _____    ______ ____
ROOT
ATOM      1  N   UNL     1       0.725  12.480  19.762  0.00  0.00    +0.000 N 
ATOM      2  C   UNL     1      -0.667  12.781  20.006  0.00  0.00    +0.000 A 
ATOM      3  N   UNL     1      -1.605  12.129  19.310  0.00  0.00    +0.000 NA
ATOM      4  C   UNL     1      -2.868  12.361  19.620  0.00  0.00    +0.000 A 
ATOM      5  N   UNL     1      -3.868  11.686  18.967  0.00  0.00    +0.000 N 
ATOM      6  C   UNL     1      -3.583  10.694  17.932  0.00  0.00    +0.000 C 
ATOM      7  C   UNL     1      -4.172  11.143  16.586  0.00  0.00    +0.000 C 
ATOM      8  O   UNL     1      -5.566  11.481  16.700  0.00  0.00    +0.000 OA
ATOM      9  C   UNL     1      -5.739  12.555  17.637  0.00  0.00    +0.000 C 
ATOM     10  C   UNL     1      -5.247  12.166  19.039  0.00  0.00    +0.000 C 
ATOM     11  N   UNL     1      -3.215  13.201  20.580  0.00  0.00    +0.000 NA
ATOM     12  C   UNL     1      -2.254  13.830  21.233  0.00  0.00    +0.000 A 
ATOM     13  N   UNL     1      -2.608  14.691  22.237  0.00  0.00    +0.000 N 
ATOM     14  C   UNL     1      -1.617  15.436  22.998  0.00  0.00    +0.000 C 
ATOM     15  C   UNL     1      -1.791  15.156  24.498  0.00  0.00    +0.000 C 
ATOM     16  O   UNL     1      -3.144  15.382  24.929  0.00  0.00    +0.000 OA
ATOM     17  C   UNL     1      -4.044  14.519  24.212  0.00  0.00    +0.000 C 
ATOM     18  C   UNL     1      -3.993  14.783  22.701  0.00  0.00    +0.000 C 
ATOM     19  N   UNL     1      -0.973  13.659  20.958  0.00  0.00    +0.000 NA
ENDROOT
BRANCH   1  23
ATOM     20  C   UNL     1       3.568  15.644  20.262  0.00  0.00    +0.000 A 
ATOM     21  C   UNL     1       3.532  14.589  21.166  0.00  0.00    +0.000 A 
ATOM     22  C   UNL     1       2.619  13.541  20.987  0.00  0.00    +0.000 A 
ATOM     23  C   UNL     1       1.715  13.529  19.907  0.00  0.00    +0.000 A 
ATOM     24  C   UNL     1       1.804  14.591  18.987  0.00  0.00    +0.000 A 
ATOM     25  C   UNL     1       2.711  15.642  19.167  0.00  0.00    +0.000 A 
ENDBRANCH   1  23
BRANCH   1  26
ATOM     26  C   UNL     1       1.087  11.121  19.415  0.00  0.00    +0.000 A 
ATOM     27  C   UNL     1       1.686  10.827  18.171  0.00  0.00    +0.000 A 
ATOM     28  C   UNL     1       2.066   9.527  17.825  0.00  0.00    +0.000 A 
ATOM     29  C   UNL     1       1.834   8.481  18.706  0.00  0.00    +0.000 A 
ATOM     30  C   UNL     1       1.229   8.734  19.935  0.00  0.00    +0.000 A 
ATOM     31  C   UNL     1       0.871  10.040  20.289  0.00  0.00    +0.000 A 
ENDBRANCH   1  26
TORSDOF 2
ENDMDL
MODEL 5
REMARK VINA RESULT:      -6.7      2.404      6.203
REMARK  Name = 
REMARK  2 active torsions:
REMARK  status: ('A' for Active; 'I' for Inactive)
REMARK    1  A    between atoms: C_4  and  N_5
REMARK    2  A    between atoms: N_5  and  C_6
REMARK                            x       y       z     vdW  Elec       q    Type
REMARK                         _______ _______ _______ _____ _____    ______ ____
ROOT
ATOM      1  N   UNL     1       0.672  12.462  19.902  0.00  0.00    +0.000 N 
ATOM      2  C   UNL     1      -0.721  12.718  20.191  0.00  0.00    +0.000 A 
ATOM      3  N   UNL     1      -1.037  13.633  21.113  0.00  0.00    +0.000 NA
ATOM      4  C   UNL     1      -2.317  13.908  21.289  0.00  0.00    +0.000 A 
ATOM      5  N   UNL     1      -2.693  14.870  22.191  0.00  0.00    +0.000 N 
ATOM      6  C   UNL     1      -1.713  15.625  22.969  0.00  0.00    +0.000 C 
ATOM      7  C   UNL     1      -1.901  15.356  24.469  0.00  0.00    +0.000 C 
ATOM      8  O   UNL     1      -3.262  15.570  24.883  0.00  0.00    +0.000 OA
ATOM      9  C   UNL     1      -4.142  14.691  24.164  0.00  0.00    +0.000 C 
ATOM     10  C   UNL     1      -4.079  14.946  22.651  0.00  0.00    +0.000 C 
ATOM     11  N   UNL     1      -3.267  13.313  20.589  0.00  0.00    +0.000 NA
ATOM     12  C   UNL     1      -2.908  12.407  19.697  0.00  0.00    +0.000 A 
ATOM     13  N   UNL     1      -3.888  11.797  18.960  0.00  0.00    +0.000 N 
ATOM     14  C   UNL     1      -3.584  10.778  17.966  0.00  0.00    +0.000 C 
ATOM     15  C   UNL     1      -4.167  11.185  16.606  0.00  0.00    +0.000 C 
ATOM     16  O   UNL     1      -5.566  11.506  16.699  0.00  0.00    +0.000 OA
ATOM     17  C   UNL     1      -5.764  12.601  17.610  0.00  0.00    +0.000 C 
ATOM     18  C   UNL     1      -5.276  12.255  19.023  0.00  0.00    +0.000 C 
ATOM     19  N   UNL     1      -1.647  12.071  19.487  0.00  0.00    +0.000 NA
ENDROOT
BRANCH   1  23
ATOM     20  C   UNL     1       1.774   8.503  18.695  0.00  0.00    +0.000 A 
ATOM     21  C   UNL     1       1.952   9.574  17.825  0.00  0.00    +0.000 A 
ATOM     22  C   UNL     1       1.616  10.871  18.230  0.00  0.00    +0.000 A 
ATOM     23  C   UNL     1       1.084  11.129  19.509  0.00  0.00    +0.000 A 
ATOM     24  C   UNL     1       0.953  10.030  20.380  0.00  0.00    +0.000 A 
ATOM     25  C   UNL     1       1.283   8.732  19.976  0.00  0.00    +0.000 A 
ENDBRANCH   1  23
BRANCH   1  26
ATOM     26  C   UNL     1       1.607  13.567  19.980  0.00  0.00    +0.000 A 
ATOM     27  C   UNL     1       2.599  13.605  20.983  0.00  0.00    +0.000 A 
ATOM     28  C   UNL     1       3.527  14.647  21.063  0.00  0.00    +0.000 A 
ATOM     29  C   UNL     1       3.470  15.694  20.155  0.00  0.00    +0.000 A 
ATOM     30  C   UNL     1       2.492  15.696  19.162  0.00  0.00    +0.000 A 
ATOM     31  C   UNL     1       1.580  14.638  19.070  0.00  0.00    +0.000 A 
ENDBRANCH   1  26
TORSDOF 2
ENDMDL
MODEL 6
REMARK VINA RESULT:      -6.6      2.499      6.353
REMARK  Name = 
REMARK  2 active torsions:
REMARK  status: ('A' for Active; 'I' for Inactive)
REMARK    1  A    between atoms: C_4  and  N_5
REMARK    2  A    between atoms: N_5  and  C_6
REMARK                            x       y       z     vdW  Elec       q    Type
REMARK                         _______ _______ _______ _____ _____    ______ ____
ROOT
ATOM      1  N   UNL     1       1.026  11.401  19.396  0.00  0.00    +0.000 N 
ATOM      2  C   UNL     1      -0.389  11.690  19.361  0.00  0.00    +0.000 A 
ATOM      3  N   UNL     1      -0.874  12.666  20.136  0.00  0.00    +0.000 NA
ATOM      4  C   UNL     1      -2.154  12.966  20.014  0.00  0.00    +0.000 A 
ATOM      5  N   UNL     1      -2.691  13.989  20.754  0.00  0.00    +0.000 N 
ATOM      6  C   UNL     1      -1.883  14.782  21.678  0.00  0.00    +0.000 C 
ATOM      7  C   UNL     1      -2.395  14.611  23.116  0.00  0.00    +0.000 C 
ATOM      8  O   UNL     1      -3.808  14.867  23.213  0.00  0.00    +0.000 OA
ATOM      9  C   UNL     1      -4.534  13.954  22.375  0.00  0.00    +0.000 C 
ATOM     10  C   UNL     1      -4.141  14.109  20.898  0.00  0.00    +0.000 C 
ATOM     11  N   UNL     1      -2.947  12.338  19.163  0.00  0.00    +0.000 NA
ATOM     12  C   UNL     1      -2.426  11.373  18.426  0.00  0.00    +0.000 A 
ATOM     13  N   UNL     1      -3.240  10.727  17.533  0.00  0.00    +0.000 N 
ATOM     14  C   UNL     1      -2.755   9.643  16.692  0.00  0.00    +0.000 C 
ATOM     15  C   UNL     1      -3.023   9.968  15.216  0.00  0.00    +0.000 C 
ATOM     16  O   UNL     1      -4.400  10.310  14.986  0.00  0.00    +0.000 OA
ATOM     17  C   UNL     1      -4.762  11.464  15.764  0.00  0.00    +0.000 C 
ATOM     18  C   UNL     1      -4.598  11.204  17.267  0.00  0.00    +0.000 C 
ATOM     19  N   UNL     1      -1.159  11.009  18.514  0.00  0.00    +0.000 NA
ENDROOT
BRANCH   1  23
ATOM     20  C   UNL     1       2.482   7.415  18.810  0.00  0.00    +0.000 A 
ATOM     21  C   UNL     1       1.892   7.773  20.018  0.00  0.00    +0.000 A 
ATOM     22  C   UNL     1       1.393   9.069  20.199  0.00  0.00    +0.000 A 
ATOM     23  C   UNL     1       1.480  10.040  19.183  0.00  0.00    +0.000 A 
ATOM     24  C   UNL     1       2.046   9.636  17.958  0.00  0.00    +0.000 A 
ATOM     25  C   UNL     1       2.551   8.343  17.777  0.00  0.00    +0.000 A 
ENDBRANCH   1  23
BRANCH   1  26
ATOM     26  C   UNL     1       1.950  12.497  19.607  0.00  0.00    +0.000 A 
ATOM     27  C   UNL     1       2.561  13.148  18.515  0.00  0.00    +0.000 A 
ATOM     28  C   UNL     1       3.436  14.224  18.693  0.00  0.00    +0.000 A 
ATOM     29  C   UNL     1       3.743  14.659  19.974  0.00  0.00    +0.000 A 
ATOM     30  C   UNL     1       3.170  14.027  21.076  0.00  0.00    +0.000 A 
ATOM     31  C   UNL     1       2.275  12.966  20.893  0.00  0.00    +0.000 A 
ENDBRANCH   1  26
TORSDOF 2
ENDMDL
MODEL 7
REMARK VINA RESULT:      -6.6      2.496      3.402
REMARK  Name = 
REMARK  2 active torsions:
REMARK  status: ('A' for Active; 'I' for Inactive)
REMARK    1  A    between atoms: C_4  and  N_5
REMARK    2  A    between atoms: N_5  and  C_6
REMARK                            x       y       z     vdW  Elec       q    Type
REMARK                         _______ _______ _______ _____ _____    ______ ____
ROOT
ATOM      1  N   UNL     1       1.089  11.607  19.344  0.00  0.00    +0.000 N 
ATOM      2  C   UNL     1      -0.321  11.913  19.263  0.00  0.00    +0.000 A 
ATOM      3  N   UNL     1      -1.094  11.205  18.435  0.00  0.00    +0.000 NA
ATOM      4  C   UNL     1      -2.392  11.448  18.451  0.00  0.00    +0.000 A 
ATOM      5  N   UNL     1      -3.235  10.718  17.652  0.00  0.00    +0.000 N 
ATOM      6  C   UNL     1      -2.745   9.654  16.779  0.00  0.00    +0.000 C 
ATOM      7  C   UNL     1      -3.030   9.996  15.309  0.00  0.00    +0.000 C 
ATOM      8  O   UNL     1      -4.413  10.331  15.098  0.00  0.00    +0.000 OA
ATOM      9  C   UNL     1      -4.774  11.470  15.894  0.00  0.00    +0.000 C 
ATOM     10  C   UNL     1      -4.595  11.190  17.393  0.00  0.00    +0.000 C 
ATOM     11  N   UNL     1      -2.929  12.354  19.250  0.00  0.00    +0.000 NA
ATOM     12  C   UNL     1      -2.124  13.038  20.043  0.00  0.00    +0.000 A 
ATOM     13  N   UNL     1      -2.677  13.969  20.882  0.00  0.00    +0.000 N 
ATOM     14  C   UNL     1      -1.864  14.777  21.779  0.00  0.00    +0.000 C 
ATOM     15  C   UNL     1      -2.355  14.608  23.224  0.00  0.00    +0.000 C 
ATOM     16  O   UNL     1      -3.767  14.853  23.340  0.00  0.00    +0.000 OA
ATOM     17  C   UNL     1      -4.501  13.932  22.514  0.00  0.00    +0.000 C 
ATOM     18  C   UNL     1      -4.128  14.083  21.033  0.00  0.00    +0.000 C 
ATOM     19  N   UNL     1      -0.815  12.858  20.061  0.00  0.00    +0.000 NA
ENDROOT
BRANCH   1  23
ATOM     20  C   UNL     1       3.785  14.837  20.151  0.00  0.00    +0.000 A 
ATOM     21  C   UNL     1       3.182  14.152  21.200  0.00  0.00    +0.000 A 
ATOM     22  C   UNL     1       2.321  13.080  20.936  0.00  0.00    +0.000 A 
ATOM     23  C   UNL     1       2.034  12.672  19.618  0.00  0.00    +0.000 A 
ATOM     24  C   UNL     1       2.692  13.359  18.580  0.00  0.00    +0.000 A 
ATOM     25  C   UNL     1       3.548  14.435  18.841  0.00  0.00    +0.000 A 
ENDBRANCH   1  23
BRANCH   1  26
ATOM     26  C   UNL     1       1.507  10.229  19.185  0.00  0.00    +0.000 A 
ATOM     27  C   UNL     1       2.061   9.777  17.968  0.00  0.00    +0.000 A 
ATOM     28  C   UNL     1       2.493   8.459  17.799  0.00  0.00    +0.000 A 
ATOM     29  C   UNL     1       2.358   7.549  18.837  0.00  0.00    +0.000 A 
ATOM     30  C   UNL     1       1.799   7.957  20.047  0.00  0.00    +0.000 A 
ATOM     31  C   UNL     1       1.389   9.285  20.221  0.00  0.00    +0.000 A 
ENDBRANCH   1  26
TORSDOF 2
ENDMDL
MODEL 8
REMARK VINA RESULT:      -6.5      0.176      5.755
REMARK  Name = 
REMARK  2 active torsions:
REMARK  status: ('A' for Active; 'I' for Inactive)
REMARK    1  A    between atoms: C_4  and  N_5
REMARK    2  A    between atoms: N_5  and  C_6
REMARK                            x       y       z     vdW  Elec       q    Type
REMARK                         _______ _______ _______ _____ _____    ______ ____
ROOT
ATOM      1  N   UNL     1      -1.257  12.617  21.797  0.00  0.00    +0.000 N 
ATOM      2  C   UNL     1      -2.485  12.599  21.036  0.00  0.00    +0.000 A 
ATOM      3  N   UNL     1      -3.462  13.453  21.356  0.00  0.00    +0.000 NA
ATOM      4  C   UNL     1      -4.534  13.473  20.585  0.00  0.00    +0.000 A 
ATOM      5  N   UNL     1      -5.547  14.361  20.844  0.00  0.00    +0.000 N 
ATOM      6  C   UNL     1      -5.478  15.311  21.952  0.00  0.00    +0.000 C 
ATOM      7  C   UNL     1      -6.607  15.041  22.958  0.00  0.00    +0.000 C 
ATOM      8  O   UNL     1      -7.893  14.991  22.315  0.00  0.00    +0.000 OA
ATOM      9  C   UNL     1      -7.915  13.941  21.334  0.00  0.00    +0.000 C 
ATOM     10  C   UNL     1      -6.864  14.171  20.239  0.00  0.00    +0.000 C 
ATOM     11  N   UNL     1      -4.657  12.687  19.529  0.00  0.00    +0.000 NA
ATOM     12  C   UNL     1      -3.670  11.852  19.258  0.00  0.00    +0.000 A 
ATOM     13  N   UNL     1      -3.787  11.045  18.157  0.00  0.00    +0.000 N 
ATOM     14  C   UNL     1      -2.756  10.086  17.792  0.00  0.00    +0.000 C 
ATOM     15  C   UNL     1      -2.292  10.341  16.351  0.00  0.00    +0.000 C 
ATOM     16  O   UNL     1      -3.399  10.381  15.434  0.00  0.00    +0.000 OA
ATOM     17  C   UNL     1      -4.307  11.434  15.798  0.00  0.00    +0.000 C 
ATOM     18  C   UNL     1      -4.883  11.221  17.204  0.00  0.00    +0.000 C 
ATOM     19  N   UNL     1      -2.581  11.767  20.001  0.00  0.00    +0.000 NA
ENDROOT
BRANCH   1  23
ATOM     20  C   UNL     1       0.837   8.913  22.290  0.00  0.00    +0.000 A 
ATOM     21  C   UNL     1       1.161   9.764  21.239  0.00  0.00    +0.000 A 
ATOM     22  C   UNL     1       0.494  10.987  21.094  0.00  0.00    +0.000 A 
ATOM     23  C   UNL     1      -0.519  11.384  21.988  0.00  0.00    +0.000 A 
ATOM     24  C   UNL     1      -0.797  10.519  23.065  0.00  0.00    +0.000 A 
ATOM     25  C   UNL     1      -0.135   9.294  23.208  0.00  0.00    +0.000 A 
ENDBRANCH   1  23
BRANCH   1  26
ATOM     26  C   UNL     1      -0.784  13.886  22.314  0.00  0.00    +0.000 A 
ATOM     27  C   UNL     1       0.162  14.650  21.600  0.00  0.00    +0.000 A 
ATOM     28  C   UNL     1       0.614  15.888  22.067  0.00  0.00    +0.000 A 
ATOM     29  C   UNL     1       0.149  16.381  23.277  0.00  0.00    +0.000 A 
ATOM     30  C   UNL     1      -0.773  15.644  24.016  0.00  0.00    +0.000 A 
ATOM     31  C   UNL     1      -1.242  14.416  23.534  0.00  0.00    +0.000 A 
ENDBRANCH   1  26
TORSDOF 2
ENDMDL
MODEL 9
REMARK VINA RESULT:      -6.5      2.718      3.890
REMARK  Name = 
REMARK  2 active torsions:
REMARK  status: ('A' for Active; 'I' for Inactive)
REMARK    1  A    between atoms: C_4  and  N_5
REMARK    2  A    between atoms: N_5  and  C_6
REMARK                            x       y       z     vdW  Elec       q    Type
REMARK                         _______ _______ _______ _____ _____    ______ ____
ROOT
ATOM      1  N   UNL     1       1.235  11.909  19.370  0.00  0.00    +0.000 N 
ATOM      2  C   UNL     1      -0.153  12.291  19.490  0.00  0.00    +0.000 A 
ATOM      3  N   UNL     1      -1.080  11.599  18.820  0.00  0.00    +0.000 NA
ATOM      4  C   UNL     1      -2.346  11.915  19.022  0.00  0.00    +0.000 A 
ATOM      5  N   UNL     1      -3.338  11.207  18.392  0.00  0.00    +0.000 N 
ATOM      6  C   UNL     1      -3.042  10.088  17.500  0.00  0.00    +0.000 C 
ATOM      7  C   UNL     1      -3.532  10.396  16.077  0.00  0.00    +0.000 C 
ATOM      8  O   UNL     1      -4.913  10.800  16.065  0.00  0.00    +0.000 OA
ATOM      9  C   UNL     1      -5.089  11.985  16.858  0.00  0.00    +0.000 C 
ATOM     10  C   UNL     1      -4.695  11.746  18.323  0.00  0.00    +0.000 C 
ATOM     11  N   UNL     1      -2.707  12.877  19.854  0.00  0.00    +0.000 NA
ATOM     12  C   UNL     1      -1.756  13.541  20.487  0.00  0.00    +0.000 A 
ATOM     13  N   UNL     1      -2.126  14.530  21.360  0.00  0.00    +0.000 N 
ATOM     14  C   UNL     1      -1.145  15.321  22.088  0.00  0.00    +0.000 C 
ATOM     15  C   UNL     1      -1.416  15.229  23.596  0.00  0.00    +0.000 C 
ATOM     16  O   UNL     1      -2.780  15.557  23.914  0.00  0.00    +0.000 OA
ATOM     17  C   UNL     1      -3.677  14.652  23.249  0.00  0.00    +0.000 C 
ATOM     18  C   UNL     1      -3.529  14.730  21.724  0.00  0.00    +0.000 C 
ATOM     19  N   UNL     1      -0.471  13.289  20.313  0.00  0.00    +0.000 NA
ENDROOT
BRANCH   1  23
ATOM     20  C   UNL     1       4.362  14.827  19.608  0.00  0.00    +0.000 A 
ATOM     21  C   UNL     1       3.869  14.431  18.369  0.00  0.00    +0.000 A 
ATOM     22  C   UNL     1       2.829  13.496  18.293  0.00  0.00    +0.000 A 
ATOM     23  C   UNL     1       2.263  12.928  19.452  0.00  0.00    +0.000 A 
ATOM     24  C   UNL     1       2.756  13.379  20.691  0.00  0.00    +0.000 A 
ATOM     25  C   UNL     1       3.800  14.308  20.769  0.00  0.00    +0.000 A 
ENDBRANCH   1  23
BRANCH   1  26
ATOM     26  C   UNL     1       1.553  10.504  19.207  0.00  0.00    +0.000 A 
ATOM     27  C   UNL     1       1.398   9.599  20.278  0.00  0.00    +0.000 A 
ATOM     28  C   UNL     1       1.675   8.236  20.137  0.00  0.00    +0.000 A 
ATOM     29  C   UNL     1       2.140   7.747  18.925  0.00  0.00    +0.000 A 
ATOM     30  C   UNL     1       2.321   8.617  17.852  0.00  0.00    +0.000 A 
ATOM     31  C   UNL     1       2.019   9.978  17.989  0.00  0.00    +0.000 A 
ENDBRANCH   1  26
TORSDOF 2
ENDMDL
