MODEL 1
REMARK VINA RESULT:      -8.2      0.000      0.000
REMARK  Name = 
REMARK  3 active torsions:
REMARK  status: ('A' for Active; 'I' for Inactive)
REMARK    1  A    between atoms: C_9  and  N_10
REMARK    2  A    between atoms: N_10  and  C_11
REMARK    3  A    between atoms: C_11  and  C_12
REMARK                            x       y       z     vdW  Elec       q    Type
REMARK                         _______ _______ _______ _____ _____    ______ ____
ROOT
ATOM      1  N   UNL     1       1.497   2.597  22.273  0.00  0.00    +0.000 N 
ATOM      2  C   UNL     1       2.020   3.294  21.203  0.00  0.00    +0.000 A 
ATOM      3  N   UNL     1       1.878   4.613  21.206  0.00  0.00    +0.000 NA
ATOM      4  C   UNL     1       2.411   5.282  20.173  0.00  0.00    +0.000 A 
ATOM      5  N   UNL     1       2.115   6.644  20.190  0.00  0.00    +0.000 N 
ATOM      6  C   UNL     1       3.098   4.664  19.109  0.00  0.00    +0.000 A 
ATOM      7  C   UNL     1       3.749   5.281  17.990  0.00  0.00    +0.000 A 
ATOM      8 CL   UNL     1       3.946   7.018  17.905  0.00  0.00    +0.000 Cl
ATOM      9  C   UNL     1       4.347   4.527  16.951  0.00  0.00    +0.000 A 
ATOM     10  C   UNL     1       4.273   3.140  17.050  0.00  0.00    +0.000 A 
ATOM     11  C   UNL     1       3.685   2.536  18.168  0.00  0.00    +0.000 A 
ATOM     12  C   UNL     1       3.109   3.269  19.197  0.00  0.00    +0.000 A 
ATOM     13  N   UNL     1       2.584   2.593  20.222  0.00  0.00    +0.000 NA
ATOM     14  H   UNL     1       0.763   3.141  22.706  0.00  0.00    +0.000 HD
ATOM     15  H   UNL     1       1.273   1.652  21.996  0.00  0.00    +0.000 HD
ATOM     16  H   UNL     1       1.687   6.878  21.080  0.00  0.00    +0.000 HD
ATOM     17  H   UNL     1       2.910   7.229  19.955  0.00  0.00    +0.000 HD
ENDROOT
BRANCH   9  18
ATOM     18  N   UNL     1       4.851   5.173  15.815  0.00  0.00    +0.000 N 
ATOM     19  H   UNL     1       4.396   6.078  15.681  0.00  0.00    +0.000 HD
BRANCH  18  20
ATOM     20  C   UNL     1       6.279   5.239  15.549  0.00  0.00    +0.000 C 
BRANCH  20  21
ATOM     21  C   UNL     1       6.977   5.788  16.775  0.00  0.00    +0.000 A 
ATOM     22  C   UNL     1       7.349   4.950  17.837  0.00  0.00    +0.000 A 
ATOM     23  C   UNL     1       8.022   5.467  18.949  0.00  0.00    +0.000 A 
ATOM     24  C   UNL     1       8.322   6.827  19.016  0.00  0.00    +0.000 A 
ATOM     25  C   UNL     1       7.943   7.669  17.973  0.00  0.00    +0.000 A 
ATOM     26 BR   UNL     1       8.333   9.517  18.068  0.00  0.00    +0.000 Br
ATOM     27  C   UNL     1       7.277   7.159  16.859  0.00  0.00    +0.000 A 
ENDBRANCH  20  21
ENDBRANCH  18  20
ENDBRANCH   9  18
TORSDOF 3
ENDMDL
MODEL 2
REMARK VINA RESULT:      -7.8      4.517      6.253
REMARK  Name = 
REMARK  3 active torsions:
REMARK  status: ('A' for Active; 'I' for Inactive)
REMARK    1  A    between atoms: C_9  and  N_10
REMARK    2  A    between atoms: N_10  and  C_11
REMARK    3  A    between atoms: C_11  and  C_12
REMARK                            x       y       z     vdW  Elec       q    Type
REMARK                         _______ _______ _______ _____ _____    ______ ____
ROOT
ATOM      1  N   UNL     1       3.911   0.765  18.307  0.00  0.00    +0.000 N 
ATOM      2  C   UNL     1       3.462   2.044  18.565  0.00  0.00    +0.000 A 
ATOM      3  N   UNL     1       2.492   2.181  19.459  0.00  0.00    +0.000 NA
ATOM      4  C   UNL     1       2.079   3.430  19.721  0.00  0.00    +0.000 A 
ATOM      5  N   UNL     1       0.980   3.478  20.577  0.00  0.00    +0.000 N 
ATOM      6  C   UNL     1       2.615   4.577  19.103  0.00  0.00    +0.000 A 
ATOM      7  C   UNL     1       2.290   5.953  19.343  0.00  0.00    +0.000 A 
ATOM      8 CL   UNL     1       1.243   6.416  20.668  0.00  0.00    +0.000 Cl
ATOM      9  C   UNL     1       2.864   7.010  18.595  0.00  0.00    +0.000 A 
ATOM     10  C   UNL     1       3.767   6.660  17.592  0.00  0.00    +0.000 A 
ATOM     11  C   UNL     1       4.125   5.321  17.393  0.00  0.00    +0.000 A 
ATOM     12  C   UNL     1       3.577   4.282  18.132  0.00  0.00    +0.000 A 
ATOM     13  N   UNL     1       3.996   3.042  17.867  0.00  0.00    +0.000 NA
ATOM     14  H   UNL     1       3.191   0.097  18.547  0.00  0.00    +0.000 HD
ATOM     15  H   UNL     1       4.298   0.715  17.376  0.00  0.00    +0.000 HD
ATOM     16  H   UNL     1       0.818   2.551  20.959  0.00  0.00    +0.000 HD
ATOM     17  H   UNL     1       1.056   4.202  21.284  0.00  0.00    +0.000 HD
ENDROOT
BRANCH   9  18
ATOM     18  N   UNL     1       2.415   8.324  18.776  0.00  0.00    +0.000 N 
ATOM     19  H   UNL     1       3.158   8.912  19.157  0.00  0.00    +0.000 HD
BRANCH  18  20
ATOM     20  C   UNL     1       1.650   9.012  17.748  0.00  0.00    +0.000 C 
BRANCH  20  21
ATOM     21  C   UNL     1       0.566   9.832  18.415  0.00  0.00    +0.000 A 
ATOM     22  C   UNL     1       0.822  10.561  19.586  0.00  0.00    +0.000 A 
ATOM     23  C   UNL     1      -0.181  11.339  20.173  0.00  0.00    +0.000 A 
ATOM     24  C   UNL     1      -1.452  11.390  19.602  0.00  0.00    +0.000 A 
ATOM     25  C   UNL     1      -1.719  10.657  18.447  0.00  0.00    +0.000 A 
ATOM     26 BR   UNL     1      -3.446  10.710  17.679  0.00  0.00    +0.000 Br
ATOM     27  C   UNL     1      -0.722   9.884  17.854  0.00  0.00    +0.000 A 
ENDBRANCH  20  21
ENDBRANCH  18  20
ENDBRANCH   9  18
TORSDOF 3
ENDMDL
MODEL 3
REMARK VINA RESULT:      -7.7      4.249      6.158
REMARK  Name = 
REMARK  3 active torsions:
REMARK  status: ('A' for Active; 'I' for Inactive)
REMARK    1  A    between atoms: C_9  and  N_10
REMARK    2  A    between atoms: N_10  and  C_11
REMARK    3  A    between atoms: C_11  and  C_12
REMARK                            x       y       z     vdW  Elec       q    Type
REMARK                         _______ _______ _______ _____ _____    ______ ____
ROOT
ATOM      1  N   UNL     1       4.016   0.753  18.274  0.00  0.00    +0.000 N 
ATOM      2  C   UNL     1       3.557   2.021  18.567  0.00  0.00    +0.000 A 
ATOM      3  N   UNL     1       2.660   2.136  19.538  0.00  0.00    +0.000 NA
ATOM      4  C   UNL     1       2.238   3.374  19.831  0.00  0.00    +0.000 A 
ATOM      5  N   UNL     1       1.212   3.397  20.774  0.00  0.00    +0.000 N 
ATOM      6  C   UNL     1       2.692   4.533  19.169  0.00  0.00    +0.000 A 
ATOM      7  C   UNL     1       2.352   5.901  19.434  0.00  0.00    +0.000 A 
ATOM      8 CL   UNL     1       1.405   6.341  20.839  0.00  0.00    +0.000 Cl
ATOM      9  C   UNL     1       2.835   6.970  18.640  0.00  0.00    +0.000 A 
ATOM     10  C   UNL     1       3.661   6.640  17.567  0.00  0.00    +0.000 A 
ATOM     11  C   UNL     1       4.037   5.310  17.340  0.00  0.00    +0.000 A 
ATOM     12  C   UNL     1       3.578   4.260  18.124  0.00  0.00    +0.000 A 
ATOM     13  N   UNL     1       4.006   3.031  17.826  0.00  0.00    +0.000 NA
ATOM     14  H   UNL     1       3.337   0.068  18.574  0.00  0.00    +0.000 HD
ATOM     15  H   UNL     1       4.327   0.710  17.315  0.00  0.00    +0.000 HD
ATOM     16  H   UNL     1       1.106   2.467  21.169  0.00  0.00    +0.000 HD
ATOM     17  H   UNL     1       1.326   4.125  21.471  0.00  0.00    +0.000 HD
ENDROOT
BRANCH   9  18
ATOM     18  N   UNL     1       2.368   8.272  18.855  0.00  0.00    +0.000 N 
ATOM     19  H   UNL     1       3.144   8.910  19.043  0.00  0.00    +0.000 HD
BRANCH  18  20
ATOM     20  C   UNL     1       1.370   8.874  17.985  0.00  0.00    +0.000 C 
BRANCH  20  21
ATOM     21  C   UNL     1       0.469   9.761  18.818  0.00  0.00    +0.000 A 
ATOM     22  C   UNL     1      -0.356  10.725  18.220  0.00  0.00    +0.000 A 
ATOM     23  C   UNL     1      -1.207  11.515  19.001  0.00  0.00    +0.000 A 
ATOM     24  C   UNL     1      -1.235  11.357  20.385  0.00  0.00    +0.000 A 
ATOM     25  C   UNL     1      -0.407  10.413  20.989  0.00  0.00    +0.000 A 
ATOM     26 BR   UNL     1      -0.429  10.208  22.868  0.00  0.00    +0.000 Br
ATOM     27  C   UNL     1       0.439   9.618  20.217  0.00  0.00    +0.000 A 
ENDBRANCH  20  21
ENDBRANCH  18  20
ENDBRANCH   9  18
TORSDOF 3
ENDMDL
MODEL 4
REMARK VINA RESULT:      -7.7      3.038      6.057
REMARK  Name = 
REMARK  3 active torsions:
REMARK  status: ('A' for Active; 'I' for Inactive)
REMARK    1  A    between atoms: C_9  and  N_10
REMARK    2  A    between atoms: N_10  and  C_11
REMARK    3  A    between atoms: C_11  and  C_12
REMARK                            x       y       z     vdW  Elec       q    Type
REMARK                         _______ _______ _______ _____ _____    ______ ____
ROOT
ATOM      1  N   UNL     1       8.617   9.248  17.743  0.00  0.00    +0.000 N 
ATOM      2  C   UNL     1       7.944   8.048  17.849  0.00  0.00    +0.000 A 
ATOM      3  N   UNL     1       8.233   7.276  18.889  0.00  0.00    +0.000 NA
ATOM      4  C   UNL     1       7.557   6.124  18.996  0.00  0.00    +0.000 A 
ATOM      5  N   UNL     1       8.003   5.319  20.043  0.00  0.00    +0.000 N 
ATOM      6  C   UNL     1       6.576   5.703  18.075  0.00  0.00    +0.000 A 
ATOM      7  C   UNL     1       5.759   4.525  18.119  0.00  0.00    +0.000 A 
ATOM      8 CL   UNL     1       5.749   3.485  19.527  0.00  0.00    +0.000 Cl
ATOM      9  C   UNL     1       4.854   4.190  17.082  0.00  0.00    +0.000 A 
ATOM     10  C   UNL     1       4.790   5.057  15.993  0.00  0.00    +0.000 A 
ATOM     11  C   UNL     1       5.547   6.234  15.973  0.00  0.00    +0.000 A 
ATOM     12  C   UNL     1       6.425   6.575  16.993  0.00  0.00    +0.000 A 
ATOM     13  N   UNL     1       7.092   7.726  16.879  0.00  0.00    +0.000 NA
ATOM     14  H   UNL     1       9.489   9.194  18.252  0.00  0.00    +0.000 HD
ATOM     15  H   UNL     1       8.661   9.537  16.776  0.00  0.00    +0.000 HD
ATOM     16  H   UNL     1       8.650   5.852  20.616  0.00  0.00    +0.000 HD
ATOM     17  H   UNL     1       7.247   4.894  20.570  0.00  0.00    +0.000 HD
ENDROOT
BRANCH   9  18
ATOM     18  N   UNL     1       4.179   2.964  17.107  0.00  0.00    +0.000 N 
ATOM     19  H   UNL     1       4.623   2.318  17.763  0.00  0.00    +0.000 HD
BRANCH  18  20
ATOM     20  C   UNL     1       2.729   2.897  17.179  0.00  0.00    +0.000 C 
BRANCH  20  21
ATOM     21  C   UNL     1       2.293   3.270  18.581  0.00  0.00    +0.000 A 
ATOM     22  C   UNL     1       2.043   2.287  19.550  0.00  0.00    +0.000 A 
ATOM     23  C   UNL     1       1.672   2.649  20.850  0.00  0.00    +0.000 A 
ATOM     24  C   UNL     1       1.537   3.994  21.191  0.00  0.00    +0.000 A 
ATOM     25  C   UNL     1       1.769   4.975  20.230  0.00  0.00    +0.000 A 
ATOM     26 BR   UNL     1       1.570   6.800  20.684  0.00  0.00    +0.000 Br
ATOM     27  C   UNL     1       2.144   4.623  18.934  0.00  0.00    +0.000 A 
ENDBRANCH  20  21
ENDBRANCH  18  20
ENDBRANCH   9  18
TORSDOF 3
ENDMDL
MODEL 5
REMARK VINA RESULT:      -7.6      2.757      3.733
REMARK  Name = 
REMARK  3 active torsions:
REMARK  status: ('A' for Active; 'I' for Inactive)
REMARK    1  A    between atoms: C_9  and  N_10
REMARK    2  A    between atoms: N_10  and  C_11
REMARK    3  A    between atoms: C_11  and  C_12
REMARK                            x       y       z     vdW  Elec       q    Type
REMARK                         _______ _______ _______ _____ _____    ______ ____
ROOT
ATOM      1  N   UNL     1       1.036   2.285  22.323  0.00  0.00    +0.000 N 
ATOM      2  C   UNL     1       1.670   2.976  21.311  0.00  0.00    +0.000 A 
ATOM      3  N   UNL     1       1.677   4.300  21.388  0.00  0.00    +0.000 NA
ATOM      4  C   UNL     1       2.316   4.961  20.412  0.00  0.00    +0.000 A 
ATOM      5  N   UNL     1       2.174   6.345  20.501  0.00  0.00    +0.000 N 
ATOM      6  C   UNL     1       2.964   4.329  19.332  0.00  0.00    +0.000 A 
ATOM      7  C   UNL     1       3.717   4.929  18.269  0.00  0.00    +0.000 A 
ATOM      8 CL   UNL     1       4.110   6.635  18.292  0.00  0.00    +0.000 Cl
ATOM      9  C   UNL     1       4.262   4.171  17.203  0.00  0.00    +0.000 A 
ATOM     10  C   UNL     1       4.029   2.798  17.218  0.00  0.00    +0.000 A 
ATOM     11  C   UNL     1       3.340   2.204  18.283  0.00  0.00    +0.000 A 
ATOM     12  C   UNL     1       2.816   2.939  19.337  0.00  0.00    +0.000 A 
ATOM     13  N   UNL     1       2.184   2.272  20.306  0.00  0.00    +0.000 NA
ATOM     14  H   UNL     1       0.354   2.883  22.768  0.00  0.00    +0.000 HD
ATOM     15  H   UNL     1       0.717   1.389  21.985  0.00  0.00    +0.000 HD
ATOM     16  H   UNL     1       1.745   6.576  21.391  0.00  0.00    +0.000 HD
ATOM     17  H   UNL     1       3.037   6.847  20.322  0.00  0.00    +0.000 HD
ENDROOT
BRANCH   9  18
ATOM     18  N   UNL     1       4.872   4.818  16.122  0.00  0.00    +0.000 N 
ATOM     19  H   UNL     1       4.450   5.734  15.961  0.00  0.00    +0.000 HD
BRANCH  18  20
ATOM     20  C   UNL     1       6.318   4.855  15.977  0.00  0.00    +0.000 C 
BRANCH  20  21
ATOM     21  C   UNL     1       6.666   4.683  14.514  0.00  0.00    +0.000 A 
ATOM     22  C   UNL     1       7.635   5.489  13.898  0.00  0.00    +0.000 A 
ATOM     23  C   UNL     1       7.969   5.297  12.553  0.00  0.00    +0.000 A 
ATOM     24  C   UNL     1       7.332   4.305  11.808  0.00  0.00    +0.000 A 
ATOM     25  C   UNL     1       6.358   3.510  12.409  0.00  0.00    +0.000 A 
ATOM     26 BR   UNL     1       5.480   2.175  11.398  0.00  0.00    +0.000 Br
ATOM     27  C   UNL     1       6.025   3.692  13.750  0.00  0.00    +0.000 A 
ENDBRANCH  20  21
ENDBRANCH  18  20
ENDBRANCH   9  18
TORSDOF 3
ENDMDL
MODEL 6
REMARK VINA RESULT:      -7.6      4.415      6.743
REMARK  Name = 
REMARK  3 active torsions:
REMARK  status: ('A' for Active; 'I' for Inactive)
REMARK    1  A    between atoms: C_9  and  N_10
REMARK    2  A    between atoms: N_10  and  C_11
REMARK    3  A    between atoms: C_11  and  C_12
REMARK                            x       y       z     vdW  Elec       q    Type
REMARK                         _______ _______ _______ _____ _____    ______ ____
ROOT
ATOM      1  N   UNL     1       3.888   0.881  18.208  0.00  0.00    +0.000 N 
ATOM      2  C   UNL     1       3.667   2.235  18.358  0.00  0.00    +0.000 A 
ATOM      3  N   UNL     1       4.237   3.047  17.479  0.00  0.00    +0.000 NA
ATOM      4  C   UNL     1       3.997   4.359  17.619  0.00  0.00    +0.000 A 
ATOM      5  N   UNL     1       4.726   5.149  16.733  0.00  0.00    +0.000 N 
ATOM      6  C   UNL     1       3.186   4.902  18.636  0.00  0.00    +0.000 A 
ATOM      7  C   UNL     1       2.820   6.272  18.848  0.00  0.00    +0.000 A 
ATOM      8 CL   UNL     1       3.213   7.505  17.668  0.00  0.00    +0.000 Cl
ATOM      9  C   UNL     1       2.047   6.688  19.960  0.00  0.00    +0.000 A 
ATOM     10  C   UNL     1       1.654   5.702  20.862  0.00  0.00    +0.000 A 
ATOM     11  C   UNL     1       1.965   4.357  20.629  0.00  0.00    +0.000 A 
ATOM     12  C   UNL     1       2.710   3.942  19.533  0.00  0.00    +0.000 A 
ATOM     13  N   UNL     1       2.941   2.634  19.400  0.00  0.00    +0.000 NA
ATOM     14  H   UNL     1       4.743   0.732  17.690  0.00  0.00    +0.000 HD
ATOM     15  H   UNL     1       3.797   0.413  19.099  0.00  0.00    +0.000 HD
ATOM     16  H   UNL     1       5.173   4.550  16.046  0.00  0.00    +0.000 HD
ATOM     17  H   UNL     1       4.179   5.900  16.324  0.00  0.00    +0.000 HD
ENDROOT
BRANCH   9  18
ATOM     18  N   UNL     1       1.831   8.051  20.195  0.00  0.00    +0.000 N 
ATOM     19  H   UNL     1       1.475   8.512  19.355  0.00  0.00    +0.000 HD
BRANCH  18  20
ATOM     20  C   UNL     1       1.157   8.517  21.396  0.00  0.00    +0.000 C 
BRANCH  20  21
ATOM     21  C   UNL     1       0.271   9.690  21.034  0.00  0.00    +0.000 A 
ATOM     22  C   UNL     1      -0.052   9.972  19.699  0.00  0.00    +0.000 A 
ATOM     23  C   UNL     1      -0.898  11.040  19.383  0.00  0.00    +0.000 A 
ATOM     24  C   UNL     1      -1.421  11.843  20.395  0.00  0.00    +0.000 A 
ATOM     25  C   UNL     1      -1.092  11.580  21.723  0.00  0.00    +0.000 A 
ATOM     26 BR   UNL     1      -1.785  12.677  23.098  0.00  0.00    +0.000 Br
ATOM     27  C   UNL     1      -0.254  10.513  22.046  0.00  0.00    +0.000 A 
ENDBRANCH  20  21
ENDBRANCH  18  20
ENDBRANCH   9  18
TORSDOF 3
ENDMDL
MODEL 7
REMARK VINA RESULT:      -7.6      4.259      6.672
REMARK  Name = 
REMARK  3 active torsions:
REMARK  status: ('A' for Active; 'I' for Inactive)
REMARK    1  A    between atoms: C_9  and  N_10
REMARK    2  A    between atoms: N_10  and  C_11
REMARK    3  A    between atoms: C_11  and  C_12
REMARK                            x       y       z     vdW  Elec       q    Type
REMARK                         _______ _______ _______ _____ _____    ______ ____
ROOT
ATOM      1  N   UNL     1       3.924   0.929  18.400  0.00  0.00    +0.000 N 
ATOM      2  C   UNL     1       3.670   2.279  18.527  0.00  0.00    +0.000 A 
ATOM      3  N   UNL     1       4.209   3.089  17.626  0.00  0.00    +0.000 NA
ATOM      4  C   UNL     1       3.936   4.397  17.744  0.00  0.00    +0.000 A 
ATOM      5  N   UNL     1       4.635   5.189  16.835  0.00  0.00    +0.000 N 
ATOM      6  C   UNL     1       3.122   4.938  18.760  0.00  0.00    +0.000 A 
ATOM      7  C   UNL     1       2.722   6.302  18.949  0.00  0.00    +0.000 A 
ATOM      8 CL   UNL     1       3.070   7.521  17.743  0.00  0.00    +0.000 Cl
ATOM      9  C   UNL     1       1.950   6.718  20.061  0.00  0.00    +0.000 A 
ATOM     10  C   UNL     1       1.592   5.740  20.987  0.00  0.00    +0.000 A 
ATOM     11  C   UNL     1       1.936   4.399  20.775  0.00  0.00    +0.000 A 
ATOM     12  C   UNL     1       2.680   3.983  19.680  0.00  0.00    +0.000 A 
ATOM     13  N   UNL     1       2.945   2.679  19.569  0.00  0.00    +0.000 NA
ATOM     14  H   UNL     1       4.778   0.792  17.876  0.00  0.00    +0.000 HD
ATOM     15  H   UNL     1       3.855   0.476  19.300  0.00  0.00    +0.000 HD
ATOM     16  H   UNL     1       5.090   4.588  16.155  0.00  0.00    +0.000 HD
ATOM     17  H   UNL     1       4.064   5.916  16.418  0.00  0.00    +0.000 HD
ENDROOT
BRANCH   9  18
ATOM     18  N   UNL     1       1.700   8.080  20.273  0.00  0.00    +0.000 N 
ATOM     19  H   UNL     1       1.122   8.464  19.523  0.00  0.00    +0.000 HD
BRANCH  18  20
ATOM     20  C   UNL     1       1.301   8.585  21.577  0.00  0.00    +0.000 C 
BRANCH  20  21
ATOM     21  C   UNL     1       0.302   9.705  21.380  0.00  0.00    +0.000 A 
ATOM     22  C   UNL     1      -0.236  10.399  22.475  0.00  0.00    +0.000 A 
ATOM     23  C   UNL     1      -1.134  11.453  22.276  0.00  0.00    +0.000 A 
ATOM     24  C   UNL     1      -1.511  11.818  20.984  0.00  0.00    +0.000 A 
ATOM     25  C   UNL     1      -0.993  11.124  19.893  0.00  0.00    +0.000 A 
ATOM     26 BR   UNL     1      -1.516  11.604  18.140  0.00  0.00    +0.000 Br
ATOM     27  C   UNL     1      -0.093  10.076  20.083  0.00  0.00    +0.000 A 
ENDBRANCH  20  21
ENDBRANCH  18  20
ENDBRANCH   9  18
TORSDOF 3
ENDMDL
MODEL 8
REMARK VINA RESULT:      -7.6      4.645      7.109
REMARK  Name = 
REMARK  3 active torsions:
REMARK  status: ('A' for Active; 'I' for Inactive)
REMARK    1  A    between atoms: C_9  and  N_10
REMARK    2  A    between atoms: N_10  and  C_11
REMARK    3  A    between atoms: C_11  and  C_12
REMARK                            x       y       z     vdW  Elec       q    Type
REMARK                         _______ _______ _______ _____ _____    ______ ____
ROOT
ATOM      1  N   UNL     1      -2.586  13.234  20.584  0.00  0.00    +0.000 N 
ATOM      2  C   UNL     1      -1.750  12.173  20.302  0.00  0.00    +0.000 A 
ATOM      3  N   UNL     1      -1.590  11.846  19.026  0.00  0.00    +0.000 NA
ATOM      4  C   UNL     1      -0.758  10.829  18.760  0.00  0.00    +0.000 A 
ATOM      5  N   UNL     1      -0.739  10.472  17.413  0.00  0.00    +0.000 N 
ATOM      6  C   UNL     1      -0.062  10.107  19.750  0.00  0.00    +0.000 A 
ATOM      7  C   UNL     1       0.887   9.045  19.579  0.00  0.00    +0.000 A 
ATOM      8 CL   UNL     1       1.481   8.613  17.989  0.00  0.00    +0.000 Cl
ATOM      9  C   UNL     1       1.464   8.358  20.675  0.00  0.00    +0.000 A 
ATOM     10  C   UNL     1       1.064   8.752  21.950  0.00  0.00    +0.000 A 
ATOM     11  C   UNL     1       0.180   9.823  22.121  0.00  0.00    +0.000 A 
ATOM     12  C   UNL     1      -0.378  10.509  21.051  0.00  0.00    +0.000 A 
ATOM     13  N   UNL     1      -1.204  11.522  21.326  0.00  0.00    +0.000 NA
ATOM     14  H   UNL     1      -3.240  13.363  19.825  0.00  0.00    +0.000 HD
ATOM     15  H   UNL     1      -2.967  13.137  21.514  0.00  0.00    +0.000 HD
ATOM     16  H   UNL     1      -1.245  11.171  16.879  0.00  0.00    +0.000 HD
ATOM     17  H   UNL     1       0.195  10.288  17.061  0.00  0.00    +0.000 HD
ENDROOT
BRANCH   9  18
ATOM     18  N   UNL     1       2.280   7.242  20.454  0.00  0.00    +0.000 N 
ATOM     19  H   UNL     1       3.208   7.386  20.856  0.00  0.00    +0.000 HD
BRANCH  18  20
ATOM     20  C   UNL     1       1.794   5.891  20.678  0.00  0.00    +0.000 C 
BRANCH  20  21
ATOM     21  C   UNL     1       2.159   5.037  19.483  0.00  0.00    +0.000 A 
ATOM     22  C   UNL     1       1.423   3.886  19.159  0.00  0.00    +0.000 A 
ATOM     23  C   UNL     1       1.752   3.126  18.033  0.00  0.00    +0.000 A 
ATOM     24  C   UNL     1       2.824   3.499  17.224  0.00  0.00    +0.000 A 
ATOM     25  C   UNL     1       3.569   4.631  17.546  0.00  0.00    +0.000 A 
ATOM     26 BR   UNL     1       5.035   5.132  16.461  0.00  0.00    +0.000 Br
ATOM     27  C   UNL     1       3.243   5.398  18.664  0.00  0.00    +0.000 A 
ENDBRANCH  20  21
ENDBRANCH  18  20
ENDBRANCH   9  18
TORSDOF 3
ENDMDL
MODEL 9
REMARK VINA RESULT:      -7.5      4.327      5.939
REMARK  Name = 
REMARK  3 active torsions:
REMARK  status: ('A' for Active; 'I' for Inactive)
REMARK    1  A    between atoms: C_9  and  N_10
REMARK    2  A    between atoms: N_10  and  C_11
REMARK    3  A    between atoms: C_11  and  C_12
REMARK                            x       y       z     vdW  Elec       q    Type
REMARK                         _______ _______ _______ _____ _____    ______ ____
ROOT
ATOM      1  N   UNL     1       4.000   0.755  18.343  0.00  0.00    +0.000 N 
ATOM      2  C   UNL     1       3.517   2.016  18.628  0.00  0.00    +0.000 A 
ATOM      3  N   UNL     1       2.575   2.112  19.557  0.00  0.00    +0.000 NA
ATOM      4  C   UNL     1       2.129   3.344  19.844  0.00  0.00    +0.000 A 
ATOM      5  N   UNL     1       1.061   3.347  20.739  0.00  0.00    +0.000 N 
ATOM      6  C   UNL     1       2.602   4.514  19.216  0.00  0.00    +0.000 A 
ATOM      7  C   UNL     1       2.238   5.876  19.479  0.00  0.00    +0.000 A 
ATOM      8 CL   UNL     1       1.224   6.292  20.845  0.00  0.00    +0.000 Cl
ATOM      9  C   UNL     1       2.747   6.957  18.720  0.00  0.00    +0.000 A 
ATOM     10  C   UNL     1       3.624   6.646  17.683  0.00  0.00    +0.000 A 
ATOM     11  C   UNL     1       4.022   5.322  17.459  0.00  0.00    +0.000 A 
ATOM     12  C   UNL     1       3.537   4.260  18.209  0.00  0.00    +0.000 A 
ATOM     13  N   UNL     1       3.990   3.037  17.919  0.00  0.00    +0.000 NA
ATOM     14  H   UNL     1       3.313   0.061  18.603  0.00  0.00    +0.000 HD
ATOM     15  H   UNL     1       4.355   0.725  17.397  0.00  0.00    +0.000 HD
ATOM     16  H   UNL     1       0.946   2.412  21.119  0.00  0.00    +0.000 HD
ATOM     17  H   UNL     1       1.137   4.068  21.449  0.00  0.00    +0.000 HD
ENDROOT
BRANCH   9  18
ATOM     18  N   UNL     1       2.259   8.253  18.927  0.00  0.00    +0.000 N 
ATOM     19  H   UNL     1       2.750   8.707  19.700  0.00  0.00    +0.000 HD
BRANCH  18  20
ATOM     20  C   UNL     1       2.033   9.166  17.818  0.00  0.00    +0.000 C 
BRANCH  20  21
ATOM     21  C   UNL     1       0.986  10.180  18.228  0.00  0.00    +0.000 A 
ATOM     22  C   UNL     1      -0.383   9.909  18.090  0.00  0.00    +0.000 A 
ATOM     23  C   UNL     1      -1.338  10.844  18.502  0.00  0.00    +0.000 A 
ATOM     24  C   UNL     1      -0.936  12.062  19.048  0.00  0.00    +0.000 A 
ATOM     25  C   UNL     1       0.422  12.346  19.176  0.00  0.00    +0.000 A 
ATOM     26 BR   UNL     1       0.973  14.004  19.900  0.00  0.00    +0.000 Br
ATOM     27  C   UNL     1       1.380  11.416  18.772  0.00  0.00    +0.000 A 
ENDBRANCH  20  21
ENDBRANCH  18  20
ENDBRANCH   9  18
TORSDOF 3
ENDMDL
