MODEL 1
REMARK VINA RESULT:      -6.2      0.000      0.000
REMARK  Name = 
REMARK  9 active torsions:
REMARK  status: ('A' for Active; 'I' for Inactive)
REMARK    1  A    between atoms: C_1  and  C_2
REMARK    2  A    between atoms: C_2  and  N_3
REMARK    3  A    between atoms: N_3  and  C_4
REMARK    4  A    between atoms: C_4  and  C_5
REMARK    5  A    between atoms: C_6  and  C_8
REMARK    6  A    between atoms: C_8  and  N_9
REMARK    7  A    between atoms: N_9  and  C_10
REMARK    8  A    between atoms: C_14  and  C_15
REMARK    9  A    between atoms: C_17  and  C_18
REMARK                            x       y       z     vdW  Elec       q    Type
REMARK                         _______ _______ _______ _____ _____    ______ ____
ROOT
ATOM      1  N   UNL     1       3.124   5.089  18.669  0.00  0.00    +0.000 N 
ATOM      2  C   UNL     1       4.406   5.006  18.145  0.00  0.00    +0.000 A 
ATOM      3  N   UNL     1       5.438   5.464  18.879  0.00  0.00    +0.000 NA
ATOM      4  C   UNL     1       6.690   5.332  18.386  0.00  0.00    +0.000 A 
ATOM      5  C   UNL     1       7.825   5.780  19.258  0.00  0.00    +0.000 C 
ATOM      6  C   UNL     1       6.941   4.796  17.144  0.00  0.00    +0.000 A 
ATOM      7  C   UNL     1       5.841   4.378  16.431  0.00  0.00    +0.000 A 
ATOM      8  C   UNL     1       5.988   3.794  15.057  0.00  0.00    +0.000 C 
ATOM      9  N   UNL     1       4.586   4.467  16.924  0.00  0.00    +0.000 NA
ENDROOT
BRANCH   1  10
ATOM     10  C   UNL     1       2.025   4.556  17.909  0.00  0.00    +0.000 C 
ATOM     11  N   UNL     1       1.182   4.128  17.237  0.00  0.00    +0.000 NA
ENDBRANCH   1  10
BRANCH   1  12
ATOM     12  C   UNL     1       2.821   6.187  19.578  0.00  0.00    +0.000 C 
BRANCH  12  14
ATOM     13  N   UNL     1       1.775   8.473  19.484  0.00  0.00    +0.000 N 
ATOM     14  C   UNL     1       2.555   7.502  18.820  0.00  0.00    +0.000 C 
ATOM     15  O   UNL     1       3.001   7.702  17.688  0.00  0.00    +0.000 OA
BRANCH  13  17
ATOM     16  C   UNL     1       0.042   9.591  18.069  0.00  0.00    +0.000 C 
ATOM     17  C   UNL     1       1.413   9.676  18.724  0.00  0.00    +0.000 C 
ENDBRANCH  13  17
BRANCH  13  18
ATOM     18  C   UNL     1       1.278   8.267  20.852  0.00  0.00    +0.000 C 
ATOM     19  C   UNL     1       0.929   9.487  21.691  0.00  0.00    +0.000 C 
ENDBRANCH  13  18
ENDBRANCH  12  14
ENDBRANCH   1  12
TORSDOF 5
ENDMDL
MODEL 2
REMARK VINA RESULT:      -6.1      1.334      1.972
REMARK  Name = 
REMARK  9 active torsions:
REMARK  status: ('A' for Active; 'I' for Inactive)
REMARK    1  A    between atoms: C_1  and  C_2
REMARK    2  A    between atoms: C_2  and  N_3
REMARK    3  A    between atoms: N_3  and  C_4
REMARK    4  A    between atoms: C_4  and  C_5
REMARK    5  A    between atoms: C_6  and  C_8
REMARK    6  A    between atoms: C_8  and  N_9
REMARK    7  A    between atoms: N_9  and  C_10
REMARK    8  A    between atoms: C_14  and  C_15
REMARK    9  A    between atoms: C_17  and  C_18
REMARK                            x       y       z     vdW  Elec       q    Type
REMARK                         _______ _______ _______ _____ _____    ______ ____
ROOT
ATOM      1  N   UNL     1       3.065   5.997  17.983  0.00  0.00    +0.000 N 
ATOM      2  C   UNL     1       4.326   5.888  17.412  0.00  0.00    +0.000 A 
ATOM      3  N   UNL     1       5.239   6.843  17.672  0.00  0.00    +0.000 NA
ATOM      4  C   UNL     1       6.482   6.704  17.157  0.00  0.00    +0.000 A 
ATOM      5  C   UNL     1       7.500   7.742  17.526  0.00  0.00    +0.000 C 
ATOM      6  C   UNL     1       6.828   5.655  16.338  0.00  0.00    +0.000 A 
ATOM      7  C   UNL     1       5.839   4.731  16.085  0.00  0.00    +0.000 A 
ATOM      8  C   UNL     1       6.093   3.554  15.192  0.00  0.00    +0.000 C 
ATOM      9  N   UNL     1       4.604   4.834  16.623  0.00  0.00    +0.000 NA
ENDROOT
BRANCH   1  10
ATOM     10  C   UNL     1       2.102   4.954  17.748  0.00  0.00    +0.000 C 
ATOM     11  N   UNL     1       1.373   4.084  17.510  0.00  0.00    +0.000 NA
ENDBRANCH   1  10
BRANCH   1  12
ATOM     12  C   UNL     1       2.538   7.330  18.239  0.00  0.00    +0.000 C 
BRANCH  12  14
ATOM     13  N   UNL     1       1.450   8.716  20.036  0.00  0.00    +0.000 N 
ATOM     14  C   UNL     1       2.031   7.478  19.687  0.00  0.00    +0.000 C 
ATOM     15  O   UNL     1       2.124   6.560  20.506  0.00  0.00    +0.000 OA
BRANCH  13  17
ATOM     16  C   UNL     1      -0.387   8.609  21.730  0.00  0.00    +0.000 C 
ATOM     17  C   UNL     1       1.078   8.910  21.443  0.00  0.00    +0.000 C 
ENDBRANCH  13  17
BRANCH  13  18
ATOM     18  C   UNL     1       1.289   9.801  19.056  0.00  0.00    +0.000 C 
ATOM     19  C   UNL     1      -0.050   9.951  18.351  0.00  0.00    +0.000 C 
ENDBRANCH  13  18
ENDBRANCH  12  14
ENDBRANCH   1  12
TORSDOF 5
ENDMDL
MODEL 3
REMARK VINA RESULT:      -6.0      3.371      5.422
REMARK  Name = 
REMARK  9 active torsions:
REMARK  status: ('A' for Active; 'I' for Inactive)
REMARK    1  A    between atoms: C_1  and  C_2
REMARK    2  A    between atoms: C_2  and  N_3
REMARK    3  A    between atoms: N_3  and  C_4
REMARK    4  A    between atoms: C_4  and  C_5
REMARK    5  A    between atoms: C_6  and  C_8
REMARK    6  A    between atoms: C_8  and  N_9
REMARK    7  A    between atoms: N_9  and  C_10
REMARK    8  A    between atoms: C_14  and  C_15
REMARK    9  A    between atoms: C_17  and  C_18
REMARK                            x       y       z     vdW  Elec       q    Type
REMARK                         _______ _______ _______ _____ _____    ______ ____
ROOT
ATOM      1  N   UNL     1       5.840   5.029  16.168  0.00  0.00    +0.000 N 
ATOM      2  C   UNL     1       6.276   4.789  14.872  0.00  0.00    +0.000 A 
ATOM      3  N   UNL     1       5.583   3.927  14.104  0.00  0.00    +0.000 NA
ATOM      4  C   UNL     1       5.981   3.738  12.825  0.00  0.00    +0.000 A 
ATOM      5  C   UNL     1       5.147   2.832  11.970  0.00  0.00    +0.000 C 
ATOM      6  C   UNL     1       7.094   4.353  12.301  0.00  0.00    +0.000 A 
ATOM      7  C   UNL     1       7.776   5.197  13.148  0.00  0.00    +0.000 A 
ATOM      8  C   UNL     1       9.016   5.909  12.694  0.00  0.00    +0.000 C 
ATOM      9  N   UNL     1       7.370   5.426  14.416  0.00  0.00    +0.000 NA
ENDROOT
BRANCH   1  10
ATOM     10  C   UNL     1       6.548   5.987  16.974  0.00  0.00    +0.000 C 
ATOM     11  N   UNL     1       7.111   6.714  17.680  0.00  0.00    +0.000 NA
ENDBRANCH   1  10
BRANCH   1  12
ATOM     12  C   UNL     1       5.157   3.954  16.874  0.00  0.00    +0.000 C 
BRANCH  12  14
ATOM     13  N   UNL     1       3.174   3.525  18.363  0.00  0.00    +0.000 N 
ATOM     14  C   UNL     1       3.836   4.432  17.507  0.00  0.00    +0.000 C 
ATOM     15  O   UNL     1       3.374   5.554  17.282  0.00  0.00    +0.000 OA
BRANCH  13  17
ATOM     16  C   UNL     1       0.935   2.746  19.162  0.00  0.00    +0.000 C 
ATOM     17  C   UNL     1       1.856   3.923  18.872  0.00  0.00    +0.000 C 
ENDBRANCH  13  17
BRANCH  13  18
ATOM     18  C   UNL     1       3.737   2.204  18.679  0.00  0.00    +0.000 C 
ATOM     19  C   UNL     1       4.478   2.025  19.995  0.00  0.00    +0.000 C 
ENDBRANCH  13  18
ENDBRANCH  12  14
ENDBRANCH   1  12
TORSDOF 5
ENDMDL
MODEL 4
REMARK VINA RESULT:      -6.0      2.205      4.561
REMARK  Name = 
REMARK  9 active torsions:
REMARK  status: ('A' for Active; 'I' for Inactive)
REMARK    1  A    between atoms: C_1  and  C_2
REMARK    2  A    between atoms: C_2  and  N_3
REMARK    3  A    between atoms: N_3  and  C_4
REMARK    4  A    between atoms: C_4  and  C_5
REMARK    5  A    between atoms: C_6  and  C_8
REMARK    6  A    between atoms: C_8  and  N_9
REMARK    7  A    between atoms: N_9  and  C_10
REMARK    8  A    between atoms: C_14  and  C_15
REMARK    9  A    between atoms: C_17  and  C_18
REMARK                            x       y       z     vdW  Elec       q    Type
REMARK                         _______ _______ _______ _____ _____    ______ ____
ROOT
ATOM      1  N   UNL     1       2.986   6.169  17.697  0.00  0.00    +0.000 N 
ATOM      2  C   UNL     1       4.302   6.022  17.282  0.00  0.00    +0.000 A 
ATOM      3  N   UNL     1       4.640   4.926  16.577  0.00  0.00    +0.000 NA
ATOM      4  C   UNL     1       5.912   4.813  16.129  0.00  0.00    +0.000 A 
ATOM      5  C   UNL     1       6.241   3.620  15.281  0.00  0.00    +0.000 C 
ATOM      6  C   UNL     1       6.879   5.749  16.412  0.00  0.00    +0.000 A 
ATOM      7  C   UNL     1       6.476   6.828  17.165  0.00  0.00    +0.000 A 
ATOM      8  C   UNL     1       7.447   7.904  17.553  0.00  0.00    +0.000 C 
ATOM      9  N   UNL     1       5.201   6.975  17.588  0.00  0.00    +0.000 NA
ENDROOT
BRANCH   1  10
ATOM     10  C   UNL     1       2.610   7.362  18.408  0.00  0.00    +0.000 C 
ATOM     11  N   UNL     1       2.284   8.352  18.918  0.00  0.00    +0.000 NA
ENDBRANCH   1  10
BRANCH   1  12
ATOM     12  C   UNL     1       2.214   4.967  17.979  0.00  0.00    +0.000 C 
BRANCH  12  14
ATOM     13  N   UNL     1       2.895   3.634  20.002  0.00  0.00    +0.000 N 
ATOM     14  C   UNL     1       2.113   4.693  19.492  0.00  0.00    +0.000 C 
ATOM     15  O   UNL     1       1.386   5.365  20.228  0.00  0.00    +0.000 OA
BRANCH  13  17
ATOM     16  C   UNL     1       1.471   2.443  21.679  0.00  0.00    +0.000 C 
ATOM     17  C   UNL     1       2.712   3.285  21.416  0.00  0.00    +0.000 C 
ENDBRANCH  13  17
BRANCH  13  18
ATOM     18  C   UNL     1       3.802   2.856  19.145  0.00  0.00    +0.000 C 
ATOM     19  C   UNL     1       3.273   1.592  18.485  0.00  0.00    +0.000 C 
ENDBRANCH  13  18
ENDBRANCH  12  14
ENDBRANCH   1  12
TORSDOF 5
ENDMDL
MODEL 5
REMARK VINA RESULT:      -6.0      1.621      6.133
REMARK  Name = 
REMARK  9 active torsions:
REMARK  status: ('A' for Active; 'I' for Inactive)
REMARK    1  A    between atoms: C_1  and  C_2
REMARK    2  A    between atoms: C_2  and  N_3
REMARK    3  A    between atoms: N_3  and  C_4
REMARK    4  A    between atoms: C_4  and  C_5
REMARK    5  A    between atoms: C_6  and  C_8
REMARK    6  A    between atoms: C_8  and  N_9
REMARK    7  A    between atoms: N_9  and  C_10
REMARK    8  A    between atoms: C_14  and  C_15
REMARK    9  A    between atoms: C_17  and  C_18
REMARK                            x       y       z     vdW  Elec       q    Type
REMARK                         _______ _______ _______ _____ _____    ______ ____
ROOT
ATOM      1  N   UNL     1       2.762   5.646  19.864  0.00  0.00    +0.000 N 
ATOM      2  C   UNL     1       2.131   6.881  19.925  0.00  0.00    +0.000 A 
ATOM      3  N   UNL     1       2.387   7.788  18.964  0.00  0.00    +0.000 NA
ATOM      4  C   UNL     1       1.729   8.970  19.000  0.00  0.00    +0.000 A 
ATOM      5  C   UNL     1       1.976   9.930  17.875  0.00  0.00    +0.000 C 
ATOM      6  C   UNL     1       0.850   9.295  20.007  0.00  0.00    +0.000 A 
ATOM      7  C   UNL     1       0.658   8.336  20.976  0.00  0.00    +0.000 A 
ATOM      8  C   UNL     1      -0.262   8.584  22.134  0.00  0.00    +0.000 C 
ATOM      9  N   UNL     1       1.278   7.137  20.935  0.00  0.00    +0.000 NA
ENDROOT
BRANCH   1  10
ATOM     10  C   UNL     1       2.453   4.656  20.861  0.00  0.00    +0.000 C 
ATOM     11  N   UNL     1       2.141   3.847  21.630  0.00  0.00    +0.000 NA
ENDBRANCH   1  10
BRANCH   1  12
ATOM     12  C   UNL     1       4.086   5.579  19.262  0.00  0.00    +0.000 C 
BRANCH  12  14
ATOM     13  N   UNL     1       5.329   4.495  17.361  0.00  0.00    +0.000 N 
ATOM     14  C   UNL     1       4.074   4.792  17.937  0.00  0.00    +0.000 C 
ATOM     15  O   UNL     1       3.023   4.433  17.402  0.00  0.00    +0.000 OA
BRANCH  13  17
ATOM     16  C   UNL     1       5.600   4.821  14.896  0.00  0.00    +0.000 C 
ATOM     17  C   UNL     1       5.325   3.855  16.040  0.00  0.00    +0.000 C 
ENDBRANCH  13  17
BRANCH  13  18
ATOM     18  C   UNL     1       6.591   4.874  18.013  0.00  0.00    +0.000 C 
ATOM     19  C   UNL     1       7.212   6.219  17.669  0.00  0.00    +0.000 C 
ENDBRANCH  13  18
ENDBRANCH  12  14
ENDBRANCH   1  12
TORSDOF 5
ENDMDL
MODEL 6
REMARK VINA RESULT:      -5.9      2.814      5.101
REMARK  Name = 
REMARK  9 active torsions:
REMARK  status: ('A' for Active; 'I' for Inactive)
REMARK    1  A    between atoms: C_1  and  C_2
REMARK    2  A    between atoms: C_2  and  N_3
REMARK    3  A    between atoms: N_3  and  C_4
REMARK    4  A    between atoms: C_4  and  C_5
REMARK    5  A    between atoms: C_6  and  C_8
REMARK    6  A    between atoms: C_8  and  N_9
REMARK    7  A    between atoms: N_9  and  C_10
REMARK    8  A    between atoms: C_14  and  C_15
REMARK    9  A    between atoms: C_17  and  C_18
REMARK                            x       y       z     vdW  Elec       q    Type
REMARK                         _______ _______ _______ _____ _____    ______ ____
ROOT
ATOM      1  N   UNL     1       5.600   5.000  15.970  0.00  0.00    +0.000 N 
ATOM      2  C   UNL     1       6.154   4.750  14.721  0.00  0.00    +0.000 A 
ATOM      3  N   UNL     1       5.599   3.799  13.946  0.00  0.00    +0.000 NA
ATOM      4  C   UNL     1       6.109   3.596  12.710  0.00  0.00    +0.000 A 
ATOM      5  C   UNL     1       5.423   2.586  11.838  0.00  0.00    +0.000 C 
ATOM      6  C   UNL     1       7.202   4.287  12.240  0.00  0.00    +0.000 A 
ATOM      7  C   UNL     1       7.742   5.220  13.095  0.00  0.00    +0.000 A 
ATOM      8  C   UNL     1       8.947   6.022  12.701  0.00  0.00    +0.000 C 
ATOM      9  N   UNL     1       7.221   5.463  14.318  0.00  0.00    +0.000 NA
ENDROOT
BRANCH   1  10
ATOM     10  C   UNL     1       6.159   6.049  16.781  0.00  0.00    +0.000 C 
ATOM     11  N   UNL     1       6.631   6.927  17.374  0.00  0.00    +0.000 NA
ENDBRANCH   1  10
BRANCH   1  12
ATOM     12  C   UNL     1       4.960   3.898  16.673  0.00  0.00    +0.000 C 
BRANCH  12  14
ATOM     13  N   UNL     1       3.573   4.672  18.624  0.00  0.00    +0.000 N 
ATOM     14  C   UNL     1       4.821   4.182  18.181  0.00  0.00    +0.000 C 
ATOM     15  O   UNL     1       5.751   3.991  18.967  0.00  0.00    +0.000 OA
BRANCH  13  17
ATOM     16  C   UNL     1       2.134   5.698  20.395  0.00  0.00    +0.000 C 
ATOM     17  C   UNL     1       3.470   5.063  20.036  0.00  0.00    +0.000 C 
ENDBRANCH  13  17
BRANCH  13  18
ATOM     18  C   UNL     1       2.441   4.859  17.705  0.00  0.00    +0.000 C 
ATOM     19  C   UNL     1       1.372   3.778  17.640  0.00  0.00    +0.000 C 
ENDBRANCH  13  18
ENDBRANCH  12  14
ENDBRANCH   1  12
TORSDOF 5
ENDMDL
MODEL 7
REMARK VINA RESULT:      -5.8      2.078      5.759
REMARK  Name = 
REMARK  9 active torsions:
REMARK  status: ('A' for Active; 'I' for Inactive)
REMARK    1  A    between atoms: C_1  and  C_2
REMARK    2  A    between atoms: C_2  and  N_3
REMARK    3  A    between atoms: N_3  and  C_4
REMARK    4  A    between atoms: C_4  and  C_5
REMARK    5  A    between atoms: C_6  and  C_8
REMARK    6  A    between atoms: C_8  and  N_9
REMARK    7  A    between atoms: N_9  and  C_10
REMARK    8  A    between atoms: C_14  and  C_15
REMARK    9  A    between atoms: C_17  and  C_18
REMARK                            x       y       z     vdW  Elec       q    Type
REMARK                         _______ _______ _______ _____ _____    ______ ____
ROOT
ATOM      1  N   UNL     1       2.829   4.131  20.072  0.00  0.00    +0.000 N 
ATOM      2  C   UNL     1       2.519   5.475  19.911  0.00  0.00    +0.000 A 
ATOM      3  N   UNL     1       3.030   6.136  18.855  0.00  0.00    +0.000 NA
ATOM      4  C   UNL     1       2.682   7.430  18.674  0.00  0.00    +0.000 A 
ATOM      5  C   UNL     1       3.204   8.119  17.448  0.00  0.00    +0.000 C 
ATOM      6  C   UNL     1       1.869   8.106  19.555  0.00  0.00    +0.000 A 
ATOM      7  C   UNL     1       1.407   7.382  20.630  0.00  0.00    +0.000 A 
ATOM      8  C   UNL     1       0.529   8.017  21.667  0.00  0.00    +0.000 C 
ATOM      9  N   UNL     1       1.714   6.078  20.806  0.00  0.00    +0.000 NA
ENDROOT
BRANCH   1  10
ATOM     10  C   UNL     1       2.244   3.409  21.171  0.00  0.00    +0.000 C 
ATOM     11  N   UNL     1       1.743   2.889  22.078  0.00  0.00    +0.000 NA
ENDBRANCH   1  10
BRANCH   1  12
ATOM     12  C   UNL     1       4.119   3.660  19.590  0.00  0.00    +0.000 C 
BRANCH  12  14
ATOM     13  N   UNL     1       5.248   4.156  17.396  0.00  0.00    +0.000 N 
ATOM     14  C   UNL     1       4.153   3.554  18.053  0.00  0.00    +0.000 C 
ATOM     15  O   UNL     1       3.269   2.969  17.421  0.00  0.00    +0.000 OA
BRANCH  13  17
ATOM     16  C   UNL     1       5.292   5.566  15.331  0.00  0.00    +0.000 C 
ATOM     17  C   UNL     1       5.226   4.167  15.928  0.00  0.00    +0.000 C 
ENDBRANCH  13  17
BRANCH  13  18
ATOM     18  C   UNL     1       6.333   4.813  18.140  0.00  0.00    +0.000 C 
ATOM     19  C   UNL     1       7.769   4.562  17.704  0.00  0.00    +0.000 C 
ENDBRANCH  13  18
ENDBRANCH  12  14
ENDBRANCH   1  12
TORSDOF 5
ENDMDL
MODEL 8
REMARK VINA RESULT:      -5.8      2.654      4.719
REMARK  Name = 
REMARK  9 active torsions:
REMARK  status: ('A' for Active; 'I' for Inactive)
REMARK    1  A    between atoms: C_1  and  C_2
REMARK    2  A    between atoms: C_2  and  N_3
REMARK    3  A    between atoms: N_3  and  C_4
REMARK    4  A    between atoms: C_4  and  C_5
REMARK    5  A    between atoms: C_6  and  C_8
REMARK    6  A    between atoms: C_8  and  N_9
REMARK    7  A    between atoms: N_9  and  C_10
REMARK    8  A    between atoms: C_14  and  C_15
REMARK    9  A    between atoms: C_17  and  C_18
REMARK                            x       y       z     vdW  Elec       q    Type
REMARK                         _______ _______ _______ _____ _____    ______ ____
ROOT
ATOM      1  N   UNL     1       3.309   5.059  17.501  0.00  0.00    +0.000 N 
ATOM      2  C   UNL     1       4.593   5.184  16.989  0.00  0.00    +0.000 A 
ATOM      3  N   UNL     1       4.908   4.520  15.860  0.00  0.00    +0.000 NA
ATOM      4  C   UNL     1       6.143   4.688  15.337  0.00  0.00    +0.000 A 
ATOM      5  C   UNL     1       6.441   3.998  14.038  0.00  0.00    +0.000 C 
ATOM      6  C   UNL     1       7.102   5.468  15.942  0.00  0.00    +0.000 A 
ATOM      7  C   UNL     1       6.726   6.092  17.109  0.00  0.00    +0.000 A 
ATOM      8  C   UNL     1       7.691   6.953  17.869  0.00  0.00    +0.000 C 
ATOM      9  N   UNL     1       5.484   5.966  17.626  0.00  0.00    +0.000 NA
ENDROOT
BRANCH   1  10
ATOM     10  C   UNL     1       2.954   5.805  18.679  0.00  0.00    +0.000 C 
ATOM     11  N   UNL     1       2.677   6.467  19.590  0.00  0.00    +0.000 NA
ENDBRANCH   1  10
BRANCH   1  12
ATOM     12  C   UNL     1       2.598   3.808  17.278  0.00  0.00    +0.000 C 
BRANCH  12  14
ATOM     13  N   UNL     1       2.395   2.525  19.433  0.00  0.00    +0.000 N 
ATOM     14  C   UNL     1       1.770   3.391  18.510  0.00  0.00    +0.000 C 
ATOM     15  O   UNL     1       0.618   3.793  18.686  0.00  0.00    +0.000 OA
BRANCH  13  17
ATOM     16  C   UNL     1       1.747   2.818  21.832  0.00  0.00    +0.000 C 
ATOM     17  C   UNL     1       1.575   2.025  20.543  0.00  0.00    +0.000 C 
ENDBRANCH  13  17
BRANCH  13  18
ATOM     18  C   UNL     1       3.785   2.077  19.261  0.00  0.00    +0.000 C 
ATOM     19  C   UNL     1       4.889   2.843  19.972  0.00  0.00    +0.000 C 
ENDBRANCH  13  18
ENDBRANCH  12  14
ENDBRANCH   1  12
TORSDOF 5
ENDMDL
MODEL 9
REMARK VINA RESULT:      -5.7      2.726      4.651
REMARK  Name = 
REMARK  9 active torsions:
REMARK  status: ('A' for Active; 'I' for Inactive)
REMARK    1  A    between atoms: C_1  and  C_2
REMARK    2  A    between atoms: C_2  and  N_3
REMARK    3  A    between atoms: N_3  and  C_4
REMARK    4  A    between atoms: C_4  and  C_5
REMARK    5  A    between atoms: C_6  and  C_8
REMARK    6  A    between atoms: C_8  and  N_9
REMARK    7  A    between atoms: N_9  and  C_10
REMARK    8  A    between atoms: C_14  and  C_15
REMARK    9  A    between atoms: C_17  and  C_18
REMARK                            x       y       z     vdW  Elec       q    Type
REMARK                         _______ _______ _______ _____ _____    ______ ____
ROOT
ATOM      1  N   UNL     1       3.739   5.426  17.790  0.00  0.00    +0.000 N 
ATOM      2  C   UNL     1       4.973   5.709  17.221  0.00  0.00    +0.000 A 
ATOM      3  N   UNL     1       5.427   4.918  16.231  0.00  0.00    +0.000 NA
ATOM      4  C   UNL     1       6.606   5.230  15.645  0.00  0.00    +0.000 A 
ATOM      5  C   UNL     1       7.050   4.378  14.493  0.00  0.00    +0.000 C 
ATOM      6  C   UNL     1       7.377   6.291  16.058  0.00  0.00    +0.000 A 
ATOM      7  C   UNL     1       6.872   7.040  17.097  0.00  0.00    +0.000 A 
ATOM      8  C   UNL     1       7.632   8.210  17.647  0.00  0.00    +0.000 C 
ATOM      9  N   UNL     1       5.679   6.765  17.668  0.00  0.00    +0.000 NA
ENDROOT
BRANCH   1  10
ATOM     10  C   UNL     1       3.228   6.297  18.814  0.00  0.00    +0.000 C 
ATOM     11  N   UNL     1       2.757   6.959  19.642  0.00  0.00    +0.000 NA
ENDBRANCH   1  10
BRANCH   1  12
ATOM     12  C   UNL     1       3.303   4.037  17.833  0.00  0.00    +0.000 C 
BRANCH  12  14
ATOM     13  N   UNL     1       2.466   3.114  20.019  0.00  0.00    +0.000 N 
ATOM     14  C   UNL     1       3.585   3.390  19.203  0.00  0.00    +0.000 C 
ATOM     15  O   UNL     1       4.730   3.121  19.573  0.00  0.00    +0.000 OA
BRANCH  13  17
ATOM     16  C   UNL     1       1.470   2.383  22.194  0.00  0.00    +0.000 C 
ATOM     17  C   UNL     1       2.732   2.613  21.373  0.00  0.00    +0.000 C 
ENDBRANCH  13  17
BRANCH  13  18
ATOM     18  C   UNL     1       1.092   3.385  19.570  0.00  0.00    +0.000 C 
ATOM     19  C   UNL     1       0.393   2.348  18.704  0.00  0.00    +0.000 C 
ENDBRANCH  13  18
ENDBRANCH  12  14
ENDBRANCH   1  12
TORSDOF 5
ENDMDL
