MODEL 1
REMARK VINA RESULT:      -7.3      0.000      0.000
REMARK  Name = 
REMARK  7 active torsions:
REMARK  status: ('A' for Active; 'I' for Inactive)
REMARK    1  A    between atoms: C_1  and  C_2
REMARK    2  A    between atoms: C_2  and  N_3
REMARK    3  A    between atoms: N_3  and  C_4
REMARK    4  A    between atoms: C_15  and  C_16
REMARK    5  A    between atoms: C_20  and  C_21
REMARK    6  A    between atoms: C_24  and  N_25
REMARK    7  A    between atoms: C_28  and  C_29
REMARK                            x       y       z     vdW  Elec       q    Type
REMARK                         _______ _______ _______ _____ _____    ______ ____
ROOT
ATOM      1  C   UNL     1       2.278   7.070  19.768  0.00  0.00    +0.000 A 
ATOM      2  C   UNL     1       2.562   7.458  18.448  0.00  0.00    +0.000 A 
ATOM      3  C   UNL     1       2.248   8.707  17.965  0.00  0.00    +0.000 A 
ATOM      4  F   UNL     1       2.608   9.042  16.714  0.00  0.00    +0.000 F 
ATOM      5  C   UNL     1       1.587   9.636  18.745  0.00  0.00    +0.000 A 
ATOM      6  C   UNL     1       1.147   9.276  20.038  0.00  0.00    +0.000 A 
ATOM      7  C   UNL     1       1.535   8.014  20.520  0.00  0.00    +0.000 A 
ATOM      8  N   UNL     1       1.025   7.925  21.797  0.00  0.00    +0.000 N 
ATOM      9  C   UNL     1       0.325   9.055  22.132  0.00  0.00    +0.000 A 
ATOM     10  N   UNL     1      -0.263   9.244  23.320  0.00  0.00    +0.000 NA
ATOM     11  C   UNL     1      -0.913  10.429  23.421  0.00  0.00    +0.000 A 
ATOM     12  C   UNL     1      -1.030  11.432  22.448  0.00  0.00    +0.000 A 
ATOM     13  C   UNL     1      -0.360  11.156  21.217  0.00  0.00    +0.000 A 
ATOM     14  C   UNL     1       0.337   9.924  21.048  0.00  0.00    +0.000 A 
ATOM     15  H   UNL     1       1.116   7.132  22.412  0.00  0.00    +0.000 HD
ENDROOT
BRANCH  12  16
ATOM     16  C   UNL     1      -1.891  12.616  22.733  0.00  0.00    +0.000 A 
ATOM     17  C   UNL     1      -3.195  12.731  22.226  0.00  0.00    +0.000 A 
ATOM     18  N   UNL     1      -4.039  13.773  22.453  0.00  0.00    +0.000 NA
ATOM     19  C   UNL     1      -3.599  14.748  23.279  0.00  0.00    +0.000 A 
ATOM     20  C   UNL     1      -2.339  14.750  23.844  0.00  0.00    +0.000 A 
ATOM     21  C   UNL     1      -1.471  13.701  23.522  0.00  0.00    +0.000 A 
BRANCH  20  22
ATOM     22  C   UNL     1      -1.942  15.777  24.755  0.00  0.00    +0.000 C 
ATOM     23  N   UNL     1      -1.618  16.622  25.478  0.00  0.00    +0.000 NA
ENDBRANCH  20  22
ENDBRANCH  12  16
BRANCH  13  24
ATOM     24  N   UNL     1      -0.372  12.093  20.156  0.00  0.00    +0.000 N 
ATOM     25  C   UNL     1      -1.068  11.993  18.974  0.00  0.00    +0.000 A 
ATOM     26  C   UNL     1      -0.763  13.103  18.228  0.00  0.00    +0.000 A 
ATOM     27  C   UNL     1       0.034  13.909  19.077  0.00  0.00    +0.000 A 
ATOM     28  N   UNL     1       0.271  13.281  20.247  0.00  0.00    +0.000 NA
BRANCH  27  29
ATOM     29  C   UNL     1       0.514  15.306  18.791  0.00  0.00    +0.000 C 
ATOM     30  F   UNL     1       1.691  15.303  18.106  0.00  0.00    +0.000 F 
ATOM     31  F   UNL     1      -0.375  15.992  18.023  0.00  0.00    +0.000 F 
ATOM     32  F   UNL     1       0.720  16.037  19.916  0.00  0.00    +0.000 F 
ENDBRANCH  27  29
ENDBRANCH  13  24
BRANCH   1  33
ATOM     33  N   UNL     1       2.654   5.833  20.274  0.00  0.00    +0.000 N 
ATOM     34  H   UNL     1       3.544   5.794  20.757  0.00  0.00    +0.000 HD
BRANCH  33  36
ATOM     35  C   UNL     1       1.118   3.913  20.419  0.00  0.00    +0.000 C 
ATOM     36  C   UNL     1       2.196   4.611  19.617  0.00  0.00    +0.000 C 
ENDBRANCH  33  36
ENDBRANCH   1  33
TORSDOF 6
ENDMDL
MODEL 2
REMARK VINA RESULT:      -7.3      0.809      1.620
REMARK  Name = 
REMARK  7 active torsions:
REMARK  status: ('A' for Active; 'I' for Inactive)
REMARK    1  A    between atoms: C_1  and  C_2
REMARK    2  A    between atoms: C_2  and  N_3
REMARK    3  A    between atoms: N_3  and  C_4
REMARK    4  A    between atoms: C_15  and  C_16
REMARK    5  A    between atoms: C_20  and  C_21
REMARK    6  A    between atoms: C_24  and  N_25
REMARK    7  A    between atoms: C_28  and  C_29
REMARK                            x       y       z     vdW  Elec       q    Type
REMARK                         _______ _______ _______ _____ _____    ______ ____
ROOT
ATOM      1  C   UNL     1       2.250   6.935  19.773  0.00  0.00    +0.000 A 
ATOM      2  C   UNL     1       2.599   7.322  18.469  0.00  0.00    +0.000 A 
ATOM      3  C   UNL     1       2.366   8.592  17.992  0.00  0.00    +0.000 A 
ATOM      4  F   UNL     1       2.786   8.922  16.758  0.00  0.00    +0.000 F 
ATOM      5  C   UNL     1       1.726   9.545  18.762  0.00  0.00    +0.000 A 
ATOM      6  C   UNL     1       1.224   9.192  20.034  0.00  0.00    +0.000 A 
ATOM      7  C   UNL     1       1.531   7.907  20.512  0.00  0.00    +0.000 A 
ATOM      8  N   UNL     1       0.973   7.830  21.770  0.00  0.00    +0.000 N 
ATOM      9  C   UNL     1       0.320   8.991  22.095  0.00  0.00    +0.000 A 
ATOM     10  N   UNL     1      -0.298   9.196  23.265  0.00  0.00    +0.000 NA
ATOM     11  C   UNL     1      -0.890  10.412  23.360  0.00  0.00    +0.000 A 
ATOM     12  C   UNL     1      -0.922  11.430  22.396  0.00  0.00    +0.000 A 
ATOM     13  C   UNL     1      -0.225  11.134  21.185  0.00  0.00    +0.000 A 
ATOM     14  C   UNL     1       0.414   9.870  21.024  0.00  0.00    +0.000 A 
ATOM     15  H   UNL     1       1.002   7.026  22.376  0.00  0.00    +0.000 HD
ENDROOT
BRANCH  12  16
ATOM     16  C   UNL     1      -1.731  12.654  22.667  0.00  0.00    +0.000 A 
ATOM     17  C   UNL     1      -1.190  13.780  23.306  0.00  0.00    +0.000 A 
ATOM     18  N   UNL     1      -1.862  14.932  23.575  0.00  0.00    +0.000 NA
ATOM     19  C   UNL     1      -3.139  15.011  23.140  0.00  0.00    +0.000 A 
ATOM     20  C   UNL     1      -3.784  13.973  22.495  0.00  0.00    +0.000 A 
ATOM     21  C   UNL     1      -3.084  12.776  22.309  0.00  0.00    +0.000 A 
BRANCH  20  22
ATOM     22  C   UNL     1      -5.118  14.128  22.006  0.00  0.00    +0.000 C 
ATOM     23  N   UNL     1      -6.193  14.249  21.592  0.00  0.00    +0.000 NA
ENDBRANCH  20  22
ENDBRANCH  12  16
BRANCH  13  24
ATOM     24  N   UNL     1      -0.153  12.083  20.137  0.00  0.00    +0.000 N 
ATOM     25  C   UNL     1      -0.954  12.142  19.021  0.00  0.00    +0.000 A 
ATOM     26  C   UNL     1      -0.513  13.194  18.259  0.00  0.00    +0.000 A 
ATOM     27  C   UNL     1       0.492  13.816  19.040  0.00  0.00    +0.000 A 
ATOM     28  N   UNL     1       0.708  13.128  20.179  0.00  0.00    +0.000 NA
BRANCH  27  29
ATOM     29  C   UNL     1       1.200  15.106  18.723  0.00  0.00    +0.000 C 
ATOM     30  F   UNL     1       2.202  14.922  17.820  0.00  0.00    +0.000 F 
ATOM     31  F   UNL     1       0.352  16.018  18.174  0.00  0.00    +0.000 F 
ATOM     32  F   UNL     1       1.760  15.686  19.814  0.00  0.00    +0.000 F 
ENDBRANCH  27  29
ENDBRANCH  13  24
BRANCH   1  33
ATOM     33  N   UNL     1       2.544   5.675  20.276  0.00  0.00    +0.000 N 
ATOM     34  H   UNL     1       3.446   5.566  20.726  0.00  0.00    +0.000 HD
BRANCH  33  36
ATOM     35  C   UNL     1       1.165   3.665  20.631  0.00  0.00    +0.000 C 
ATOM     36  C   UNL     1       1.967   4.489  19.646  0.00  0.00    +0.000 C 
ENDBRANCH  33  36
ENDBRANCH   1  33
TORSDOF 6
ENDMDL
MODEL 3
REMARK VINA RESULT:      -7.0      2.675      7.944
REMARK  Name = 
REMARK  7 active torsions:
REMARK  status: ('A' for Active; 'I' for Inactive)
REMARK    1  A    between atoms: C_1  and  C_2
REMARK    2  A    between atoms: C_2  and  N_3
REMARK    3  A    between atoms: N_3  and  C_4
REMARK    4  A    between atoms: C_15  and  C_16
REMARK    5  A    between atoms: C_20  and  C_21
REMARK    6  A    between atoms: C_24  and  N_25
REMARK    7  A    between atoms: C_28  and  C_29
REMARK                            x       y       z     vdW  Elec       q    Type
REMARK                         _______ _______ _______ _____ _____    ______ ____
ROOT
ATOM      1  C   UNL     1      -3.713  14.030  23.385  0.00  0.00    +0.000 A 
ATOM      2  C   UNL     1      -4.487  14.656  22.394  0.00  0.00    +0.000 A 
ATOM      3  C   UNL     1      -4.434  14.278  21.072  0.00  0.00    +0.000 A 
ATOM      4  F   UNL     1      -5.250  14.869  20.182  0.00  0.00    +0.000 F 
ATOM      5  C   UNL     1      -3.572  13.287  20.640  0.00  0.00    +0.000 A 
ATOM      6  C   UNL     1      -2.666  12.704  21.552  0.00  0.00    +0.000 A 
ATOM      7  C   UNL     1      -2.788  13.072  22.903  0.00  0.00    +0.000 A 
ATOM      8  N   UNL     1      -1.835  12.342  23.580  0.00  0.00    +0.000 N 
ATOM      9  C   UNL     1      -1.113  11.552  22.722  0.00  0.00    +0.000 A 
ATOM     10  N   UNL     1      -0.133  10.728  23.113  0.00  0.00    +0.000 NA
ATOM     11  C   UNL     1       0.453  10.058  22.091  0.00  0.00    +0.000 A 
ATOM     12  C   UNL     1       0.152  10.141  20.724  0.00  0.00    +0.000 A 
ATOM     13  C   UNL     1      -0.915  11.032  20.396  0.00  0.00    +0.000 A 
ATOM     14  C   UNL     1      -1.568  11.768  21.427  0.00  0.00    +0.000 A 
ATOM     15  H   UNL     1      -1.653  12.388  24.569  0.00  0.00    +0.000 HD
ENDROOT
BRANCH  12  16
ATOM     16  C   UNL     1       1.002   9.394  19.752  0.00  0.00    +0.000 A 
ATOM     17  C   UNL     1       1.377   9.939  18.515  0.00  0.00    +0.000 A 
ATOM     18  N   UNL     1       2.157   9.323  17.586  0.00  0.00    +0.000 NA
ATOM     19  C   UNL     1       2.652   8.109  17.912  0.00  0.00    +0.000 A 
ATOM     20  C   UNL     1       2.360   7.467  19.099  0.00  0.00    +0.000 A 
ATOM     21  C   UNL     1       1.490   8.098  19.994  0.00  0.00    +0.000 A 
BRANCH  20  22
ATOM     22  C   UNL     1       2.955   6.207  19.419  0.00  0.00    +0.000 C 
ATOM     23  N   UNL     1       3.428   5.187  19.696  0.00  0.00    +0.000 NA
ENDBRANCH  20  22
ENDBRANCH  12  16
BRANCH  13  24
ATOM     24  N   UNL     1      -1.343  11.193  19.056  0.00  0.00    +0.000 N 
ATOM     25  C   UNL     1      -0.989  12.203  18.193  0.00  0.00    +0.000 A 
ATOM     26  C   UNL     1      -1.659  11.985  17.016  0.00  0.00    +0.000 A 
ATOM     27  C   UNL     1      -2.314  10.741  17.191  0.00  0.00    +0.000 A 
ATOM     28  N   UNL     1      -2.120  10.271  18.440  0.00  0.00    +0.000 NA
BRANCH  27  29
ATOM     29  C   UNL     1      -3.072   9.975  16.141  0.00  0.00    +0.000 C 
ATOM     30  F   UNL     1      -2.272   9.627  15.096  0.00  0.00    +0.000 F 
ATOM     31  F   UNL     1      -3.579   8.814  16.640  0.00  0.00    +0.000 F 
ATOM     32  F   UNL     1      -4.111  10.675  15.620  0.00  0.00    +0.000 F 
ENDBRANCH  27  29
ENDBRANCH  13  24
BRANCH   1  33
ATOM     33  N   UNL     1      -3.816  14.367  24.728  0.00  0.00    +0.000 N 
ATOM     34  H   UNL     1      -4.708  14.185  25.173  0.00  0.00    +0.000 HD
BRANCH  33  36
ATOM     35  C   UNL     1      -3.795  16.765  25.289  0.00  0.00    +0.000 C 
ATOM     36  C   UNL     1      -3.016  15.466  25.263  0.00  0.00    +0.000 C 
ENDBRANCH  33  36
ENDBRANCH   1  33
TORSDOF 6
ENDMDL
MODEL 4
REMARK VINA RESULT:      -6.4      4.092      5.878
REMARK  Name = 
REMARK  7 active torsions:
REMARK  status: ('A' for Active; 'I' for Inactive)
REMARK    1  A    between atoms: C_1  and  C_2
REMARK    2  A    between atoms: C_2  and  N_3
REMARK    3  A    between atoms: N_3  and  C_4
REMARK    4  A    between atoms: C_15  and  C_16
REMARK    5  A    between atoms: C_20  and  C_21
REMARK    6  A    between atoms: C_24  and  N_25
REMARK    7  A    between atoms: C_28  and  C_29
REMARK                            x       y       z     vdW  Elec       q    Type
REMARK                         _______ _______ _______ _____ _____    ______ ____
ROOT
ATOM      1  C   UNL     1      -3.674  10.355  15.806  0.00  0.00    +0.000 A 
ATOM      2  C   UNL     1      -2.343   9.995  16.074  0.00  0.00    +0.000 A 
ATOM      3  C   UNL     1      -1.736  10.265  17.279  0.00  0.00    +0.000 A 
ATOM      4  F   UNL     1      -0.482   9.833  17.499  0.00  0.00    +0.000 F 
ATOM      5  C   UNL     1      -2.396  10.953  18.280  0.00  0.00    +0.000 A 
ATOM      6  C   UNL     1      -3.689  11.466  18.038  0.00  0.00    +0.000 A 
ATOM      7  C   UNL     1      -4.300  11.123  16.820  0.00  0.00    +0.000 A 
ATOM      8  N   UNL     1      -5.550  11.701  16.849  0.00  0.00    +0.000 N 
ATOM      9  C   UNL     1      -5.746  12.402  18.011  0.00  0.00    +0.000 A 
ATOM     10  N   UNL     1      -6.880  13.050  18.310  0.00  0.00    +0.000 NA
ATOM     11  C   UNL     1      -6.842  13.687  19.505  0.00  0.00    +0.000 A 
ATOM     12  C   UNL     1      -5.779  13.737  20.419  0.00  0.00    +0.000 A 
ATOM     13  C   UNL     1      -4.615  13.007  20.029  0.00  0.00    +0.000 A 
ATOM     14  C   UNL     1      -4.593  12.320  18.781  0.00  0.00    +0.000 A 
ATOM     15  H   UNL     1      -6.235  11.655  16.112  0.00  0.00    +0.000 HD
ENDROOT
BRANCH  12  16
ATOM     16  C   UNL     1      -5.913  14.595  21.633  0.00  0.00    +0.000 A 
ATOM     17  C   UNL     1      -6.754  14.250  22.701  0.00  0.00    +0.000 A 
ATOM     18  N   UNL     1      -6.917  14.975  23.841  0.00  0.00    +0.000 NA
ATOM     19  C   UNL     1      -6.162  16.089  23.970  0.00  0.00    +0.000 A 
ATOM     20  C   UNL     1      -5.293  16.532  22.993  0.00  0.00    +0.000 A 
ATOM     21  C   UNL     1      -5.214  15.802  21.802  0.00  0.00    +0.000 A 
BRANCH  20  22
ATOM     22  C   UNL     1      -4.476  17.685  23.203  0.00  0.00    +0.000 C 
ATOM     23  N   UNL     1      -3.808  18.619  23.355  0.00  0.00    +0.000 NA
ENDBRANCH  20  22
ENDBRANCH  12  16
BRANCH  13  24
ATOM     24  N   UNL     1      -3.478  12.949  20.870  0.00  0.00    +0.000 N 
ATOM     25  C   UNL     1      -3.350  12.232  22.038  0.00  0.00    +0.000 A 
ATOM     26  C   UNL     1      -2.100  12.492  22.539  0.00  0.00    +0.000 A 
ATOM     27  C   UNL     1      -1.466  13.286  21.552  0.00  0.00    +0.000 A 
ATOM     28  N   UNL     1      -2.316  13.563  20.542  0.00  0.00    +0.000 NA
BRANCH  27  29
ATOM     29  C   UNL     1      -0.027  13.724  21.546  0.00  0.00    +0.000 C 
ATOM     30  F   UNL     1       0.822  12.663  21.455  0.00  0.00    +0.000 F 
ATOM     31  F   UNL     1       0.247  14.526  20.482  0.00  0.00    +0.000 F 
ATOM     32  F   UNL     1       0.324  14.408  22.665  0.00  0.00    +0.000 F 
ENDBRANCH  27  29
ENDBRANCH  13  24
BRANCH   1  33
ATOM     33  N   UNL     1      -4.306  10.025  14.615  0.00  0.00    +0.000 N 
ATOM     34  H   UNL     1      -5.139   9.451  14.689  0.00  0.00    +0.000 HD
BRANCH  33  36
ATOM     35  C   UNL     1      -4.412   9.815  12.163  0.00  0.00    +0.000 C 
ATOM     36  C   UNL     1      -3.524   9.910  13.387  0.00  0.00    +0.000 C 
ENDBRANCH  33  36
ENDBRANCH   1  33
TORSDOF 6
ENDMDL
MODEL 5
REMARK VINA RESULT:      -6.4      2.287      2.871
REMARK  Name = 
REMARK  7 active torsions:
REMARK  status: ('A' for Active; 'I' for Inactive)
REMARK    1  A    between atoms: C_1  and  C_2
REMARK    2  A    between atoms: C_2  and  N_3
REMARK    3  A    between atoms: N_3  and  C_4
REMARK    4  A    between atoms: C_15  and  C_16
REMARK    5  A    between atoms: C_20  and  C_21
REMARK    6  A    between atoms: C_24  and  N_25
REMARK    7  A    between atoms: C_28  and  C_29
REMARK                            x       y       z     vdW  Elec       q    Type
REMARK                         _______ _______ _______ _____ _____    ______ ____
ROOT
ATOM      1  C   UNL     1       2.624   6.810  19.827  0.00  0.00    +0.000 A 
ATOM      2  C   UNL     1       2.554   6.881  18.426  0.00  0.00    +0.000 A 
ATOM      3  C   UNL     1       1.898   7.898  17.772  0.00  0.00    +0.000 A 
ATOM      4  F   UNL     1       1.925   7.947  16.429  0.00  0.00    +0.000 F 
ATOM      5  C   UNL     1       1.226   8.886  18.467  0.00  0.00    +0.000 A 
ATOM      6  C   UNL     1       1.137   8.811  19.875  0.00  0.00    +0.000 A 
ATOM      7  C   UNL     1       1.866   7.792  20.512  0.00  0.00    +0.000 A 
ATOM      8  N   UNL     1       1.649   7.962  21.862  0.00  0.00    +0.000 N 
ATOM      9  C   UNL     1       0.810   9.020  22.101  0.00  0.00    +0.000 A 
ATOM     10  N   UNL     1       0.444   9.419  23.326  0.00  0.00    +0.000 NA
ATOM     11  C   UNL     1      -0.405  10.476  23.320  0.00  0.00    +0.000 A 
ATOM     12  C   UNL     1      -0.918  11.160  22.209  0.00  0.00    +0.000 A 
ATOM     13  C   UNL     1      -0.464  10.680  20.944  0.00  0.00    +0.000 A 
ATOM     14  C   UNL     1       0.426   9.568  20.884  0.00  0.00    +0.000 A 
ATOM     15  H   UNL     1       2.023   7.380  22.594  0.00  0.00    +0.000 HD
ENDROOT
BRANCH  12  16
ATOM     16  C   UNL     1      -1.932  12.232  22.429  0.00  0.00    +0.000 A 
ATOM     17  C   UNL     1      -1.719  13.558  22.020  0.00  0.00    +0.000 A 
ATOM     18  N   UNL     1      -2.600  14.582  22.175  0.00  0.00    +0.000 NA
ATOM     19  C   UNL     1      -3.799  14.280  22.721  0.00  0.00    +0.000 A 
ATOM     20  C   UNL     1      -4.133  13.013  23.159  0.00  0.00    +0.000 A 
ATOM     21  C   UNL     1      -3.170  12.005  23.055  0.00  0.00    +0.000 A 
BRANCH  20  22
ATOM     22  C   UNL     1      -5.435  12.735  23.677  0.00  0.00    +0.000 C 
ATOM     23  N   UNL     1      -6.490  12.491  24.089  0.00  0.00    +0.000 NA
ENDBRANCH  20  22
ENDBRANCH  12  16
BRANCH  13  24
ATOM     24  N   UNL     1      -0.880  11.296  19.739  0.00  0.00    +0.000 N 
ATOM     25  C   UNL     1      -0.323  12.403  19.143  0.00  0.00    +0.000 A 
ATOM     26  C   UNL     1      -1.060  12.673  18.018  0.00  0.00    +0.000 A 
ATOM     27  C   UNL     1      -1.985  11.604  17.920  0.00  0.00    +0.000 A 
ATOM     28  N   UNL     1      -1.870  10.775  18.976  0.00  0.00    +0.000 NA
BRANCH  27  29
ATOM     29  C   UNL     1      -2.933  11.345  16.780  0.00  0.00    +0.000 C 
ATOM     30  F   UNL     1      -2.363  11.629  15.577  0.00  0.00    +0.000 F 
ATOM     31  F   UNL     1      -3.306  10.037  16.729  0.00  0.00    +0.000 F 
ATOM     32  F   UNL     1      -4.069  12.083  16.857  0.00  0.00    +0.000 F 
ENDBRANCH  27  29
ENDBRANCH  13  24
BRANCH   1  33
ATOM     33  N   UNL     1       3.341   5.820  20.484  0.00  0.00    +0.000 N 
ATOM     34  H   UNL     1       4.306   6.035  20.710  0.00  0.00    +0.000 HD
BRANCH  33  36
ATOM     35  C   UNL     1       1.784   4.003  21.066  0.00  0.00    +0.000 C 
ATOM     36  C   UNL     1       3.004   4.416  20.269  0.00  0.00    +0.000 C 
ENDBRANCH  33  36
ENDBRANCH   1  33
TORSDOF 6
ENDMDL
MODEL 6
REMARK VINA RESULT:      -6.2      1.192      1.286
REMARK  Name = 
REMARK  7 active torsions:
REMARK  status: ('A' for Active; 'I' for Inactive)
REMARK    1  A    between atoms: C_1  and  C_2
REMARK    2  A    between atoms: C_2  and  N_3
REMARK    3  A    between atoms: N_3  and  C_4
REMARK    4  A    between atoms: C_15  and  C_16
REMARK    5  A    between atoms: C_20  and  C_21
REMARK    6  A    between atoms: C_24  and  N_25
REMARK    7  A    between atoms: C_28  and  C_29
REMARK                            x       y       z     vdW  Elec       q    Type
REMARK                         _______ _______ _______ _____ _____    ______ ____
ROOT
ATOM      1  C   UNL     1       2.396   6.344  19.593  0.00  0.00    +0.000 A 
ATOM      2  C   UNL     1       2.925   6.730  18.351  0.00  0.00    +0.000 A 
ATOM      3  C   UNL     1       2.881   8.030  17.904  0.00  0.00    +0.000 A 
ATOM      4  F   UNL     1       3.466   8.349  16.736  0.00  0.00    +0.000 F 
ATOM      5  C   UNL     1       2.266   9.025  18.641  0.00  0.00    +0.000 A 
ATOM      6  C   UNL     1       1.593   8.692  19.837  0.00  0.00    +0.000 A 
ATOM      7  C   UNL     1       1.707   7.367  20.291  0.00  0.00    +0.000 A 
ATOM      8  N   UNL     1       1.010   7.315  21.479  0.00  0.00    +0.000 N 
ATOM      9  C   UNL     1       0.452   8.530  21.781  0.00  0.00    +0.000 A 
ATOM     10  N   UNL     1      -0.266   8.768  22.887  0.00  0.00    +0.000 NA
ATOM     11  C   UNL     1      -0.732  10.038  22.969  0.00  0.00    +0.000 A 
ATOM     12  C   UNL     1      -0.550  11.081  22.050  0.00  0.00    +0.000 A 
ATOM     13  C   UNL     1       0.240  10.746  20.908  0.00  0.00    +0.000 A 
ATOM     14  C   UNL     1       0.755   9.425  20.763  0.00  0.00    +0.000 A 
ATOM     15  H   UNL     1       0.887   6.495  22.052  0.00  0.00    +0.000 HD
ENDROOT
BRANCH  12  16
ATOM     16  C   UNL     1      -1.250  12.378  22.284  0.00  0.00    +0.000 A 
ATOM     17  C   UNL     1      -2.301  12.818  21.465  0.00  0.00    +0.000 A 
ATOM     18  N   UNL     1      -2.991  13.980  21.625  0.00  0.00    +0.000 NA
ATOM     19  C   UNL     1      -2.667  14.741  22.693  0.00  0.00    +0.000 A 
ATOM     20  C   UNL     1      -1.655  14.416  23.575  0.00  0.00    +0.000 A 
ATOM     21  C   UNL     1      -0.916  13.254  23.331  0.00  0.00    +0.000 A 
BRANCH  20  22
ATOM     22  C   UNL     1      -1.390  15.228  24.721  0.00  0.00    +0.000 C 
ATOM     23  N   UNL     1      -1.157  15.878  25.650  0.00  0.00    +0.000 NA
ENDBRANCH  20  22
ENDBRANCH  12  16
BRANCH  13  24
ATOM     24  N   UNL     1       0.527  11.712  19.913  0.00  0.00    +0.000 N 
ATOM     25  C   UNL     1      -0.156  11.912  18.736  0.00  0.00    +0.000 A 
ATOM     26  C   UNL     1       0.483  12.923  18.063  0.00  0.00    +0.000 A 
ATOM     27  C   UNL     1       1.483  13.383  18.954  0.00  0.00    +0.000 A 
ATOM     28  N   UNL     1       1.505  12.635  20.076  0.00  0.00    +0.000 NA
BRANCH  27  29
ATOM     29  C   UNL     1       2.374  14.579  18.757  0.00  0.00    +0.000 C 
ATOM     30  F   UNL     1       3.641  14.341  19.192  0.00  0.00    +0.000 F 
ATOM     31  F   UNL     1       2.476  14.914  17.442  0.00  0.00    +0.000 F 
ATOM     32  F   UNL     1       1.936  15.681  19.418  0.00  0.00    +0.000 F 
ENDBRANCH  27  29
ENDBRANCH  13  24
BRANCH   1  33
ATOM     33  N   UNL     1       2.498   5.045  20.072  0.00  0.00    +0.000 N 
ATOM     34  H   UNL     1       2.016   4.844  20.940  0.00  0.00    +0.000 HD
BRANCH  33  36
ATOM     35  C   UNL     1       3.338   2.959  19.068  0.00  0.00    +0.000 C 
ATOM     36  C   UNL     1       3.689   4.253  19.771  0.00  0.00    +0.000 C 
ENDBRANCH  33  36
ENDBRANCH   1  33
TORSDOF 6
ENDMDL
MODEL 7
REMARK VINA RESULT:      -6.1      5.031      7.546
REMARK  Name = 
REMARK  7 active torsions:
REMARK  status: ('A' for Active; 'I' for Inactive)
REMARK    1  A    between atoms: C_1  and  C_2
REMARK    2  A    between atoms: C_2  and  N_3
REMARK    3  A    between atoms: N_3  and  C_4
REMARK    4  A    between atoms: C_15  and  C_16
REMARK    5  A    between atoms: C_20  and  C_21
REMARK    6  A    between atoms: C_24  and  N_25
REMARK    7  A    between atoms: C_28  and  C_29
REMARK                            x       y       z     vdW  Elec       q    Type
REMARK                         _______ _______ _______ _____ _____    ______ ____
ROOT
ATOM      1  C   UNL     1      -7.052  11.898  20.559  0.00  0.00    +0.000 A 
ATOM      2  C   UNL     1      -7.613  12.587  21.647  0.00  0.00    +0.000 A 
ATOM      3  C   UNL     1      -6.920  13.550  22.343  0.00  0.00    +0.000 A 
ATOM      4  F   UNL     1      -7.535  14.223  23.331  0.00  0.00    +0.000 F 
ATOM      5  C   UNL     1      -5.608  13.858  22.036  0.00  0.00    +0.000 A 
ATOM      6  C   UNL     1      -4.931  13.115  21.044  0.00  0.00    +0.000 A 
ATOM      7  C   UNL     1      -5.685  12.179  20.315  0.00  0.00    +0.000 A 
ATOM      8  N   UNL     1      -4.818  11.631  19.395  0.00  0.00    +0.000 N 
ATOM      9  C   UNL     1      -3.559  12.159  19.523  0.00  0.00    +0.000 A 
ATOM     10  N   UNL     1      -2.524  11.817  18.746  0.00  0.00    +0.000 NA
ATOM     11  C   UNL     1      -1.372  12.456  19.064  0.00  0.00    +0.000 A 
ATOM     12  C   UNL     1      -1.163  13.395  20.084  0.00  0.00    +0.000 A 
ATOM     13  C   UNL     1      -2.323  13.714  20.855  0.00  0.00    +0.000 A 
ATOM     14  C   UNL     1      -3.563  13.072  20.571  0.00  0.00    +0.000 A 
ATOM     15  H   UNL     1      -5.047  10.912  18.728  0.00  0.00    +0.000 HD
ENDROOT
BRANCH  12  16
ATOM     16  C   UNL     1       0.221  13.894  20.333  0.00  0.00    +0.000 A 
ATOM     17  C   UNL     1       1.181  13.126  21.009  0.00  0.00    +0.000 A 
ATOM     18  N   UNL     1       2.462  13.510  21.261  0.00  0.00    +0.000 NA
ATOM     19  C   UNL     1       2.849  14.708  20.770  0.00  0.00    +0.000 A 
ATOM     20  C   UNL     1       2.000  15.554  20.084  0.00  0.00    +0.000 A 
ATOM     21  C   UNL     1       0.669  15.159  19.915  0.00  0.00    +0.000 A 
BRANCH  20  22
ATOM     22  C   UNL     1       2.475  16.786  19.536  0.00  0.00    +0.000 C 
ATOM     23  N   UNL     1       2.872  17.774  19.080  0.00  0.00    +0.000 NA
ENDBRANCH  20  22
ENDBRANCH  12  16
BRANCH  13  24
ATOM     24  N   UNL     1      -2.263  14.668  21.899  0.00  0.00    +0.000 N 
ATOM     25  C   UNL     1      -2.371  16.034  21.777  0.00  0.00    +0.000 A 
ATOM     26  C   UNL     1      -2.221  16.567  23.032  0.00  0.00    +0.000 A 
ATOM     27  C   UNL     1      -2.149  15.450  23.899  0.00  0.00    +0.000 A 
ATOM     28  N   UNL     1      -2.170  14.298  23.198  0.00  0.00    +0.000 NA
BRANCH  27  29
ATOM     29  C   UNL     1      -2.126  15.486  25.403  0.00  0.00    +0.000 C 
ATOM     30  F   UNL     1      -0.879  15.248  25.894  0.00  0.00    +0.000 F 
ATOM     31  F   UNL     1      -2.499  16.705  25.879  0.00  0.00    +0.000 F 
ATOM     32  F   UNL     1      -2.949  14.567  25.969  0.00  0.00    +0.000 F 
ENDBRANCH  27  29
ENDBRANCH  13  24
BRANCH   1  33
ATOM     33  N   UNL     1      -7.774  10.973  19.816  0.00  0.00    +0.000 N 
ATOM     34  H   UNL     1      -8.784  11.028  19.884  0.00  0.00    +0.000 HD
BRANCH  33  36
ATOM     35  C   UNL     1      -7.685   8.608  20.500  0.00  0.00    +0.000 C 
ATOM     36  C   UNL     1      -7.195   9.663  19.529  0.00  0.00    +0.000 C 
ENDBRANCH  33  36
ENDBRANCH   1  33
TORSDOF 6
ENDMDL
MODEL 8
REMARK VINA RESULT:      -6.1      1.835      2.553
REMARK  Name = 
REMARK  7 active torsions:
REMARK  status: ('A' for Active; 'I' for Inactive)
REMARK    1  A    between atoms: C_1  and  C_2
REMARK    2  A    between atoms: C_2  and  N_3
REMARK    3  A    between atoms: N_3  and  C_4
REMARK    4  A    between atoms: C_15  and  C_16
REMARK    5  A    between atoms: C_20  and  C_21
REMARK    6  A    between atoms: C_24  and  N_25
REMARK    7  A    between atoms: C_28  and  C_29
REMARK                            x       y       z     vdW  Elec       q    Type
REMARK                         _______ _______ _______ _____ _____    ______ ____
ROOT
ATOM      1  C   UNL     1       1.584   9.387  18.968  0.00  0.00    +0.000 A 
ATOM      2  C   UNL     1       2.174  10.214  17.998  0.00  0.00    +0.000 A 
ATOM      3  C   UNL     1       2.175  11.586  18.104  0.00  0.00    +0.000 A 
ATOM      4  F   UNL     1       2.816  12.320  17.178  0.00  0.00    +0.000 F 
ATOM      5  C   UNL     1       1.547  12.229  19.154  0.00  0.00    +0.000 A 
ATOM      6  C   UNL     1       0.817  11.473  20.098  0.00  0.00    +0.000 A 
ATOM      7  C   UNL     1       0.886  10.073  19.992  0.00  0.00    +0.000 A 
ATOM      8  N   UNL     1       0.137   9.580  21.039  0.00  0.00    +0.000 N 
ATOM      9  C   UNL     1      -0.410  10.595  21.780  0.00  0.00    +0.000 A 
ATOM     10  N   UNL     1      -1.170  10.400  22.865  0.00  0.00    +0.000 NA
ATOM     11  C   UNL     1      -1.615  11.549  23.429  0.00  0.00    +0.000 A 
ATOM     12  C   UNL     1      -1.374  12.864  23.007  0.00  0.00    +0.000 A 
ATOM     13  C   UNL     1      -0.541  12.981  21.852  0.00  0.00    +0.000 A 
ATOM     14  C   UNL     1      -0.046  11.808  21.211  0.00  0.00    +0.000 A 
ATOM     15  H   UNL     1      -0.027   8.605  21.234  0.00  0.00    +0.000 HD
ENDROOT
BRANCH  12  16
ATOM     16  C   UNL     1      -2.057  13.985  23.714  0.00  0.00    +0.000 A 
ATOM     17  C   UNL     1      -3.439  14.205  23.605  0.00  0.00    +0.000 A 
ATOM     18  N   UNL     1      -4.131  15.197  24.228  0.00  0.00    +0.000 NA
ATOM     19  C   UNL     1      -3.432  16.000  25.061  0.00  0.00    +0.000 A 
ATOM     20  C   UNL     1      -2.070  15.884  25.257  0.00  0.00    +0.000 A 
ATOM     21  C   UNL     1      -1.381  14.902  24.537  0.00  0.00    +0.000 A 
BRANCH  20  22
ATOM     22  C   UNL     1      -1.388  16.722  26.192  0.00  0.00    +0.000 C 
ATOM     23  N   UNL     1      -0.852  17.409  26.956  0.00  0.00    +0.000 NA
ENDBRANCH  20  22
ENDBRANCH  12  16
BRANCH  13  24
ATOM     24  N   UNL     1      -0.193  14.251  21.332  0.00  0.00    +0.000 N 
ATOM     25  C   UNL     1       0.942  14.975  21.615  0.00  0.00    +0.000 A 
ATOM     26  C   UNL     1       0.853  16.156  20.923  0.00  0.00    +0.000 A 
ATOM     27  C   UNL     1      -0.315  16.031  20.131  0.00  0.00    +0.000 A 
ATOM     28  N   UNL     1      -0.947  14.869  20.393  0.00  0.00    +0.000 NA
BRANCH  27  29
ATOM     29  C   UNL     1      -0.789  16.996  19.079  0.00  0.00    +0.000 C 
ATOM     30  F   UNL     1      -2.113  17.280  19.215  0.00  0.00    +0.000 F 
ATOM     31  F   UNL     1      -0.131  18.184  19.159  0.00  0.00    +0.000 F 
ATOM     32  F   UNL     1      -0.619  16.529  17.815  0.00  0.00    +0.000 F 
ENDBRANCH  27  29
ENDBRANCH  13  24
BRANCH   1  33
ATOM     33  N   UNL     1       1.641   8.002  18.894  0.00  0.00    +0.000 N 
ATOM     34  H   UNL     1       1.203   7.490  19.652  0.00  0.00    +0.000 HD
BRANCH  33  36
ATOM     35  C   UNL     1       2.591   5.853  18.155  0.00  0.00    +0.000 C 
ATOM     36  C   UNL     1       2.761   7.357  18.214  0.00  0.00    +0.000 C 
ENDBRANCH  33  36
ENDBRANCH   1  33
TORSDOF 6
ENDMDL
MODEL 9
REMARK VINA RESULT:      -6.1      1.351      1.771
REMARK  Name = 
REMARK  7 active torsions:
REMARK  status: ('A' for Active; 'I' for Inactive)
REMARK    1  A    between atoms: C_1  and  C_2
REMARK    2  A    between atoms: C_2  and  N_3
REMARK    3  A    between atoms: N_3  and  C_4
REMARK    4  A    between atoms: C_15  and  C_16
REMARK    5  A    between atoms: C_20  and  C_21
REMARK    6  A    between atoms: C_24  and  N_25
REMARK    7  A    between atoms: C_28  and  C_29
REMARK                            x       y       z     vdW  Elec       q    Type
REMARK                         _______ _______ _______ _____ _____    ______ ____
ROOT
ATOM      1  C   UNL     1       2.020   6.838  19.986  0.00  0.00    +0.000 A 
ATOM      2  C   UNL     1       2.494   7.141  18.699  0.00  0.00    +0.000 A 
ATOM      3  C   UNL     1       2.427   8.409  18.170  0.00  0.00    +0.000 A 
ATOM      4  F   UNL     1       2.960   8.650  16.959  0.00  0.00    +0.000 F 
ATOM      5  C   UNL     1       1.841   9.450  18.865  0.00  0.00    +0.000 A 
ATOM      6  C   UNL     1       1.221   9.197  20.109  0.00  0.00    +0.000 A 
ATOM      7  C   UNL     1       1.359   7.905  20.644  0.00  0.00    +0.000 A 
ATOM      8  N   UNL     1       0.714   7.931  21.862  0.00  0.00    +0.000 N 
ATOM      9  C   UNL     1       0.165   9.164  22.106  0.00  0.00    +0.000 A 
ATOM     10  N   UNL     1      -0.505   9.473  23.224  0.00  0.00    +0.000 NA
ATOM     11  C   UNL     1      -0.971  10.745  23.242  0.00  0.00    +0.000 A 
ATOM     12  C   UNL     1      -0.833  11.726  22.249  0.00  0.00    +0.000 A 
ATOM     13  C   UNL     1      -0.091  11.317  21.098  0.00  0.00    +0.000 A 
ATOM     14  C   UNL     1       0.421   9.989  21.019  0.00  0.00    +0.000 A 
ATOM     15  H   UNL     1       0.618   7.151  22.492  0.00  0.00    +0.000 HD
ENDROOT
BRANCH  12  16
ATOM     16  C   UNL     1      -1.526  13.035  22.427  0.00  0.00    +0.000 A 
ATOM     17  C   UNL     1      -2.084  13.424  23.654  0.00  0.00    +0.000 A 
ATOM     18  N   UNL     1      -2.719  14.604  23.893  0.00  0.00    +0.000 NA
ATOM     19  C   UNL     1      -2.763  15.491  22.874  0.00  0.00    +0.000 A 
ATOM     20  C   UNL     1      -2.246  15.230  21.620  0.00  0.00    +0.000 A 
ATOM     21  C   UNL     1      -1.673  13.974  21.392  0.00  0.00    +0.000 A 
BRANCH  20  22
ATOM     22  C   UNL     1      -2.270  16.224  20.594  0.00  0.00    +0.000 C 
ATOM     23  N   UNL     1      -2.296  17.017  19.750  0.00  0.00    +0.000 NA
ENDBRANCH  20  22
ENDBRANCH  12  16
BRANCH  13  24
ATOM     24  N   UNL     1       0.149  12.215  20.031  0.00  0.00    +0.000 N 
ATOM     25  C   UNL     1      -0.586  12.339  18.875  0.00  0.00    +0.000 A 
ATOM     26  C   UNL     1       0.021  13.302  18.109  0.00  0.00    +0.000 A 
ATOM     27  C   UNL     1       1.060  13.817  18.922  0.00  0.00    +0.000 A 
ATOM     28  N   UNL     1       1.133  13.144  20.088  0.00  0.00    +0.000 NA
BRANCH  27  29
ATOM     29  C   UNL     1       1.939  14.996  18.607  0.00  0.00    +0.000 C 
ATOM     30  F   UNL     1       1.211  16.130  18.412  0.00  0.00    +0.000 F 
ATOM     31  F   UNL     1       2.800  15.263  19.626  0.00  0.00    +0.000 F 
ATOM     32  F   UNL     1       2.687  14.817  17.488  0.00  0.00    +0.000 F 
ENDBRANCH  27  29
ENDBRANCH  13  24
BRANCH   1  33
ATOM     33  N   UNL     1       2.147   5.574  20.545  0.00  0.00    +0.000 N 
ATOM     34  H   UNL     1       3.082   5.180  20.565  0.00  0.00    +0.000 HD
BRANCH  33  36
ATOM     35  C   UNL     1       1.495   3.233  20.140  0.00  0.00    +0.000 C 
ATOM     36  C   UNL     1       1.030   4.635  20.476  0.00  0.00    +0.000 C 
ENDBRANCH  33  36
ENDBRANCH   1  33
TORSDOF 6
ENDMDL
