MODEL 1
REMARK VINA RESULT:      -8.4      0.000      0.000
REMARK  Name = 
REMARK  6 active torsions:
REMARK  status: ('A' for Active; 'I' for Inactive)
REMARK    1  A    between atoms: C_2  and  C_3
REMARK    2  A    between atoms: C_2  and  C_18
REMARK    3  A    between atoms: C_3  and  C_4
REMARK    4  A    between atoms: C_4  and  S_5
REMARK    5  A    between atoms: C_4  and  C_12
REMARK    6  A    between atoms: S_5  and  C_6
REMARK                            x       y       z     vdW  Elec       q    Type
REMARK                         _______ _______ _______ _____ _____    ______ ____
ROOT
ATOM      1  C   UNL     1       2.831   5.589  18.015  0.00  0.00    +0.000 C 
ENDROOT
BRANCH   1   2
ATOM      2  C   UNL     1       2.224   4.695  19.116  0.00  0.00    +0.000 A 
ATOM      3  C   UNL     1       2.628   4.793  20.461  0.00  0.00    +0.000 A 
ATOM      4  C   UNL     1       2.188   3.876  21.422  0.00  0.00    +0.000 A 
ATOM      5  C   UNL     1       1.330   2.845  21.063  0.00  0.00    +0.000 A 
ATOM      6  C   UNL     1       0.837   2.788  19.766  0.00  0.00    +0.000 A 
ATOM      7  C   UNL     1       1.235   3.740  18.824  0.00  0.00    +0.000 A 
ENDBRANCH   1   2
BRANCH   1   8
ATOM      8  C   UNL     1       3.357   6.941  18.555  0.00  0.00    +0.000 C 
BRANCH   8  10
ATOM      9  O   UNL     1       2.427   8.654  17.137  0.00  0.00    +0.000 OA
ATOM     10  C   UNL     1       2.482   8.141  18.254  0.00  0.00    +0.000 C 
BRANCH  10  11
ATOM     11  C   UNL     1       1.588   8.666  19.330  0.00  0.00    +0.000 A 
ATOM     12  C   UNL     1       1.545   8.097  20.610  0.00  0.00    +0.000 A 
ATOM     13  C   UNL     1       0.652   8.589  21.568  0.00  0.00    +0.000 A 
ATOM     14  C   UNL     1      -0.197   9.650  21.254  0.00  0.00    +0.000 A 
ATOM     15  C   UNL     1      -0.146  10.224  19.983  0.00  0.00    +0.000 A 
ATOM     16 CL   UNL     1      -1.190  11.535  19.599  0.00  0.00    +0.000 Cl
ATOM     17  C   UNL     1       0.738   9.737  19.019  0.00  0.00    +0.000 A 
ENDBRANCH  10  11
ENDBRANCH   8  10
ENDBRANCH   1   8
BRANCH   1  18
ATOM     18  S   UNL     1       4.166   4.710  17.016  0.00  0.00    +0.000 S 
BRANCH  18  19
ATOM     19  C   UNL     1       5.657   5.453  17.645  0.00  0.00    +0.000 A 
ATOM     20  C   UNL     1       6.232   5.027  18.849  0.00  0.00    +0.000 A 
ATOM     21  C   UNL     1       7.352   5.672  19.372  0.00  0.00    +0.000 A 
ATOM     22  C   UNL     1       7.943   6.713  18.661  0.00  0.00    +0.000 A 
ATOM     23  C   UNL     1       7.421   7.097  17.426  0.00  0.00    +0.000 A 
ATOM     24  C   UNL     1       6.285   6.466  16.919  0.00  0.00    +0.000 A 
ENDBRANCH  18  19
ENDBRANCH   1  18
TORSDOF 6
ENDMDL
MODEL 2
REMARK VINA RESULT:      -8.2      0.954      1.953
REMARK  Name = 
REMARK  6 active torsions:
REMARK  status: ('A' for Active; 'I' for Inactive)
REMARK    1  A    between atoms: C_2  and  C_3
REMARK    2  A    between atoms: C_2  and  C_18
REMARK    3  A    between atoms: C_3  and  C_4
REMARK    4  A    between atoms: C_4  and  S_5
REMARK    5  A    between atoms: C_4  and  C_12
REMARK    6  A    between atoms: S_5  and  C_6
REMARK                            x       y       z     vdW  Elec       q    Type
REMARK                         _______ _______ _______ _____ _____    ______ ____
ROOT
ATOM      1  C   UNL     1       2.728   5.544  18.135  0.00  0.00    +0.000 C 
ENDROOT
BRANCH   1   2
ATOM      2  C   UNL     1       2.301   4.518  19.205  0.00  0.00    +0.000 A 
ATOM      3  C   UNL     1       1.504   3.402  18.890  0.00  0.00    +0.000 A 
ATOM      4  C   UNL     1       0.993   2.566  19.889  0.00  0.00    +0.000 A 
ATOM      5  C   UNL     1       1.273   2.822  21.225  0.00  0.00    +0.000 A 
ATOM      6  C   UNL     1       2.140   3.855  21.555  0.00  0.00    +0.000 A 
ATOM      7  C   UNL     1       2.693   4.653  20.548  0.00  0.00    +0.000 A 
ENDBRANCH   1   2
BRANCH   1   8
ATOM      8  C   UNL     1       3.161   6.902  18.738  0.00  0.00    +0.000 C 
BRANCH   8  10
ATOM      9  O   UNL     1       2.801   8.484  16.955  0.00  0.00    +0.000 OA
ATOM     10  C   UNL     1       2.529   8.123  18.100  0.00  0.00    +0.000 C 
BRANCH  10  11
ATOM     11  C   UNL     1       1.476   8.865  18.855  0.00  0.00    +0.000 A 
ATOM     12  C   UNL     1       0.578   9.738  18.223  0.00  0.00    +0.000 A 
ATOM     13  C   UNL     1      -0.356  10.453  18.979  0.00  0.00    +0.000 A 
ATOM     14  C   UNL     1      -0.400  10.300  20.365  0.00  0.00    +0.000 A 
ATOM     15  C   UNL     1       0.486   9.424  20.992  0.00  0.00    +0.000 A 
ATOM     16 CL   UNL     1       0.427   9.233  22.700  0.00  0.00    +0.000 Cl
ATOM     17  C   UNL     1       1.425   8.709  20.246  0.00  0.00    +0.000 A 
ENDBRANCH  10  11
ENDBRANCH   8  10
ENDBRANCH   1   8
BRANCH   1  18
ATOM     18  S   UNL     1       4.058   4.879  16.977  0.00  0.00    +0.000 S 
BRANCH  18  19
ATOM     19  C   UNL     1       5.539   5.602  17.651  0.00  0.00    +0.000 A 
ATOM     20  C   UNL     1       6.161   6.696  17.036  0.00  0.00    +0.000 A 
ATOM     21  C   UNL     1       7.364   7.201  17.527  0.00  0.00    +0.000 A 
ATOM     22  C   UNL     1       7.926   6.650  18.675  0.00  0.00    +0.000 A 
ATOM     23  C   UNL     1       7.278   5.608  19.336  0.00  0.00    +0.000 A 
ATOM     24  C   UNL     1       6.087   5.089  18.827  0.00  0.00    +0.000 A 
ENDBRANCH  18  19
ENDBRANCH   1  18
TORSDOF 6
ENDMDL
MODEL 3
REMARK VINA RESULT:      -8.0      1.122      1.684
REMARK  Name = 
REMARK  6 active torsions:
REMARK  status: ('A' for Active; 'I' for Inactive)
REMARK    1  A    between atoms: C_2  and  C_3
REMARK    2  A    between atoms: C_2  and  C_18
REMARK    3  A    between atoms: C_3  and  C_4
REMARK    4  A    between atoms: C_4  and  S_5
REMARK    5  A    between atoms: C_4  and  C_12
REMARK    6  A    between atoms: S_5  and  C_6
REMARK                            x       y       z     vdW  Elec       q    Type
REMARK                         _______ _______ _______ _____ _____    ______ ____
ROOT
ATOM      1  C   UNL     1       3.015   5.215  18.097  0.00  0.00    +0.000 C 
ENDROOT
BRANCH   1   2
ATOM      2  C   UNL     1       2.538   4.208  19.164  0.00  0.00    +0.000 A 
ATOM      3  C   UNL     1       1.174   4.016  19.448  0.00  0.00    +0.000 A 
ATOM      4  C   UNL     1       0.758   3.220  20.521  0.00  0.00    +0.000 A 
ATOM      5  C   UNL     1       1.696   2.592  21.330  0.00  0.00    +0.000 A 
ATOM      6  C   UNL     1       3.044   2.683  21.009  0.00  0.00    +0.000 A 
ATOM      7  C   UNL     1       3.450   3.434  19.902  0.00  0.00    +0.000 A 
ENDBRANCH   1   2
BRANCH   1   8
ATOM      8  C   UNL     1       3.429   6.581  18.696  0.00  0.00    +0.000 C 
BRANCH   8  10
ATOM      9  O   UNL     1       3.209   8.121  16.855  0.00  0.00    +0.000 OA
ATOM     10  C   UNL     1       2.860   7.795  17.989  0.00  0.00    +0.000 C 
BRANCH  10  11
ATOM     11  C   UNL     1       1.776   8.575  18.659  0.00  0.00    +0.000 A 
ATOM     12  C   UNL     1       0.943   9.455  17.952  0.00  0.00    +0.000 A 
ATOM     13  C   UNL     1      -0.023  10.204  18.632  0.00  0.00    +0.000 A 
ATOM     14  C   UNL     1      -0.163  10.079  20.013  0.00  0.00    +0.000 A 
ATOM     15  C   UNL     1       0.659   9.195  20.714  0.00  0.00    +0.000 A 
ATOM     16 CL   UNL     1       0.481   9.038  22.417  0.00  0.00    +0.000 Cl
ATOM     17  C   UNL     1       1.629   8.445  20.046  0.00  0.00    +0.000 A 
ENDBRANCH  10  11
ENDBRANCH   8  10
ENDBRANCH   1   8
BRANCH   1  18
ATOM     18  S   UNL     1       4.391   4.526  17.008  0.00  0.00    +0.000 S 
BRANCH  18  19
ATOM     19  C   UNL     1       5.819   5.407  17.603  0.00  0.00    +0.000 A 
ATOM     20  C   UNL     1       6.487   5.010  18.768  0.00  0.00    +0.000 A 
ATOM     21  C   UNL     1       7.553   5.756  19.268  0.00  0.00    +0.000 A 
ATOM     22  C   UNL     1       7.998   6.876  18.571  0.00  0.00    +0.000 A 
ATOM     23  C   UNL     1       7.386   7.238  17.371  0.00  0.00    +0.000 A 
ATOM     24  C   UNL     1       6.303   6.503  16.888  0.00  0.00    +0.000 A 
ENDBRANCH  18  19
ENDBRANCH   1  18
TORSDOF 6
ENDMDL
MODEL 4
REMARK VINA RESULT:      -7.9      0.669      1.226
REMARK  Name = 
REMARK  6 active torsions:
REMARK  status: ('A' for Active; 'I' for Inactive)
REMARK    1  A    between atoms: C_2  and  C_3
REMARK    2  A    between atoms: C_2  and  C_18
REMARK    3  A    between atoms: C_3  and  C_4
REMARK    4  A    between atoms: C_4  and  S_5
REMARK    5  A    between atoms: C_4  and  C_12
REMARK    6  A    between atoms: S_5  and  C_6
REMARK                            x       y       z     vdW  Elec       q    Type
REMARK                         _______ _______ _______ _____ _____    ______ ____
ROOT
ATOM      1  C   UNL     1       3.016   5.485  17.830  0.00  0.00    +0.000 C 
ENDROOT
BRANCH   1   2
ATOM      2  C   UNL     1       2.463   4.394  18.770  0.00  0.00    +0.000 A 
ATOM      3  C   UNL     1       1.414   4.650  19.672  0.00  0.00    +0.000 A 
ATOM      4  C   UNL     1       1.026   3.704  20.626  0.00  0.00    +0.000 A 
ATOM      5  C   UNL     1       1.673   2.477  20.697  0.00  0.00    +0.000 A 
ATOM      6  C   UNL     1       2.641   2.161  19.754  0.00  0.00    +0.000 A 
ATOM      7  C   UNL     1       2.986   3.089  18.766  0.00  0.00    +0.000 A 
ENDBRANCH   1   2
BRANCH   1   8
ATOM      8  C   UNL     1       3.405   6.785  18.574  0.00  0.00    +0.000 C 
BRANCH   8  10
ATOM      9  O   UNL     1       2.564   8.501  17.104  0.00  0.00    +0.000 OA
ATOM     10  C   UNL     1       2.569   8.002  18.229  0.00  0.00    +0.000 C 
BRANCH  10  11
ATOM     11  C   UNL     1       1.653   8.564  19.267  0.00  0.00    +0.000 A 
ATOM     12  C   UNL     1       1.633   8.083  20.585  0.00  0.00    +0.000 A 
ATOM     13  C   UNL     1       0.720   8.603  21.508  0.00  0.00    +0.000 A 
ATOM     14  C   UNL     1      -0.172   9.604  21.123  0.00  0.00    +0.000 A 
ATOM     15  C   UNL     1      -0.143  10.090  19.815  0.00  0.00    +0.000 A 
ATOM     16 CL   UNL     1      -1.240  11.328  19.344  0.00  0.00    +0.000 Cl
ATOM     17  C   UNL     1       0.761   9.574  18.885  0.00  0.00    +0.000 A 
ENDBRANCH  10  11
ENDBRANCH   8  10
ENDBRANCH   1   8
BRANCH   1  18
ATOM     18  S   UNL     1       4.449   4.876  16.768  0.00  0.00    +0.000 S 
BRANCH  18  19
ATOM     19  C   UNL     1       5.847   5.676  17.528  0.00  0.00    +0.000 A 
ATOM     20  C   UNL     1       6.396   6.846  16.992  0.00  0.00    +0.000 A 
ATOM     21  C   UNL     1       7.540   7.417  17.548  0.00  0.00    +0.000 A 
ATOM     22  C   UNL     1       8.110   6.850  18.685  0.00  0.00    +0.000 A 
ATOM     23  C   UNL     1       7.528   5.727  19.269  0.00  0.00    +0.000 A 
ATOM     24  C   UNL     1       6.398   5.144  18.694  0.00  0.00    +0.000 A 
ENDBRANCH  18  19
ENDBRANCH   1  18
TORSDOF 6
ENDMDL
MODEL 5
REMARK VINA RESULT:      -7.8      2.892      5.166
REMARK  Name = 
REMARK  6 active torsions:
REMARK  status: ('A' for Active; 'I' for Inactive)
REMARK    1  A    between atoms: C_2  and  C_3
REMARK    2  A    between atoms: C_2  and  C_18
REMARK    3  A    between atoms: C_3  and  C_4
REMARK    4  A    between atoms: C_4  and  S_5
REMARK    5  A    between atoms: C_4  and  C_12
REMARK    6  A    between atoms: S_5  and  C_6
REMARK                            x       y       z     vdW  Elec       q    Type
REMARK                         _______ _______ _______ _____ _____    ______ ____
ROOT
ATOM      1  C   UNL     1       2.762   6.422  18.201  0.00  0.00    +0.000 C 
ENDROOT
BRANCH   1   2
ATOM      2  C   UNL     1       2.159   7.633  18.941  0.00  0.00    +0.000 A 
ATOM      3  C   UNL     1       1.852   7.590  20.313  0.00  0.00    +0.000 A 
ATOM      4  C   UNL     1       1.165   8.635  20.940  0.00  0.00    +0.000 A 
ATOM      5  C   UNL     1       0.774   9.750  20.210  0.00  0.00    +0.000 A 
ATOM      6  C   UNL     1       1.155   9.864  18.880  0.00  0.00    +0.000 A 
ATOM      7  C   UNL     1       1.891   8.841  18.274  0.00  0.00    +0.000 A 
ENDBRANCH   1   2
BRANCH   1   8
ATOM      8  C   UNL     1       1.688   5.503  17.570  0.00  0.00    +0.000 C 
BRANCH   8  10
ATOM      9  O   UNL     1       2.058   3.259  16.769  0.00  0.00    +0.000 OA
ATOM     10  C   UNL     1       1.934   4.016  17.731  0.00  0.00    +0.000 C 
BRANCH  10  11
ATOM     11  C   UNL     1       2.117   3.463  19.107  0.00  0.00    +0.000 A 
ATOM     12  C   UNL     1       1.147   3.615  20.109  0.00  0.00    +0.000 A 
ATOM     13  C   UNL     1       1.387   3.127  21.398  0.00  0.00    +0.000 A 
ATOM     14  C   UNL     1       2.590   2.485  21.691  0.00  0.00    +0.000 A 
ATOM     15  C   UNL     1       3.549   2.324  20.691  0.00  0.00    +0.000 A 
ATOM     16 CL   UNL     1       5.030   1.528  21.054  0.00  0.00    +0.000 Cl
ATOM     17  C   UNL     1       3.322   2.812  19.403  0.00  0.00    +0.000 A 
ENDBRANCH  10  11
ENDBRANCH   8  10
ENDBRANCH   1   8
BRANCH   1  18
ATOM     18  S   UNL     1       4.047   6.918  16.914  0.00  0.00    +0.000 S 
BRANCH  18  19
ATOM     19  C   UNL     1       5.576   6.537  17.743  0.00  0.00    +0.000 A 
ATOM     20  C   UNL     1       5.651   5.521  18.704  0.00  0.00    +0.000 A 
ATOM     21  C   UNL     1       6.833   5.288  19.405  0.00  0.00    +0.000 A 
ATOM     22  C   UNL     1       7.970   6.033  19.105  0.00  0.00    +0.000 A 
ATOM     23  C   UNL     1       7.926   6.997  18.099  0.00  0.00    +0.000 A 
ATOM     24  C   UNL     1       6.734   7.245  17.419  0.00  0.00    +0.000 A 
ENDBRANCH  18  19
ENDBRANCH   1  18
TORSDOF 6
ENDMDL
MODEL 6
REMARK VINA RESULT:      -7.7      1.408      4.599
REMARK  Name = 
REMARK  6 active torsions:
REMARK  status: ('A' for Active; 'I' for Inactive)
REMARK    1  A    between atoms: C_2  and  C_3
REMARK    2  A    between atoms: C_2  and  C_18
REMARK    3  A    between atoms: C_3  and  C_4
REMARK    4  A    between atoms: C_4  and  S_5
REMARK    5  A    between atoms: C_4  and  C_12
REMARK    6  A    between atoms: S_5  and  C_6
REMARK                            x       y       z     vdW  Elec       q    Type
REMARK                         _______ _______ _______ _____ _____    ______ ____
ROOT
ATOM      1  C   UNL     1       4.431   6.217  18.284  0.00  0.00    +0.000 C 
ENDROOT
BRANCH   1   2
ATOM      2  C   UNL     1       5.318   5.717  17.126  0.00  0.00    +0.000 A 
ATOM      3  C   UNL     1       4.999   5.973  15.780  0.00  0.00    +0.000 A 
ATOM      4  C   UNL     1       5.721   5.385  14.735  0.00  0.00    +0.000 A 
ATOM      5  C   UNL     1       6.783   4.534  15.012  0.00  0.00    +0.000 A 
ATOM      6  C   UNL     1       7.182   4.346  16.329  0.00  0.00    +0.000 A 
ATOM      7  C   UNL     1       6.492   4.981  17.366  0.00  0.00    +0.000 A 
ENDBRANCH   1   2
BRANCH   1   8
ATOM      8  C   UNL     1       2.980   6.527  17.844  0.00  0.00    +0.000 C 
BRANCH   8  10
ATOM      9  O   UNL     1       2.817   8.800  17.058  0.00  0.00    +0.000 OA
ATOM     10  C   UNL     1       2.571   7.983  17.945  0.00  0.00    +0.000 C 
BRANCH  10  11
ATOM     11  C   UNL     1       1.766   8.424  19.124  0.00  0.00    +0.000 A 
ATOM     12  C   UNL     1       1.778   7.726  20.340  0.00  0.00    +0.000 A 
ATOM     13  C   UNL     1       0.965   8.146  21.398  0.00  0.00    +0.000 A 
ATOM     14  C   UNL     1       0.142   9.262  21.249  0.00  0.00    +0.000 A 
ATOM     15  C   UNL     1       0.139   9.962  20.043  0.00  0.00    +0.000 A 
ATOM     16 CL   UNL     1      -0.873  11.341  19.862  0.00  0.00    +0.000 Cl
ATOM     17  C   UNL     1       0.943   9.548  18.979  0.00  0.00    +0.000 A 
ENDBRANCH  10  11
ENDBRANCH   8  10
ENDBRANCH   1   8
BRANCH   1  18
ATOM     18  S   UNL     1       4.440   5.052  19.765  0.00  0.00    +0.000 S 
BRANCH  18  19
ATOM     19  C   UNL     1       3.080   3.964  19.396  0.00  0.00    +0.000 A 
ATOM     20  C   UNL     1       3.157   3.026  18.360  0.00  0.00    +0.000 A 
ATOM     21  C   UNL     1       2.057   2.237  18.028  0.00  0.00    +0.000 A 
ATOM     22  C   UNL     1       0.885   2.340  18.772  0.00  0.00    +0.000 A 
ATOM     23  C   UNL     1       0.822   3.219  19.853  0.00  0.00    +0.000 A 
ATOM     24  C   UNL     1       1.917   4.025  20.165  0.00  0.00    +0.000 A 
ENDBRANCH  18  19
ENDBRANCH   1  18
TORSDOF 6
ENDMDL
MODEL 7
REMARK VINA RESULT:      -7.7      1.681      2.403
REMARK  Name = 
REMARK  6 active torsions:
REMARK  status: ('A' for Active; 'I' for Inactive)
REMARK    1  A    between atoms: C_2  and  C_3
REMARK    2  A    between atoms: C_2  and  C_18
REMARK    3  A    between atoms: C_3  and  C_4
REMARK    4  A    between atoms: C_4  and  S_5
REMARK    5  A    between atoms: C_4  and  C_12
REMARK    6  A    between atoms: S_5  and  C_6
REMARK                            x       y       z     vdW  Elec       q    Type
REMARK                         _______ _______ _______ _____ _____    ______ ____
ROOT
ATOM      1  C   UNL     1       3.480   5.644  18.317  0.00  0.00    +0.000 C 
ENDROOT
BRANCH   1   2
ATOM      2  C   UNL     1       2.403   4.682  18.859  0.00  0.00    +0.000 A 
ATOM      3  C   UNL     1       1.951   4.744  20.190  0.00  0.00    +0.000 A 
ATOM      4  C   UNL     1       1.092   3.772  20.713  0.00  0.00    +0.000 A 
ATOM      5  C   UNL     1       0.659   2.720  19.917  0.00  0.00    +0.000 A 
ATOM      6  C   UNL     1       1.007   2.693  18.573  0.00  0.00    +0.000 A 
ATOM      7  C   UNL     1       1.820   3.698  18.041  0.00  0.00    +0.000 A 
ENDBRANCH   1   2
BRANCH   1   8
ATOM      8  C   UNL     1       3.398   7.058  18.942  0.00  0.00    +0.000 C 
BRANCH   8  10
ATOM      9  O   UNL     1       2.829   8.269  16.936  0.00  0.00    +0.000 OA
ATOM     10  C   UNL     1       2.619   8.076  18.133  0.00  0.00    +0.000 C 
BRANCH  10  11
ATOM     11  C   UNL     1       1.499   8.814  18.793  0.00  0.00    +0.000 A 
ATOM     12  C   UNL     1       0.651   9.675  18.082  0.00  0.00    +0.000 A 
ATOM     13  C   UNL     1      -0.350  10.386  18.752  0.00  0.00    +0.000 A 
ATOM     14  C   UNL     1      -0.510  10.239  20.130  0.00  0.00    +0.000 A 
ATOM     15  C   UNL     1       0.327   9.373  20.835  0.00  0.00    +0.000 A 
ATOM     16 CL   UNL     1       0.125   9.190  22.533  0.00  0.00    +0.000 Cl
ATOM     17  C   UNL     1       1.332   8.663  20.175  0.00  0.00    +0.000 A 
ENDBRANCH  10  11
ENDBRANCH   8  10
ENDBRANCH   1   8
BRANCH   1  18
ATOM     18  S   UNL     1       5.225   4.950  18.478  0.00  0.00    +0.000 S 
BRANCH  18  19
ATOM     19  C   UNL     1       5.730   4.802  16.777  0.00  0.00    +0.000 A 
ATOM     20  C   UNL     1       4.838   4.371  15.787  0.00  0.00    +0.000 A 
ATOM     21  C   UNL     1       5.267   4.181  14.474  0.00  0.00    +0.000 A 
ATOM     22  C   UNL     1       6.582   4.477  14.129  0.00  0.00    +0.000 A 
ATOM     23  C   UNL     1       7.459   4.975  15.092  0.00  0.00    +0.000 A 
ATOM     24  C   UNL     1       7.032   5.140  16.410  0.00  0.00    +0.000 A 
ENDBRANCH  18  19
ENDBRANCH   1  18
TORSDOF 6
ENDMDL
MODEL 8
REMARK VINA RESULT:      -7.6      1.511      2.161
REMARK  Name = 
REMARK  6 active torsions:
REMARK  status: ('A' for Active; 'I' for Inactive)
REMARK    1  A    between atoms: C_2  and  C_3
REMARK    2  A    between atoms: C_2  and  C_18
REMARK    3  A    between atoms: C_3  and  C_4
REMARK    4  A    between atoms: C_4  and  S_5
REMARK    5  A    between atoms: C_4  and  C_12
REMARK    6  A    between atoms: S_5  and  C_6
REMARK                            x       y       z     vdW  Elec       q    Type
REMARK                         _______ _______ _______ _____ _____    ______ ____
ROOT
ATOM      1  C   UNL     1       2.910   6.201  18.730  0.00  0.00    +0.000 C 
ENDROOT
BRANCH   1   2
ATOM      2  C   UNL     1       2.083   4.938  19.046  0.00  0.00    +0.000 A 
ATOM      3  C   UNL     1       1.592   4.674  20.338  0.00  0.00    +0.000 A 
ATOM      4  C   UNL     1       0.979   3.455  20.649  0.00  0.00    +0.000 A 
ATOM      5  C   UNL     1       0.836   2.476  19.675  0.00  0.00    +0.000 A 
ATOM      6  C   UNL     1       1.218   2.752  18.369  0.00  0.00    +0.000 A 
ATOM      7  C   UNL     1       1.779   3.992  18.051  0.00  0.00    +0.000 A 
ENDBRANCH   1   2
BRANCH   1   8
ATOM      8  C   UNL     1       2.335   7.480  19.385  0.00  0.00    +0.000 C 
BRANCH   8  10
ATOM      9  O   UNL     1       2.508   8.736  17.334  0.00  0.00    +0.000 OA
ATOM     10  C   UNL     1       1.946   8.581  18.418  0.00  0.00    +0.000 C 
BRANCH  10  11
ATOM     11  C   UNL     1       0.783   9.456  18.754  0.00  0.00    +0.000 A 
ATOM     12  C   UNL     1      -0.277   9.666  17.861  0.00  0.00    +0.000 A 
ATOM     13  C   UNL     1      -1.318  10.538  18.199  0.00  0.00    +0.000 A 
ATOM     14  C   UNL     1      -1.306  11.199  19.426  0.00  0.00    +0.000 A 
ATOM     15  C   UNL     1      -0.257  10.981  20.320  0.00  0.00    +0.000 A 
ATOM     16 CL   UNL     1      -0.247  11.794  21.835  0.00  0.00    +0.000 Cl
ATOM     17  C   UNL     1       0.789  10.117  19.990  0.00  0.00    +0.000 A 
ENDBRANCH  10  11
ENDBRANCH   8  10
ENDBRANCH   1   8
BRANCH   1  18
ATOM     18  S   UNL     1       4.736   6.002  19.157  0.00  0.00    +0.000 S 
BRANCH  18  19
ATOM     19  C   UNL     1       5.438   5.522  17.593  0.00  0.00    +0.000 A 
ATOM     20  C   UNL     1       6.541   4.663  17.523  0.00  0.00    +0.000 A 
ATOM     21  C   UNL     1       7.132   4.360  16.297  0.00  0.00    +0.000 A 
ATOM     22  C   UNL     1       6.585   4.870  15.123  0.00  0.00    +0.000 A 
ATOM     23  C   UNL     1       5.442   5.667  15.176  0.00  0.00    +0.000 A 
ATOM     24  C   UNL     1       4.870   5.988  16.407  0.00  0.00    +0.000 A 
ENDBRANCH  18  19
ENDBRANCH   1  18
TORSDOF 6
ENDMDL
MODEL 9
REMARK VINA RESULT:      -7.6      1.764      2.495
REMARK  Name = 
REMARK  6 active torsions:
REMARK  status: ('A' for Active; 'I' for Inactive)
REMARK    1  A    between atoms: C_2  and  C_3
REMARK    2  A    between atoms: C_2  and  C_18
REMARK    3  A    between atoms: C_3  and  C_4
REMARK    4  A    between atoms: C_4  and  S_5
REMARK    5  A    between atoms: C_4  and  C_12
REMARK    6  A    between atoms: S_5  and  C_6
REMARK                            x       y       z     vdW  Elec       q    Type
REMARK                         _______ _______ _______ _____ _____    ______ ____
ROOT
ATOM      1  C   UNL     1       2.746   6.352  18.508  0.00  0.00    +0.000 C 
ENDROOT
BRANCH   1   2
ATOM      2  C   UNL     1       2.008   5.073  18.954  0.00  0.00    +0.000 A 
ATOM      3  C   UNL     1       1.664   4.844  20.299  0.00  0.00    +0.000 A 
ATOM      4  C   UNL     1       1.137   3.617  20.717  0.00  0.00    +0.000 A 
ATOM      5  C   UNL     1       0.935   2.594  19.800  0.00  0.00    +0.000 A 
ATOM      6  C   UNL     1       1.169   2.830  18.452  0.00  0.00    +0.000 A 
ATOM      7  C   UNL     1       1.643   4.077  18.032  0.00  0.00    +0.000 A 
ENDBRANCH   1   2
BRANCH   1   8
ATOM      8  C   UNL     1       2.226   7.628  19.212  0.00  0.00    +0.000 C 
BRANCH   8  10
ATOM      9  O   UNL     1       2.458   8.961  17.216  0.00  0.00    +0.000 OA
ATOM     10  C   UNL     1       1.883   8.781  18.290  0.00  0.00    +0.000 C 
BRANCH  10  11
ATOM     11  C   UNL     1       0.749   9.682  18.656  0.00  0.00    +0.000 A 
ATOM     12  C   UNL     1       0.790  10.514  19.785  0.00  0.00    +0.000 A 
ATOM     13  C   UNL     1      -0.318  11.300  20.118  0.00  0.00    +0.000 A 
ATOM     14  C   UNL     1      -1.467  11.262  19.328  0.00  0.00    +0.000 A 
ATOM     15  C   UNL     1      -1.502  10.443  18.199  0.00  0.00    +0.000 A 
ATOM     16 CL   UNL     1      -2.918  10.401  17.223  0.00  0.00    +0.000 Cl
ATOM     17  C   UNL     1      -0.404   9.651  17.860  0.00  0.00    +0.000 A 
ENDBRANCH  10  11
ENDBRANCH   8  10
ENDBRANCH   1   8
BRANCH   1  18
ATOM     18  S   UNL     1       4.617   6.214  18.685  0.00  0.00    +0.000 S 
BRANCH  18  19
ATOM     19  C   UNL     1       5.089   5.477  17.134  0.00  0.00    +0.000 A 
ATOM     20  C   UNL     1       5.243   6.250  15.977  0.00  0.00    +0.000 A 
ATOM     21  C   UNL     1       5.532   5.651  14.752  0.00  0.00    +0.000 A 
ATOM     22  C   UNL     1       5.728   4.274  14.687  0.00  0.00    +0.000 A 
ATOM     23  C   UNL     1       5.648   3.504  15.846  0.00  0.00    +0.000 A 
ATOM     24  C   UNL     1       5.333   4.105  17.066  0.00  0.00    +0.000 A 
ENDBRANCH  18  19
ENDBRANCH   1  18
TORSDOF 6
ENDMDL
