MODEL 1
REMARK VINA RESULT:      -5.6      0.000      0.000
REMARK  Name = 
REMARK  3 active torsions:
REMARK  status: ('A' for Active; 'I' for Inactive)
REMARK    1  A    between atoms: C_1  and  C_2
REMARK    2  A    between atoms: C_2  and  N_3
REMARK    3  A    between atoms: C_2  and  C_4
REMARK                            x       y       z     vdW  Elec       q    Type
REMARK                         _______ _______ _______ _____ _____    ______ ____
ROOT
ATOM      1  C   UNL     1       4.242   3.565  18.589  0.00  0.00    +0.000 A 
ATOM      2  N   UNL     1       5.213   2.927  19.219  0.00  0.00    +0.000 NA
ATOM      3  N   UNL     1       4.721   2.448  20.411  0.00  0.00    +0.000 NA
ATOM      4  C   UNL     1       3.454   2.787  20.486  0.00  0.00    +0.000 A 
ATOM      5  C   UNL     1       2.451   2.551  21.466  0.00  0.00    +0.000 A 
ATOM      6  C   UNL     1       1.207   3.033  21.275  0.00  0.00    +0.000 A 
ATOM      7  C   UNL     1       0.863   3.797  20.084  0.00  0.00    +0.000 A 
ATOM      8  C   UNL     1       1.809   4.015  19.152  0.00  0.00    +0.000 A 
ATOM      9  N   UNL     1       3.094   3.508  19.355  0.00  0.00    +0.000 N 
ENDROOT
BRANCH   1  11
ATOM     10  C   UNL     1       4.577   5.740  17.401  0.00  0.00    +0.000 C 
ATOM     11  C   UNL     1       4.331   4.237  17.257  0.00  0.00    +0.000 C 
BRANCH  11  12
ATOM     12  N   UNL     1       5.396   3.628  16.451  0.00  0.00    +0.000 NA
ATOM     13  H   UNL     1       6.103   3.256  17.088  0.00  0.00    +0.000 HD
ATOM     14  H   UNL     1       5.870   4.353  15.915  0.00  0.00    +0.000 HD
ENDBRANCH  11  12
ENDBRANCH   1  11
TORSDOF 2
ENDMDL
MODEL 2
REMARK VINA RESULT:      -5.6      2.195      2.987
REMARK  Name = 
REMARK  3 active torsions:
REMARK  status: ('A' for Active; 'I' for Inactive)
REMARK    1  A    between atoms: C_1  and  C_2
REMARK    2  A    between atoms: C_2  and  N_3
REMARK    3  A    between atoms: C_2  and  C_4
REMARK                            x       y       z     vdW  Elec       q    Type
REMARK                         _______ _______ _______ _____ _____    ______ ____
ROOT
ATOM      1  C   UNL     1       6.083   5.642  17.968  0.00  0.00    +0.000 A 
ATOM      2  N   UNL     1       6.661   4.643  18.613  0.00  0.00    +0.000 NA
ATOM      3  N   UNL     1       5.701   3.981  19.343  0.00  0.00    +0.000 NA
ATOM      4  C   UNL     1       4.550   4.575  19.121  0.00  0.00    +0.000 A 
ATOM      5  C   UNL     1       3.230   4.317  19.585  0.00  0.00    +0.000 A 
ATOM      6  C   UNL     1       2.218   5.112  19.186  0.00  0.00    +0.000 A 
ATOM      7  C   UNL     1       2.444   6.237  18.289  0.00  0.00    +0.000 A 
ATOM      8  C   UNL     1       3.691   6.477  17.844  0.00  0.00    +0.000 A 
ATOM      9  N   UNL     1       4.734   5.646  18.258  0.00  0.00    +0.000 N 
ENDROOT
BRANCH   1  11
ATOM     10  C   UNL     1       7.747   7.503  17.803  0.00  0.00    +0.000 C 
ATOM     11  C   UNL     1       6.749   6.618  17.052  0.00  0.00    +0.000 C 
BRANCH  11  12
ATOM     12  N   UNL     1       7.429   5.910  15.961  0.00  0.00    +0.000 NA
ATOM     13  H   UNL     1       6.742   5.725  15.226  0.00  0.00    +0.000 HD
ATOM     14  H   UNL     1       7.727   4.992  16.288  0.00  0.00    +0.000 HD
ENDBRANCH  11  12
ENDBRANCH   1  11
TORSDOF 2
ENDMDL
MODEL 3
REMARK VINA RESULT:      -5.6      2.678      3.637
REMARK  Name = 
REMARK  3 active torsions:
REMARK  status: ('A' for Active; 'I' for Inactive)
REMARK    1  A    between atoms: C_1  and  C_2
REMARK    2  A    between atoms: C_2  and  N_3
REMARK    3  A    between atoms: C_2  and  C_4
REMARK                            x       y       z     vdW  Elec       q    Type
REMARK                         _______ _______ _______ _____ _____    ______ ____
ROOT
ATOM      1  C   UNL     1       5.584   5.168  16.719  0.00  0.00    +0.000 A 
ATOM      2  N   UNL     1       5.681   6.459  16.987  0.00  0.00    +0.000 NA
ATOM      3  N   UNL     1       4.493   6.883  17.536  0.00  0.00    +0.000 NA
ATOM      4  C   UNL     1       3.693   5.843  17.610  0.00  0.00    +0.000 A 
ATOM      5  C   UNL     1       2.368   5.682  18.100  0.00  0.00    +0.000 A 
ATOM      6  C   UNL     1       1.781   4.470  18.044  0.00  0.00    +0.000 A 
ATOM      7  C   UNL     1       2.472   3.316  17.487  0.00  0.00    +0.000 A 
ATOM      8  C   UNL     1       3.729   3.466  17.030  0.00  0.00    +0.000 A 
ATOM      9  N   UNL     1       4.332   4.723  17.096  0.00  0.00    +0.000 N 
ENDROOT
BRANCH   1  11
ATOM     10  C   UNL     1       7.035   4.774  14.721  0.00  0.00    +0.000 C 
ATOM     11  C   UNL     1       6.641   4.298  16.121  0.00  0.00    +0.000 C 
BRANCH  11  12
ATOM     12  N   UNL     1       7.823   4.263  16.990  0.00  0.00    +0.000 NA
ATOM     13  H   UNL     1       8.159   3.298  17.033  0.00  0.00    +0.000 HD
ATOM     14  H   UNL     1       7.548   4.495  17.944  0.00  0.00    +0.000 HD
ENDBRANCH  11  12
ENDBRANCH   1  11
TORSDOF 2
ENDMDL
MODEL 4
REMARK VINA RESULT:      -5.5      2.593      3.927
REMARK  Name = 
REMARK  3 active torsions:
REMARK  status: ('A' for Active; 'I' for Inactive)
REMARK    1  A    between atoms: C_1  and  C_2
REMARK    2  A    between atoms: C_2  and  N_3
REMARK    3  A    between atoms: C_2  and  C_4
REMARK                            x       y       z     vdW  Elec       q    Type
REMARK                         _______ _______ _______ _____ _____    ______ ____
ROOT
ATOM      1  C   UNL     1       5.520   5.364  16.033  0.00  0.00    +0.000 A 
ATOM      2  N   UNL     1       5.487   6.682  16.126  0.00  0.00    +0.000 NA
ATOM      3  N   UNL     1       4.454   7.037  16.962  0.00  0.00    +0.000 NA
ATOM      4  C   UNL     1       3.881   5.931  17.380  0.00  0.00    +0.000 A 
ATOM      5  C   UNL     1       2.792   5.687  18.262  0.00  0.00    +0.000 A 
ATOM      6  C   UNL     1       2.410   4.419  18.511  0.00  0.00    +0.000 A 
ATOM      7  C   UNL     1       3.084   3.286  17.892  0.00  0.00    +0.000 A 
ATOM      8  C   UNL     1       4.119   3.516  17.064  0.00  0.00    +0.000 A 
ATOM      9  N   UNL     1       4.513   4.832  16.815  0.00  0.00    +0.000 N 
ENDROOT
BRANCH   1  11
ATOM     10  C   UNL     1       5.854   4.042  13.937  0.00  0.00    +0.000 C 
ATOM     11  C   UNL     1       6.485   4.547  15.236  0.00  0.00    +0.000 C 
BRANCH  11  12
ATOM     12  N   UNL     1       7.690   5.331  14.938  0.00  0.00    +0.000 NA
ATOM     13  H   UNL     1       8.293   4.770  14.333  0.00  0.00    +0.000 HD
ATOM     14  H   UNL     1       8.223   5.470  15.795  0.00  0.00    +0.000 HD
ENDBRANCH  11  12
ENDBRANCH   1  11
TORSDOF 2
ENDMDL
MODEL 5
REMARK VINA RESULT:      -5.5      1.535      4.118
REMARK  Name = 
REMARK  3 active torsions:
REMARK  status: ('A' for Active; 'I' for Inactive)
REMARK    1  A    between atoms: C_1  and  C_2
REMARK    2  A    between atoms: C_2  and  N_3
REMARK    3  A    between atoms: C_2  and  C_4
REMARK                            x       y       z     vdW  Elec       q    Type
REMARK                         _______ _______ _______ _____ _____    ______ ____
ROOT
ATOM      1  C   UNL     1       3.289   3.924  20.006  0.00  0.00    +0.000 A 
ATOM      2  N   UNL     1       4.333   3.122  19.890  0.00  0.00    +0.000 NA
ATOM      3  N   UNL     1       5.204   3.667  18.975  0.00  0.00    +0.000 NA
ATOM      4  C   UNL     1       4.687   4.800  18.557  0.00  0.00    +0.000 A 
ATOM      5  C   UNL     1       5.145   5.785  17.639  0.00  0.00    +0.000 A 
ATOM      6  C   UNL     1       4.385   6.871  17.395  0.00  0.00    +0.000 A 
ATOM      7  C   UNL     1       3.098   7.061  18.049  0.00  0.00    +0.000 A 
ATOM      8  C   UNL     1       2.668   6.133  18.924  0.00  0.00    +0.000 A 
ATOM      9  N   UNL     1       3.462   5.013  19.175  0.00  0.00    +0.000 N 
ENDROOT
BRANCH   1  11
ATOM     10  C   UNL     1       0.919   3.136  20.128  0.00  0.00    +0.000 C 
ATOM     11  C   UNL     1       2.104   3.726  20.896  0.00  0.00    +0.000 C 
BRANCH  11  12
ATOM     12  N   UNL     1       2.455   2.855  22.024  0.00  0.00    +0.000 NA
ATOM     13  H   UNL     1       1.713   2.160  22.131  0.00  0.00    +0.000 HD
ATOM     14  H   UNL     1       2.442   3.399  22.886  0.00  0.00    +0.000 HD
ENDBRANCH  11  12
ENDBRANCH   1  11
TORSDOF 2
ENDMDL
MODEL 6
REMARK VINA RESULT:      -5.5      1.685      2.177
REMARK  Name = 
REMARK  3 active torsions:
REMARK  status: ('A' for Active; 'I' for Inactive)
REMARK    1  A    between atoms: C_1  and  C_2
REMARK    2  A    between atoms: C_2  and  N_3
REMARK    3  A    between atoms: C_2  and  C_4
REMARK                            x       y       z     vdW  Elec       q    Type
REMARK                         _______ _______ _______ _____ _____    ______ ____
ROOT
ATOM      1  C   UNL     1       5.543   4.373  17.416  0.00  0.00    +0.000 A 
ATOM      2  N   UNL     1       6.336   4.498  18.467  0.00  0.00    +0.000 NA
ATOM      3  N   UNL     1       5.687   3.990  19.567  0.00  0.00    +0.000 NA
ATOM      4  C   UNL     1       4.515   3.547  19.171  0.00  0.00    +0.000 A 
ATOM      5  C   UNL     1       3.444   2.913  19.860  0.00  0.00    +0.000 A 
ATOM      6  C   UNL     1       2.332   2.563  19.182  0.00  0.00    +0.000 A 
ATOM      7  C   UNL     1       2.198   2.824  17.756  0.00  0.00    +0.000 A 
ATOM      8  C   UNL     1       3.215   3.416  17.102  0.00  0.00    +0.000 A 
ATOM      9  N   UNL     1       4.365   3.771  17.810  0.00  0.00    +0.000 N 
ENDROOT
BRANCH   1  11
ATOM     10  C   UNL     1       5.279   6.173  15.700  0.00  0.00    +0.000 C 
ATOM     11  C   UNL     1       5.848   4.787  16.012  0.00  0.00    +0.000 C 
BRANCH  11  12
ATOM     12  N   UNL     1       7.297   4.775  15.781  0.00  0.00    +0.000 NA
ATOM     13  H   UNL     1       7.598   3.801  15.697  0.00  0.00    +0.000 HD
ATOM     14  H   UNL     1       7.774   5.133  16.607  0.00  0.00    +0.000 HD
ENDBRANCH  11  12
ENDBRANCH   1  11
TORSDOF 2
ENDMDL
MODEL 7
REMARK VINA RESULT:      -5.4      1.658      2.243
REMARK  Name = 
REMARK  3 active torsions:
REMARK  status: ('A' for Active; 'I' for Inactive)
REMARK    1  A    between atoms: C_1  and  C_2
REMARK    2  A    between atoms: C_2  and  N_3
REMARK    3  A    between atoms: C_2  and  C_4
REMARK                            x       y       z     vdW  Elec       q    Type
REMARK                         _______ _______ _______ _____ _____    ______ ____
ROOT
ATOM      1  C   UNL     1       4.051   4.799  18.309  0.00  0.00    +0.000 A 
ATOM      2  N   UNL     1       3.912   6.094  18.539  0.00  0.00    +0.000 NA
ATOM      3  N   UNL     1       2.862   6.273  19.409  0.00  0.00    +0.000 NA
ATOM      4  C   UNL     1       2.385   5.086  19.710  0.00  0.00    +0.000 A 
ATOM      5  C   UNL     1       1.329   4.662  20.564  0.00  0.00    +0.000 A 
ATOM      6  C   UNL     1       1.054   3.348  20.679  0.00  0.00    +0.000 A 
ATOM      7  C   UNL     1       1.813   2.345  19.943  0.00  0.00    +0.000 A 
ATOM      8  C   UNL     1       2.817   2.745  19.142  0.00  0.00    +0.000 A 
ATOM      9  N   UNL     1       3.099   4.108  19.032  0.00  0.00    +0.000 N 
ENDROOT
BRANCH   1  11
ATOM     10  C   UNL     1       5.234   4.908  16.108  0.00  0.00    +0.000 C 
ATOM     11  C   UNL     1       5.072   4.152  17.429  0.00  0.00    +0.000 C 
BRANCH  11  12
ATOM     12  N   UNL     1       6.363   4.071  18.123  0.00  0.00    +0.000 NA
ATOM     13  H   UNL     1       6.906   3.317  17.696  0.00  0.00    +0.000 HD
ATOM     14  H   UNL     1       6.210   3.780  19.087  0.00  0.00    +0.000 HD
ENDBRANCH  11  12
ENDBRANCH   1  11
TORSDOF 2
ENDMDL
MODEL 8
REMARK VINA RESULT:      -5.4      1.516      3.989
REMARK  Name = 
REMARK  3 active torsions:
REMARK  status: ('A' for Active; 'I' for Inactive)
REMARK    1  A    between atoms: C_1  and  C_2
REMARK    2  A    between atoms: C_2  and  N_3
REMARK    3  A    between atoms: C_2  and  C_4
REMARK                            x       y       z     vdW  Elec       q    Type
REMARK                         _______ _______ _______ _____ _____    ______ ____
ROOT
ATOM      1  C   UNL     1       2.808   3.427  19.647  0.00  0.00    +0.000 A 
ATOM      2  N   UNL     1       3.705   2.582  20.126  0.00  0.00    +0.000 NA
ATOM      3  N   UNL     1       4.956   3.009  19.745  0.00  0.00    +0.000 NA
ATOM      4  C   UNL     1       4.807   4.116  19.053  0.00  0.00    +0.000 A 
ATOM      5  C   UNL     1       5.737   4.996  18.433  0.00  0.00    +0.000 A 
ATOM      6  C   UNL     1       5.287   6.080  17.772  0.00  0.00    +0.000 A 
ATOM      7  C   UNL     1       3.864   6.373  17.671  0.00  0.00    +0.000 A 
ATOM      8  C   UNL     1       2.984   5.546  18.264  0.00  0.00    +0.000 A 
ATOM      9  N   UNL     1       3.458   4.427  18.952  0.00  0.00    +0.000 N 
ENDROOT
BRANCH   1  11
ATOM     10  C   UNL     1       0.682   2.427  18.790  0.00  0.00    +0.000 C 
ATOM     11  C   UNL     1       1.326   3.352  19.825  0.00  0.00    +0.000 C 
BRANCH  11  12
ATOM     12  N   UNL     1       0.999   2.894  21.181  0.00  0.00    +0.000 NA
ATOM     13  H   UNL     1       1.830   3.009  21.765  0.00  0.00    +0.000 HD
ATOM     14  H   UNL     1       0.818   1.891  21.164  0.00  0.00    +0.000 HD
ENDBRANCH  11  12
ENDBRANCH   1  11
TORSDOF 2
ENDMDL
MODEL 9
REMARK VINA RESULT:      -5.4      2.146      4.851
REMARK  Name = 
REMARK  3 active torsions:
REMARK  status: ('A' for Active; 'I' for Inactive)
REMARK    1  A    between atoms: C_1  and  C_2
REMARK    2  A    between atoms: C_2  and  N_3
REMARK    3  A    between atoms: C_2  and  C_4
REMARK                            x       y       z     vdW  Elec       q    Type
REMARK                         _______ _______ _______ _____ _____    ______ ____
ROOT
ATOM      1  C   UNL     1       5.018   4.552  18.935  0.00  0.00    +0.000 A 
ATOM      2  N   UNL     1       6.067   4.829  19.691  0.00  0.00    +0.000 NA
ATOM      3  N   UNL     1       7.173   4.939  18.881  0.00  0.00    +0.000 NA
ATOM      4  C   UNL     1       6.782   4.745  17.642  0.00  0.00    +0.000 A 
ATOM      5  C   UNL     1       7.478   4.758  16.401  0.00  0.00    +0.000 A 
ATOM      6  C   UNL     1       6.805   4.515  15.259  0.00  0.00    +0.000 A 
ATOM      7  C   UNL     1       5.376   4.233  15.264  0.00  0.00    +0.000 A 
ATOM      8  C   UNL     1       4.716   4.228  16.437  0.00  0.00    +0.000 A 
ATOM      9  N   UNL     1       5.419   4.486  17.615  0.00  0.00    +0.000 N 
ENDROOT
BRANCH   1  11
ATOM     10  C   UNL     1       3.443   3.023  20.132  0.00  0.00    +0.000 C 
ATOM     11  C   UNL     1       3.610   4.354  19.397  0.00  0.00    +0.000 C 
BRANCH  11  12
ATOM     12  N   UNL     1       3.199   5.464  20.265  0.00  0.00    +0.000 NA
ATOM     13  H   UNL     1       3.275   5.152  21.236  0.00  0.00    +0.000 HD
ATOM     14  H   UNL     1       2.210   5.658  20.120  0.00  0.00    +0.000 HD
ENDBRANCH  11  12
ENDBRANCH   1  11
TORSDOF 2
ENDMDL
