MODEL 1
REMARK VINA RESULT:      -7.9      0.000      0.000
REMARK  Name = 
REMARK  7 active torsions:
REMARK  status: ('A' for Active; 'I' for Inactive)
REMARK    1  A    between atoms: C_1  and  N_2
REMARK    2  A    between atoms: C_5  and  O_6
REMARK    3  A    between atoms: O_6  and  C_7
REMARK    4  A    between atoms: C_8  and  O_9
REMARK    5  A    between atoms: C_11  and  O_12
REMARK    6  A    between atoms: C_17  and  C_18
REMARK    7  A    between atoms: C_21  and  N_22
REMARK                            x       y       z     vdW  Elec       q    Type
REMARK                         _______ _______ _______ _____ _____    ______ ____
ROOT
ATOM      1  C   UNL     1       0.528  13.524  19.942  0.00  0.00    +0.000 A 
ATOM      2  C   UNL     1      -0.202  14.615  20.436  0.00  0.00    +0.000 A 
ATOM      3  C   UNL     1      -0.941  14.537  21.611  0.00  0.00    +0.000 A 
ATOM      4  C   UNL     1      -1.007  13.324  22.289  0.00  0.00    +0.000 A 
ATOM      5  C   UNL     1      -0.368  12.187  21.771  0.00  0.00    +0.000 A 
ATOM      6  C   UNL     1      -0.492  10.857  22.422  0.00  0.00    +0.000 A 
ATOM      7  O   UNL     1      -1.077  10.646  23.471  0.00  0.00    +0.000 OA
ATOM      8  C   UNL     1       0.149   9.731  21.732  0.00  0.00    +0.000 A 
ATOM      9  C   UNL     1       0.827   9.958  20.609  0.00  0.00    +0.000 A 
ATOM     10  O   UNL     1       0.968  11.184  20.004  0.00  0.00    +0.000 OA
ATOM     11  C   UNL     1       0.392  12.289  20.591  0.00  0.00    +0.000 A 
ENDROOT
BRANCH   9  12
ATOM     12  C   UNL     1       1.430   8.835  19.892  0.00  0.00    +0.000 A 
ATOM     13  C   UNL     1       1.703   7.652  20.576  0.00  0.00    +0.000 A 
ATOM     14  C   UNL     1       2.320   6.588  19.915  0.00  0.00    +0.000 A 
ATOM     15  C   UNL     1       2.670   6.659  18.558  0.00  0.00    +0.000 A 
ATOM     16  C   UNL     1       2.419   7.868  17.898  0.00  0.00    +0.000 A 
ATOM     17  C   UNL     1       1.798   8.943  18.548  0.00  0.00    +0.000 A 
BRANCH  15  18
ATOM     18  N   UNL     1       3.166   5.563  17.888  0.00  0.00    +0.000 N 
ATOM     19  C   UNL     1       4.388   5.659  17.082  0.00  0.00    +0.000 C 
ATOM     20  C   UNL     1       5.290   4.448  17.396  0.00  0.00    +0.000 C 
ATOM     21  N   UNL     1       4.624   3.154  17.151  0.00  0.00    +0.000 NA
ATOM     22  C   UNL     1       3.364   3.094  17.922  0.00  0.00    +0.000 C 
ATOM     23  C   UNL     1       2.421   4.307  17.715  0.00  0.00    +0.000 C 
ATOM     24  H   UNL     1       5.240   2.405  17.464  0.00  0.00    +0.000 HD
ENDBRANCH  15  18
ENDBRANCH   9  12
BRANCH   2  25
ATOM     25  O   UNL     1      -0.232  15.802  19.756  0.00  0.00    +0.000 OA
ATOM     26  H   UNL     1      -1.169  16.076  19.742  0.00  0.00    +0.000 HD
ENDBRANCH   2  25
BRANCH   4  27
ATOM     27  O   UNL     1      -1.730  13.258  23.447  0.00  0.00    +0.000 OA
ATOM     28  H   UNL     1      -1.328  12.622  24.061  0.00  0.00    +0.000 HD
ENDBRANCH   4  27
BRANCH   1  29
ATOM     29  O   UNL     1       1.272  13.795  18.818  0.00  0.00    +0.000 OA
BRANCH  29  34
ATOM     30  C   UNL     1       6.437  15.944  19.416  0.00  0.00    +0.000 C 
ATOM     31  N   UNL     1       5.015  15.634  19.276  0.00  0.00    +0.000 NA
ATOM     32  C   UNL     1       4.752  14.982  17.985  0.00  0.00    +0.000 C 
ATOM     33  C   UNL     1       3.259  14.722  17.810  0.00  0.00    +0.000 C 
ATOM     34  C   UNL     1       2.701  13.884  18.961  0.00  0.00    +0.000 C 
ATOM     35  C   UNL     1       3.041  14.557  20.294  0.00  0.00    +0.000 C 
ATOM     36  C   UNL     1       4.547  14.808  20.397  0.00  0.00    +0.000 C 
ENDBRANCH  29  34
ENDBRANCH   1  29
TORSDOF 6
ENDMDL
MODEL 2
REMARK VINA RESULT:      -7.9      1.284      1.848
REMARK  Name = 
REMARK  7 active torsions:
REMARK  status: ('A' for Active; 'I' for Inactive)
REMARK    1  A    between atoms: C_1  and  N_2
REMARK    2  A    between atoms: C_5  and  O_6
REMARK    3  A    between atoms: O_6  and  C_7
REMARK    4  A    between atoms: C_8  and  O_9
REMARK    5  A    between atoms: C_11  and  O_12
REMARK    6  A    between atoms: C_17  and  C_18
REMARK    7  A    between atoms: C_21  and  N_22
REMARK                            x       y       z     vdW  Elec       q    Type
REMARK                         _______ _______ _______ _____ _____    ______ ____
ROOT
ATOM      1  C   UNL     1       0.238  12.229  19.570  0.00  0.00    +0.000 A 
ATOM      2  C   UNL     1      -0.726  13.154  19.990  0.00  0.00    +0.000 A 
ATOM      3  C   UNL     1      -1.504  12.948  21.125  0.00  0.00    +0.000 A 
ATOM      4  C   UNL     1      -1.363  11.758  21.833  0.00  0.00    +0.000 A 
ATOM      5  C   UNL     1      -0.475  10.768  21.385  0.00  0.00    +0.000 A 
ATOM      6  C   UNL     1      -0.365   9.452  22.066  0.00  0.00    +0.000 A 
ATOM      7  O   UNL     1      -0.957   9.144  23.087  0.00  0.00    +0.000 OA
ATOM      8  C   UNL     1       0.533   8.470  21.446  0.00  0.00    +0.000 A 
ATOM      9  C   UNL     1       1.217   8.811  20.357  0.00  0.00    +0.000 A 
ATOM     10  O   UNL     1       1.141  10.029  19.725  0.00  0.00    +0.000 OA
ATOM     11  C   UNL     1       0.318  11.003  20.246  0.00  0.00    +0.000 A 
ENDROOT
BRANCH   9  12
ATOM     12  C   UNL     1       2.078   7.824  19.707  0.00  0.00    +0.000 A 
ATOM     13  C   UNL     1       2.589   8.089  18.438  0.00  0.00    +0.000 A 
ATOM     14  C   UNL     1       3.376   7.136  17.788  0.00  0.00    +0.000 A 
ATOM     15  C   UNL     1       3.689   5.903  18.378  0.00  0.00    +0.000 A 
ATOM     16  C   UNL     1       3.138   5.642  19.638  0.00  0.00    +0.000 A 
ATOM     17  C   UNL     1       2.348   6.590  20.304  0.00  0.00    +0.000 A 
BRANCH  15  18
ATOM     18  N   UNL     1       4.563   5.024  17.779  0.00  0.00    +0.000 N 
ATOM     19  C   UNL     1       4.141   4.190  16.647  0.00  0.00    +0.000 C 
ATOM     20  C   UNL     1       5.230   4.238  15.558  0.00  0.00    +0.000 C 
ATOM     21  N   UNL     1       6.552   3.797  16.043  0.00  0.00    +0.000 NA
ATOM     22  C   UNL     1       6.940   4.603  17.221  0.00  0.00    +0.000 C 
ATOM     23  C   UNL     1       5.872   4.663  18.343  0.00  0.00    +0.000 C 
ATOM     24  H   UNL     1       7.237   3.940  15.303  0.00  0.00    +0.000 HD
ENDBRANCH  15  18
ENDBRANCH   9  12
BRANCH   2  25
ATOM     25  O   UNL     1      -0.957  14.299  19.276  0.00  0.00    +0.000 OA
ATOM     26  H   UNL     1      -0.365  14.251  18.501  0.00  0.00    +0.000 HD
ENDBRANCH   2  25
BRANCH   4  27
ATOM     27  O   UNL     1      -2.125  11.565  22.950  0.00  0.00    +0.000 OA
ATOM     28  H   UNL     1      -1.616  11.779  23.749  0.00  0.00    +0.000 HD
ENDBRANCH   4  27
BRANCH   1  29
ATOM     29  O   UNL     1       0.978  12.626  18.481  0.00  0.00    +0.000 OA
BRANCH  29  34
ATOM     30  C   UNL     1       5.130  16.191  19.792  0.00  0.00    +0.000 C 
ATOM     31  N   UNL     1       3.892  15.464  19.513  0.00  0.00    +0.000 NA
ATOM     32  C   UNL     1       3.841  15.050  18.103  0.00  0.00    +0.000 C 
ATOM     33  C   UNL     1       2.520  14.351  17.796  0.00  0.00    +0.000 C 
ATOM     34  C   UNL     1       2.297  13.153  18.719  0.00  0.00    +0.000 C 
ATOM     35  C   UNL     1       2.413  13.603  20.178  0.00  0.00    +0.000 C 
ATOM     36  C   UNL     1       3.749  14.312  20.413  0.00  0.00    +0.000 C 
ENDBRANCH  29  34
ENDBRANCH   1  29
TORSDOF 6
ENDMDL
MODEL 3
REMARK VINA RESULT:      -7.8      1.039      1.383
REMARK  Name = 
REMARK  7 active torsions:
REMARK  status: ('A' for Active; 'I' for Inactive)
REMARK    1  A    between atoms: C_1  and  N_2
REMARK    2  A    between atoms: C_5  and  O_6
REMARK    3  A    between atoms: O_6  and  C_7
REMARK    4  A    between atoms: C_8  and  O_9
REMARK    5  A    between atoms: C_11  and  O_12
REMARK    6  A    between atoms: C_17  and  C_18
REMARK    7  A    between atoms: C_21  and  N_22
REMARK                            x       y       z     vdW  Elec       q    Type
REMARK                         _______ _______ _______ _____ _____    ______ ____
ROOT
ATOM      1  C   UNL     1      -0.245  13.778  19.812  0.00  0.00    +0.000 A 
ATOM      2  C   UNL     1      -1.115  14.793  20.233  0.00  0.00    +0.000 A 
ATOM      3  C   UNL     1      -1.901  14.666  21.373  0.00  0.00    +0.000 A 
ATOM      4  C   UNL     1      -1.870  13.472  22.086  0.00  0.00    +0.000 A 
ATOM      5  C   UNL     1      -1.083  12.399  21.638  0.00  0.00    +0.000 A 
ATOM      6  C   UNL     1      -1.094  11.083  22.325  0.00  0.00    +0.000 A 
ATOM      7  O   UNL     1      -1.707  10.836  23.351  0.00  0.00    +0.000 OA
ATOM      8  C   UNL     1      -0.298  10.016  21.705  0.00  0.00    +0.000 A 
ATOM      9  C   UNL     1       0.408  10.286  20.610  0.00  0.00    +0.000 A 
ATOM     10  O   UNL     1       0.445  11.503  19.972  0.00  0.00    +0.000 OA
ATOM     11  C   UNL     1      -0.278  12.553  20.493  0.00  0.00    +0.000 A 
ENDROOT
BRANCH   9  12
ATOM     12  C   UNL     1       1.167   9.218  19.960  0.00  0.00    +0.000 A 
ATOM     13  C   UNL     1       1.500   9.336  18.612  0.00  0.00    +0.000 A 
ATOM     14  C   UNL     1       2.186   8.304  17.968  0.00  0.00    +0.000 A 
ATOM     15  C   UNL     1       2.571   7.135  18.641  0.00  0.00    +0.000 A 
ATOM     16  C   UNL     1       2.197   7.020  19.985  0.00  0.00    +0.000 A 
ATOM     17  C   UNL     1       1.511   8.049  20.645  0.00  0.00    +0.000 A 
BRANCH  15  18
ATOM     18  N   UNL     1       3.351   6.179  18.028  0.00  0.00    +0.000 N 
ATOM     19  C   UNL     1       4.582   6.549  17.320  0.00  0.00    +0.000 C 
ATOM     20  C   UNL     1       5.702   5.569  17.723  0.00  0.00    +0.000 C 
ATOM     21  N   UNL     1       5.363   4.160  17.443  0.00  0.00    +0.000 NA
ATOM     22  C   UNL     1       4.089   3.816  18.111  0.00  0.00    +0.000 C 
ATOM     23  C   UNL     1       2.920   4.790  17.812  0.00  0.00    +0.000 C 
ATOM     24  H   UNL     1       6.103   3.565  17.815  0.00  0.00    +0.000 HD
ENDBRANCH  15  18
ENDBRANCH   9  12
BRANCH   2  25
ATOM     25  O   UNL     1      -1.239  15.951  19.514  0.00  0.00    +0.000 OA
ATOM     26  H   UNL     1      -1.298  15.677  18.579  0.00  0.00    +0.000 HD
ENDBRANCH   2  25
BRANCH   4  27
ATOM     27  O   UNL     1      -2.640  13.358  23.209  0.00  0.00    +0.000 OA
ATOM     28  H   UNL     1      -3.502  13.784  23.073  0.00  0.00    +0.000 HD
ENDBRANCH   4  27
BRANCH   1  29
ATOM     29  O   UNL     1       0.522  14.098  18.717  0.00  0.00    +0.000 OA
BRANCH  29  34
ATOM     30  C   UNL     1       5.882  15.500  17.737  0.00  0.00    +0.000 C 
ATOM     31  N   UNL     1       4.464  15.146  17.731  0.00  0.00    +0.000 NA
ATOM     32  C   UNL     1       4.261  13.815  18.321  0.00  0.00    +0.000 C 
ATOM     33  C   UNL     1       2.790  13.416  18.253  0.00  0.00    +0.000 C 
ATOM     34  C   UNL     1       1.900  14.452  18.939  0.00  0.00    +0.000 C 
ATOM     35  C   UNL     1       2.174  15.836  18.344  0.00  0.00    +0.000 C 
ATOM     36  C   UNL     1       3.667  16.165  18.426  0.00  0.00    +0.000 C 
ENDBRANCH  29  34
ENDBRANCH   1  29
TORSDOF 6
ENDMDL
MODEL 4
REMARK VINA RESULT:      -7.8      3.538      5.133
REMARK  Name = 
REMARK  7 active torsions:
REMARK  status: ('A' for Active; 'I' for Inactive)
REMARK    1  A    between atoms: C_1  and  N_2
REMARK    2  A    between atoms: C_5  and  O_6
REMARK    3  A    between atoms: O_6  and  C_7
REMARK    4  A    between atoms: C_8  and  O_9
REMARK    5  A    between atoms: C_11  and  O_12
REMARK    6  A    between atoms: C_17  and  C_18
REMARK    7  A    between atoms: C_21  and  N_22
REMARK                            x       y       z     vdW  Elec       q    Type
REMARK                         _______ _______ _______ _____ _____    ______ ____
ROOT
ATOM      1  C   UNL     1      -2.954  12.082  19.664  0.00  0.00    +0.000 A 
ATOM      2  C   UNL     1      -3.734  13.118  20.195  0.00  0.00    +0.000 A 
ATOM      3  C   UNL     1      -3.187  14.128  20.979  0.00  0.00    +0.000 A 
ATOM      4  C   UNL     1      -1.833  14.078  21.295  0.00  0.00    +0.000 A 
ATOM      5  C   UNL     1      -1.042  13.003  20.860  0.00  0.00    +0.000 A 
ATOM      6  C   UNL     1       0.385  12.874  21.254  0.00  0.00    +0.000 A 
ATOM      7  O   UNL     1       1.006  13.697  21.907  0.00  0.00    +0.000 OA
ATOM      8  C   UNL     1       1.077  11.658  20.809  0.00  0.00    +0.000 A 
ATOM      9  C   UNL     1       0.421  10.775  20.060  0.00  0.00    +0.000 A 
ATOM     10  O   UNL     1      -0.892  10.888  19.671  0.00  0.00    +0.000 OA
ATOM     11  C   UNL     1      -1.609  12.000  20.052  0.00  0.00    +0.000 A 
ENDROOT
BRANCH   9  12
ATOM     12  C   UNL     1       1.089   9.540  19.652  0.00  0.00    +0.000 A 
ATOM     13  C   UNL     1       1.258   8.513  20.579  0.00  0.00    +0.000 A 
ATOM     14  C   UNL     1       1.934   7.346  20.215  0.00  0.00    +0.000 A 
ATOM     15  C   UNL     1       2.449   7.158  18.923  0.00  0.00    +0.000 A 
ATOM     16  C   UNL     1       2.299   8.215  18.017  0.00  0.00    +0.000 A 
ATOM     17  C   UNL     1       1.621   9.390  18.368  0.00  0.00    +0.000 A 
BRANCH  15  18
ATOM     18  N   UNL     1       3.005   5.957  18.542  0.00  0.00    +0.000 N 
ATOM     19  C   UNL     1       2.294   4.692  18.761  0.00  0.00    +0.000 C 
ATOM     20  C   UNL     1       2.387   3.840  17.479  0.00  0.00    +0.000 C 
ATOM     21  N   UNL     1       3.777   3.572  17.063  0.00  0.00    +0.000 NA
ATOM     22  C   UNL     1       4.500   4.853  16.905  0.00  0.00    +0.000 C 
ATOM     23  C   UNL     1       4.406   5.803  18.127  0.00  0.00    +0.000 C 
ATOM     24  H   UNL     1       3.763   3.087  16.167  0.00  0.00    +0.000 HD
ENDBRANCH  15  18
ENDBRANCH   9  12
BRANCH   2  25
ATOM     25  O   UNL     1      -5.085  13.159  19.978  0.00  0.00    +0.000 OA
ATOM     26  H   UNL     1      -5.497  12.888  20.820  0.00  0.00    +0.000 HD
ENDBRANCH   2  25
BRANCH   4  27
ATOM     27  O   UNL     1      -1.301  15.078  22.060  0.00  0.00    +0.000 OA
ATOM     28  H   UNL     1      -1.868  15.866  22.031  0.00  0.00    +0.000 HD
ENDBRANCH   4  27
BRANCH   1  29
ATOM     29  O   UNL     1      -3.635  11.215  18.842  0.00  0.00    +0.000 OA
BRANCH  29  34
ATOM     30  C   UNL     1      -3.578   9.838  13.387  0.00  0.00    +0.000 C 
ATOM     31  N   UNL     1      -3.778  10.011  14.825  0.00  0.00    +0.000 NA
ATOM     32  C   UNL     1      -2.535   9.726  15.558  0.00  0.00    +0.000 C 
ATOM     33  C   UNL     1      -2.761   9.839  17.062  0.00  0.00    +0.000 C 
ATOM     34  C   UNL     1      -3.306  11.217  17.440  0.00  0.00    +0.000 C 
ATOM     35  C   UNL     1      -4.565  11.511  16.621  0.00  0.00    +0.000 C 
ATOM     36  C   UNL     1      -4.276  11.360  15.125  0.00  0.00    +0.000 C 
ENDBRANCH  29  34
ENDBRANCH   1  29
TORSDOF 6
ENDMDL
MODEL 5
REMARK VINA RESULT:      -7.8      3.428      5.033
REMARK  Name = 
REMARK  7 active torsions:
REMARK  status: ('A' for Active; 'I' for Inactive)
REMARK    1  A    between atoms: C_1  and  N_2
REMARK    2  A    between atoms: C_5  and  O_6
REMARK    3  A    between atoms: O_6  and  C_7
REMARK    4  A    between atoms: C_8  and  O_9
REMARK    5  A    between atoms: C_11  and  O_12
REMARK    6  A    between atoms: C_17  and  C_18
REMARK    7  A    between atoms: C_21  and  N_22
REMARK                            x       y       z     vdW  Elec       q    Type
REMARK                         _______ _______ _______ _____ _____    ______ ____
ROOT
ATOM      1  C   UNL     1      -2.678  12.201  19.843  0.00  0.00    +0.000 A 
ATOM      2  C   UNL     1      -3.407  13.252  20.416  0.00  0.00    +0.000 A 
ATOM      3  C   UNL     1      -2.797  14.255  21.161  0.00  0.00    +0.000 A 
ATOM      4  C   UNL     1      -1.428  14.183  21.397  0.00  0.00    +0.000 A 
ATOM      5  C   UNL     1      -0.682  13.094  20.920  0.00  0.00    +0.000 A 
ATOM      6  C   UNL     1       0.763  12.942  21.229  0.00  0.00    +0.000 A 
ATOM      7  O   UNL     1       1.435  13.756  21.840  0.00  0.00    +0.000 OA
ATOM      8  C   UNL     1       1.406  11.712  20.749  0.00  0.00    +0.000 A 
ATOM      9  C   UNL     1       0.693  10.838  20.044  0.00  0.00    +0.000 A 
ATOM     10  O   UNL     1      -0.639  10.972  19.733  0.00  0.00    +0.000 OA
ATOM     11  C   UNL     1      -1.313  12.098  20.151  0.00  0.00    +0.000 A 
ENDROOT
BRANCH   9  12
ATOM     12  C   UNL     1       1.314   9.591  19.601  0.00  0.00    +0.000 A 
ATOM     13  C   UNL     1       1.713   9.458  18.272  0.00  0.00    +0.000 A 
ATOM     14  C   UNL     1       2.267   8.256  17.825  0.00  0.00    +0.000 A 
ATOM     15  C   UNL     1       2.453   7.160  18.680  0.00  0.00    +0.000 A 
ATOM     16  C   UNL     1       2.014   7.302  20.002  0.00  0.00    +0.000 A 
ATOM     17  C   UNL     1       1.458   8.502  20.465  0.00  0.00    +0.000 A 
BRANCH  15  18
ATOM     18  N   UNL     1       3.110   6.026  18.258  0.00  0.00    +0.000 N 
ATOM     19  C   UNL     1       4.404   6.113  17.572  0.00  0.00    +0.000 C 
ATOM     20  C   UNL     1       5.360   5.065  18.175  0.00  0.00    +0.000 C 
ATOM     21  N   UNL     1       4.835   3.688  18.088  0.00  0.00    +0.000 NA
ATOM     22  C   UNL     1       3.504   3.626  18.730  0.00  0.00    +0.000 C 
ATOM     23  C   UNL     1       2.495   4.691  18.227  0.00  0.00    +0.000 C 
ATOM     24  H   UNL     1       5.471   3.064  18.584  0.00  0.00    +0.000 HD
ENDBRANCH  15  18
ENDBRANCH   9  12
BRANCH   2  25
ATOM     25  O   UNL     1      -4.768  13.316  20.279  0.00  0.00    +0.000 OA
ATOM     26  H   UNL     1      -4.984  12.745  19.518  0.00  0.00    +0.000 HD
ENDBRANCH   2  25
BRANCH   4  27
ATOM     27  O   UNL     1      -0.834  15.176  22.124  0.00  0.00    +0.000 OA
ATOM     28  H   UNL     1      -0.949  16.034  21.684  0.00  0.00    +0.000 HD
ENDBRANCH   4  27
BRANCH   1  29
ATOM     29  O   UNL     1      -3.421  11.344  19.067  0.00  0.00    +0.000 OA
BRANCH  29  34
ATOM     30  C   UNL     1      -3.703   9.976  13.616  0.00  0.00    +0.000 C 
ATOM     31  N   UNL     1      -3.793  10.129  15.068  0.00  0.00    +0.000 NA
ATOM     32  C   UNL     1      -2.468   9.972  15.687  0.00  0.00    +0.000 C 
ATOM     33  C   UNL     1      -2.572  10.063  17.206  0.00  0.00    +0.000 C 
ATOM     34  C   UNL     1      -3.218  11.379  17.642  0.00  0.00    +0.000 C 
ATOM     35  C   UNL     1      -4.568  11.542  16.938  0.00  0.00    +0.000 C 
ATOM     36  C   UNL     1      -4.397  11.420  15.421  0.00  0.00    +0.000 C 
ENDBRANCH  29  34
ENDBRANCH   1  29
TORSDOF 6
ENDMDL
MODEL 6
REMARK VINA RESULT:      -7.7      1.162      1.703
REMARK  Name = 
REMARK  7 active torsions:
REMARK  status: ('A' for Active; 'I' for Inactive)
REMARK    1  A    between atoms: C_1  and  N_2
REMARK    2  A    between atoms: C_5  and  O_6
REMARK    3  A    between atoms: O_6  and  C_7
REMARK    4  A    between atoms: C_8  and  O_9
REMARK    5  A    between atoms: C_11  and  O_12
REMARK    6  A    between atoms: C_17  and  C_18
REMARK    7  A    between atoms: C_21  and  N_22
REMARK                            x       y       z     vdW  Elec       q    Type
REMARK                         _______ _______ _______ _____ _____    ______ ____
ROOT
ATOM      1  C   UNL     1      -0.616  12.744  19.883  0.00  0.00    +0.000 A 
ATOM      2  C   UNL     1      -1.538  13.616  20.478  0.00  0.00    +0.000 A 
ATOM      3  C   UNL     1      -1.996  13.433  21.778  0.00  0.00    +0.000 A 
ATOM      4  C   UNL     1      -1.572  12.316  22.492  0.00  0.00    +0.000 A 
ATOM      5  C   UNL     1      -0.725  11.371  21.893  0.00  0.00    +0.000 A 
ATOM      6  C   UNL     1      -0.325  10.125  22.596  0.00  0.00    +0.000 A 
ATOM      7  O   UNL     1      -0.621   9.847  23.747  0.00  0.00    +0.000 OA
ATOM      8  C   UNL     1       0.490   9.175  21.828  0.00  0.00    +0.000 A 
ATOM      9  C   UNL     1       0.855   9.488  20.586  0.00  0.00    +0.000 A 
ATOM     10  O   UNL     1       0.510  10.645  19.929  0.00  0.00    +0.000 OA
ATOM     11  C   UNL     1      -0.256  11.584  20.583  0.00  0.00    +0.000 A 
ENDROOT
BRANCH   9  12
ATOM     12  C   UNL     1       1.627   8.529  19.799  0.00  0.00    +0.000 A 
ATOM     13  C   UNL     1       1.980   8.845  18.488  0.00  0.00    +0.000 A 
ATOM     14  C   UNL     1       2.679   7.919  17.709  0.00  0.00    +0.000 A 
ATOM     15  C   UNL     1       3.059   6.665  18.209  0.00  0.00    +0.000 A 
ATOM     16  C   UNL     1       2.666   6.354  19.516  0.00  0.00    +0.000 A 
ATOM     17  C   UNL     1       1.966   7.274  20.310  0.00  0.00    +0.000 A 
BRANCH  15  18
ATOM     18  N   UNL     1       3.852   5.812  17.474  0.00  0.00    +0.000 N 
ATOM     19  C   UNL     1       5.022   6.310  16.741  0.00  0.00    +0.000 C 
ATOM     20  C   UNL     1       6.211   5.363  16.997  0.00  0.00    +0.000 C 
ATOM     21  N   UNL     1       5.930   3.967  16.609  0.00  0.00    +0.000 NA
ATOM     22  C   UNL     1       4.714   3.496  17.308  0.00  0.00    +0.000 C 
ATOM     23  C   UNL     1       3.482   4.425  17.157  0.00  0.00    +0.000 C 
ATOM     24  H   UNL     1       6.718   3.385  16.889  0.00  0.00    +0.000 HD
ENDBRANCH  15  18
ENDBRANCH   9  12
BRANCH   2  25
ATOM     25  O   UNL     1      -2.045  14.680  19.782  0.00  0.00    +0.000 OA
ATOM     26  H   UNL     1      -2.808  14.997  20.302  0.00  0.00    +0.000 HD
ENDBRANCH   2  25
BRANCH   4  27
ATOM     27  O   UNL     1      -2.021  12.146  23.772  0.00  0.00    +0.000 OA
ATOM     28  H   UNL     1      -1.274  12.106  24.391  0.00  0.00    +0.000 HD
ENDBRANCH   4  27
BRANCH   1  29
ATOM     29  O   UNL     1      -0.203  13.118  18.626  0.00  0.00    +0.000 OA
BRANCH  29  34
ATOM     30  C   UNL     1       4.974  15.087  19.617  0.00  0.00    +0.000 C 
ATOM     31  N   UNL     1       3.683  14.404  19.550  0.00  0.00    +0.000 NA
ATOM     32  C   UNL     1       2.588  15.336  19.853  0.00  0.00    +0.000 C 
ATOM     33  C   UNL     1       1.247  14.608  19.851  0.00  0.00    +0.000 C 
ATOM     34  C   UNL     1       1.000  13.902  18.518  0.00  0.00    +0.000 C 
ATOM     35  C   UNL     1       2.182  12.982  18.200  0.00  0.00    +0.000 C 
ATOM     36  C   UNL     1       3.495  13.769  18.239  0.00  0.00    +0.000 C 
ENDBRANCH  29  34
ENDBRANCH   1  29
TORSDOF 6
ENDMDL
MODEL 7
REMARK VINA RESULT:      -7.7      1.324      1.457
REMARK  Name = 
REMARK  7 active torsions:
REMARK  status: ('A' for Active; 'I' for Inactive)
REMARK    1  A    between atoms: C_1  and  N_2
REMARK    2  A    between atoms: C_5  and  O_6
REMARK    3  A    between atoms: O_6  and  C_7
REMARK    4  A    between atoms: C_8  and  O_9
REMARK    5  A    between atoms: C_11  and  O_12
REMARK    6  A    between atoms: C_17  and  C_18
REMARK    7  A    between atoms: C_21  and  N_22
REMARK                            x       y       z     vdW  Elec       q    Type
REMARK                         _______ _______ _______ _____ _____    ______ ____
ROOT
ATOM      1  C   UNL     1      -0.324  12.697  20.030  0.00  0.00    +0.000 A 
ATOM      2  C   UNL     1      -1.281  13.532  20.622  0.00  0.00    +0.000 A 
ATOM      3  C   UNL     1      -1.940  13.184  21.796  0.00  0.00    +0.000 A 
ATOM      4  C   UNL     1      -1.686  11.944  22.371  0.00  0.00    +0.000 A 
ATOM      5  C   UNL     1      -0.804  11.043  21.752  0.00  0.00    +0.000 A 
ATOM      6  C   UNL     1      -0.578   9.677  22.292  0.00  0.00    +0.000 A 
ATOM      7  O   UNL     1      -1.059   9.247  23.328  0.00  0.00    +0.000 OA
ATOM      8  C   UNL     1       0.296   8.801  21.502  0.00  0.00    +0.000 A 
ATOM      9  C   UNL     1       0.860   9.274  20.394  0.00  0.00    +0.000 A 
ATOM     10  O   UNL     1       0.677  10.539  19.891  0.00  0.00    +0.000 OA
ATOM     11  C   UNL     1      -0.132  11.420  20.575  0.00  0.00    +0.000 A 
ENDROOT
BRANCH   9  12
ATOM     12  C   UNL     1       1.695   8.393  19.578  0.00  0.00    +0.000 A 
ATOM     13  C   UNL     1       2.109   7.168  20.097  0.00  0.00    +0.000 A 
ATOM     14  C   UNL     1       2.944   6.337  19.346  0.00  0.00    +0.000 A 
ATOM     15  C   UNL     1       3.381   6.688  18.060  0.00  0.00    +0.000 A 
ATOM     16  C   UNL     1       2.982   7.938  17.571  0.00  0.00    +0.000 A 
ATOM     17  C   UNL     1       2.143   8.781  18.312  0.00  0.00    +0.000 A 
BRANCH  15  18
ATOM     18  N   UNL     1       4.102   5.809  17.284  0.00  0.00    +0.000 N 
ATOM     19  C   UNL     1       5.146   6.289  16.370  0.00  0.00    +0.000 C 
ATOM     20  C   UNL     1       6.394   5.398  16.526  0.00  0.00    +0.000 C 
ATOM     21  N   UNL     1       6.119   3.970  16.272  0.00  0.00    +0.000 NA
ATOM     22  C   UNL     1       5.025   3.513  17.156  0.00  0.00    +0.000 C 
ATOM     23  C   UNL     1       3.748   4.393  17.111  0.00  0.00    +0.000 C 
ATOM     24  H   UNL     1       6.960   3.433  16.481  0.00  0.00    +0.000 HD
ENDBRANCH  15  18
ENDBRANCH   9  12
BRANCH   2  25
ATOM     25  O   UNL     1      -1.623  14.725  20.044  0.00  0.00    +0.000 OA
ATOM     26  H   UNL     1      -2.463  14.992  20.465  0.00  0.00    +0.000 HD
ENDBRANCH   2  25
BRANCH   4  27
ATOM     27  O   UNL     1      -2.331  11.612  23.529  0.00  0.00    +0.000 OA
ATOM     28  H   UNL     1      -2.507  12.406  24.059  0.00  0.00    +0.000 HD
ENDBRANCH   4  27
BRANCH   1  29
ATOM     29  O   UNL     1       0.294  13.229  18.922  0.00  0.00    +0.000 OA
BRANCH  29  34
ATOM     30  C   UNL     1       4.991  16.131  17.841  0.00  0.00    +0.000 C 
ATOM     31  N   UNL     1       3.717  15.415  17.868  0.00  0.00    +0.000 NA
ATOM     32  C   UNL     1       3.921  14.011  18.256  0.00  0.00    +0.000 C 
ATOM     33  C   UNL     1       2.602  13.246  18.217  0.00  0.00    +0.000 C 
ATOM     34  C   UNL     1       1.550  13.905  19.111  0.00  0.00    +0.000 C 
ATOM     35  C   UNL     1       1.401  15.379  18.723  0.00  0.00    +0.000 C 
ATOM     36  C   UNL     1       2.761  16.081  18.761  0.00  0.00    +0.000 C 
ENDBRANCH  29  34
ENDBRANCH   1  29
TORSDOF 6
ENDMDL
MODEL 8
REMARK VINA RESULT:      -7.7      3.642      4.699
REMARK  Name = 
REMARK  7 active torsions:
REMARK  status: ('A' for Active; 'I' for Inactive)
REMARK    1  A    between atoms: C_1  and  N_2
REMARK    2  A    between atoms: C_5  and  O_6
REMARK    3  A    between atoms: O_6  and  C_7
REMARK    4  A    between atoms: C_8  and  O_9
REMARK    5  A    between atoms: C_11  and  O_12
REMARK    6  A    between atoms: C_17  and  C_18
REMARK    7  A    between atoms: C_21  and  N_22
REMARK                            x       y       z     vdW  Elec       q    Type
REMARK                         _______ _______ _______ _____ _____    ______ ____
ROOT
ATOM      1  C   UNL     1      -1.672  11.844  19.837  0.00  0.00    +0.000 A 
ATOM      2  C   UNL     1      -2.626  12.591  20.541  0.00  0.00    +0.000 A 
ATOM      3  C   UNL     1      -2.680  12.598  21.930  0.00  0.00    +0.000 A 
ATOM      4  C   UNL     1      -1.798  11.795  22.645  0.00  0.00    +0.000 A 
ATOM      5  C   UNL     1      -0.893  10.961  21.970  0.00  0.00    +0.000 A 
ATOM      6  C   UNL     1       0.001  10.025  22.700  0.00  0.00    +0.000 A 
ATOM      7  O   UNL     1       0.087   9.947  23.915  0.00  0.00    +0.000 OA
ATOM      8  C   UNL     1       0.834   9.142  21.876  0.00  0.00    +0.000 A 
ATOM      9  C   UNL     1       0.780   9.249  20.550  0.00  0.00    +0.000 A 
ATOM     10  O   UNL     1      -0.026  10.121  19.859  0.00  0.00    +0.000 OA
ATOM     11  C   UNL     1      -0.840  10.980  20.564  0.00  0.00    +0.000 A 
ENDROOT
BRANCH   9  12
ATOM     12  C   UNL     1       1.573   8.342  19.721  0.00  0.00    +0.000 A 
ATOM     13  C   UNL     1       1.998   7.125  20.250  0.00  0.00    +0.000 A 
ATOM     14  C   UNL     1       2.794   6.269  19.485  0.00  0.00    +0.000 A 
ATOM     15  C   UNL     1       3.180   6.587  18.174  0.00  0.00    +0.000 A 
ATOM     16  C   UNL     1       2.772   7.830  17.673  0.00  0.00    +0.000 A 
ATOM     17  C   UNL     1       1.971   8.697  18.429  0.00  0.00    +0.000 A 
BRANCH  15  18
ATOM     18  N   UNL     1       3.861   5.684  17.389  0.00  0.00    +0.000 N 
ATOM     19  C   UNL     1       4.924   6.126  16.478  0.00  0.00    +0.000 C 
ATOM     20  C   UNL     1       6.132   5.179  16.624  0.00  0.00    +0.000 C 
ATOM     21  N   UNL     1       5.794   3.768  16.359  0.00  0.00    +0.000 NA
ATOM     22  C   UNL     1       4.682   3.352  17.241  0.00  0.00    +0.000 C 
ATOM     23  C   UNL     1       3.445   4.287  17.205  0.00  0.00    +0.000 C 
ATOM     24  H   UNL     1       6.610   3.192  16.562  0.00  0.00    +0.000 HD
ENDBRANCH  15  18
ENDBRANCH   9  12
BRANCH   2  25
ATOM     25  O   UNL     1      -3.567  13.330  19.875  0.00  0.00    +0.000 OA
ATOM     26  H   UNL     1      -3.142  14.188  19.684  0.00  0.00    +0.000 HD
ENDBRANCH   2  25
BRANCH   4  27
ATOM     27  O   UNL     1      -1.853  11.813  24.010  0.00  0.00    +0.000 OA
ATOM     28  H   UNL     1      -1.001  12.100  24.380  0.00  0.00    +0.000 HD
ENDBRANCH   4  27
BRANCH   1  29
ATOM     29  O   UNL     1      -1.702  12.015  18.473  0.00  0.00    +0.000 OA
BRANCH  29  34
ATOM     30  C   UNL     1      -4.230   9.564  14.085  0.00  0.00    +0.000 C 
ATOM     31  N   UNL     1      -3.471  10.363  15.046  0.00  0.00    +0.000 NA
ATOM     32  C   UNL     1      -4.374  11.003  16.014  0.00  0.00    +0.000 C 
ATOM     33  C   UNL     1      -3.589  11.891  16.974  0.00  0.00    +0.000 C 
ATOM     34  C   UNL     1      -2.498  11.101  17.696  0.00  0.00    +0.000 C 
ATOM     35  C   UNL     1      -1.609  10.399  16.666  0.00  0.00    +0.000 C 
ATOM     36  C   UNL     1      -2.458   9.543  15.723  0.00  0.00    +0.000 C 
ENDBRANCH  29  34
ENDBRANCH   1  29
TORSDOF 6
ENDMDL
MODEL 9
REMARK VINA RESULT:      -7.7      0.859      1.194
REMARK  Name = 
REMARK  7 active torsions:
REMARK  status: ('A' for Active; 'I' for Inactive)
REMARK    1  A    between atoms: C_1  and  N_2
REMARK    2  A    between atoms: C_5  and  O_6
REMARK    3  A    between atoms: O_6  and  C_7
REMARK    4  A    between atoms: C_8  and  O_9
REMARK    5  A    between atoms: C_11  and  O_12
REMARK    6  A    between atoms: C_17  and  C_18
REMARK    7  A    between atoms: C_21  and  N_22
REMARK                            x       y       z     vdW  Elec       q    Type
REMARK                         _______ _______ _______ _____ _____    ______ ____
ROOT
ATOM      1  C   UNL     1       0.273  13.422  19.324  0.00  0.00    +0.000 A 
ATOM      2  C   UNL     1      -0.525  14.553  19.542  0.00  0.00    +0.000 A 
ATOM      3  C   UNL     1      -1.391  14.650  20.626  0.00  0.00    +0.000 A 
ATOM      4  C   UNL     1      -1.513  13.567  21.491  0.00  0.00    +0.000 A 
ATOM      5  C   UNL     1      -0.800  12.382  21.249  0.00  0.00    +0.000 A 
ATOM      6  C   UNL     1      -0.974  11.178  22.101  0.00  0.00    +0.000 A 
ATOM      7  O   UNL     1      -1.670  11.127  23.102  0.00  0.00    +0.000 OA
ATOM      8  C   UNL     1      -0.241   9.975  21.689  0.00  0.00    +0.000 A 
ATOM      9  C   UNL     1       0.555  10.033  20.623  0.00  0.00    +0.000 A 
ATOM     10  O   UNL     1       0.743  11.143  19.836  0.00  0.00    +0.000 OA
ATOM     11  C   UNL     1       0.086  12.310  20.157  0.00  0.00    +0.000 A 
ENDROOT
BRANCH   9  12
ATOM     12  C   UNL     1       1.254   8.827  20.180  0.00  0.00    +0.000 A 
ATOM     13  C   UNL     1       1.797   8.783  18.897  0.00  0.00    +0.000 A 
ATOM     14  C   UNL     1       2.427   7.622  18.444  0.00  0.00    +0.000 A 
ATOM     15  C   UNL     1       2.549   6.480  19.249  0.00  0.00    +0.000 A 
ATOM     16  C   UNL     1       1.967   6.533  20.522  0.00  0.00    +0.000 A 
ATOM     17  C   UNL     1       1.333   7.692  20.990  0.00  0.00    +0.000 A 
BRANCH  15  18
ATOM     18  N   UNL     1       3.277   5.387  18.836  0.00  0.00    +0.000 N 
ATOM     19  C   UNL     1       4.239   5.492  17.732  0.00  0.00    +0.000 C 
ATOM     20  C   UNL     1       5.544   4.779  18.138  0.00  0.00    +0.000 C 
ATOM     21  N   UNL     1       5.340   3.362  18.496  0.00  0.00    +0.000 NA
ATOM     22  C   UNL     1       4.325   3.264  19.567  0.00  0.00    +0.000 C 
ATOM     23  C   UNL     1       2.998   4.010  19.269  0.00  0.00    +0.000 C 
ATOM     24  H   UNL     1       6.221   2.981  18.839  0.00  0.00    +0.000 HD
ENDBRANCH  15  18
ENDBRANCH   9  12
BRANCH   2  25
ATOM     25  O   UNL     1      -0.499  15.608  18.669  0.00  0.00    +0.000 OA
ATOM     26  H   UNL     1      -0.900  15.277  17.842  0.00  0.00    +0.000 HD
ENDBRANCH   2  25
BRANCH   4  27
ATOM     27  O   UNL     1      -2.360  13.672  22.558  0.00  0.00    +0.000 OA
ATOM     28  H   UNL     1      -2.741  14.564  22.602  0.00  0.00    +0.000 HD
ENDBRANCH   4  27
BRANCH   1  29
ATOM     29  O   UNL     1       1.134  13.525  18.257  0.00  0.00    +0.000 OA
BRANCH  29  34
ATOM     30  C   UNL     1       5.769  16.313  19.807  0.00  0.00    +0.000 C 
ATOM     31  N   UNL     1       4.438  15.805  19.479  0.00  0.00    +0.000 NA
ATOM     32  C   UNL     1       4.342  15.494  18.045  0.00  0.00    +0.000 C 
ATOM     33  C   UNL     1       2.934  15.030  17.689  0.00  0.00    +0.000 C 
ATOM     34  C   UNL     1       2.515  13.824  18.532  0.00  0.00    +0.000 C 
ATOM     35  C   UNL     1       2.680  14.158  20.017  0.00  0.00    +0.000 C 
ATOM     36  C   UNL     1       4.106  14.635  20.302  0.00  0.00    +0.000 C 
ENDBRANCH  29  34
ENDBRANCH   1  29
TORSDOF 6
ENDMDL
