MODEL 1
REMARK VINA RESULT:      -9.5      0.000      0.000
REMARK  Name = 
REMARK  5 active torsions:
REMARK  status: ('A' for Active; 'I' for Inactive)
REMARK    1  A    between atoms: N_1  and  C_2
REMARK    2  A    between atoms: N_9  and  C_10
REMARK    3  A    between atoms: C_13  and  C_14
REMARK    4  A    between atoms: C_14  and  C_15
REMARK    5  A    between atoms: N_17  and  C_18
REMARK                            x       y       z     vdW  Elec       q    Type
REMARK                         _______ _______ _______ _____ _____    ______ ____
ROOT
ATOM      1  C   UNL     1       2.611   6.781  18.666  0.00  0.00    +0.000 A 
ATOM      2  C   UNL     1       2.304   7.836  17.799  0.00  0.00    +0.000 A 
ATOM      3  C   UNL     1       1.650   8.984  18.277  0.00  0.00    +0.000 A 
ATOM      4  C   UNL     1       1.283   9.100  19.627  0.00  0.00    +0.000 A 
ATOM      5  C   UNL     1       1.655   8.076  20.500  0.00  0.00    +0.000 A 
ATOM      6  C   UNL     1       2.335   6.946  20.025  0.00  0.00    +0.000 A 
ENDROOT
BRANCH   1  14
ATOM      7  C   UNL     1       1.897   3.627  19.365  0.00  0.00    +0.000 A 
ATOM      8  N   UNL     1       1.883   2.284  19.459  0.00  0.00    +0.000 NA
ATOM      9  C   UNL     1       2.749   1.569  18.728  0.00  0.00    +0.000 A 
ATOM     10  N   UNL     1       3.658   2.028  17.874  0.00  0.00    +0.000 NA
ATOM     11  C   UNL     1       3.676   3.373  17.787  0.00  0.00    +0.000 A 
ATOM     12  C   UNL     1       4.484   4.161  16.983  0.00  0.00    +0.000 A 
ATOM     13  C   UNL     1       4.155   5.468  17.205  0.00  0.00    +0.000 A 
ATOM     14  N   UNL     1       3.175   5.562  18.169  0.00  0.00    +0.000 N 
ATOM     15  C   UNL     1       2.841   4.231  18.528  0.00  0.00    +0.000 A 
ATOM     16  C   UNL     1       5.032   6.412  16.466  0.00  0.00    +0.000 C 
ATOM     17  C   UNL     1       6.180   5.449  15.998  0.00  0.00    +0.000 C 
ATOM     18  C   UNL     1       5.597   4.002  16.030  0.00  0.00    +0.000 C 
BRANCH   7  19
ATOM     19  N   UNL     1       0.914   4.258  20.110  0.00  0.00    +0.000 N 
ATOM     20  H   UNL     1       0.046   4.268  19.583  0.00  0.00    +0.000 HD
ATOM     21  H   UNL     1       1.189   5.148  20.501  0.00  0.00    +0.000 HD
ENDBRANCH   7  19
ENDBRANCH   1  14
BRANCH   4  22
ATOM     22  C   UNL     1       0.600  10.351  20.135  0.00  0.00    +0.000 C 
BRANCH  22  23
ATOM     23  C   UNL     1      -0.435  10.997  19.226  0.00  0.00    +0.000 C 
ATOM     24  O   UNL     1      -0.290  12.163  18.854  0.00  0.00    +0.000 OA
ATOM     25  N   UNL     1      -1.472  10.170  18.827  0.00  0.00    +0.000 N 
ATOM     26  H   UNL     1      -1.711   9.414  19.457  0.00  0.00    +0.000 HD
BRANCH  25  27
ATOM     27  C   UNL     1      -2.452  10.551  17.883  0.00  0.00    +0.000 A 
ATOM     28  C   UNL     1      -3.588  11.287  18.240  0.00  0.00    +0.000 A 
ATOM     29  C   UNL     1      -4.532  11.646  17.271  0.00  0.00    +0.000 A 
ATOM     30  C   UNL     1      -4.359  11.245  15.948  0.00  0.00    +0.000 A 
ATOM     31  C   UNL     1      -3.226  10.515  15.587  0.00  0.00    +0.000 A 
ATOM     32  C   UNL     1      -2.260  10.195  16.547  0.00  0.00    +0.000 A 
ENDBRANCH  25  27
ENDBRANCH  22  23
ENDBRANCH   4  22
TORSDOF 5
ENDMDL
MODEL 2
REMARK VINA RESULT:      -9.5      1.230      2.906
REMARK  Name = 
REMARK  5 active torsions:
REMARK  status: ('A' for Active; 'I' for Inactive)
REMARK    1  A    between atoms: N_1  and  C_2
REMARK    2  A    between atoms: N_9  and  C_10
REMARK    3  A    between atoms: C_13  and  C_14
REMARK    4  A    between atoms: C_14  and  C_15
REMARK    5  A    between atoms: N_17  and  C_18
REMARK                            x       y       z     vdW  Elec       q    Type
REMARK                         _______ _______ _______ _____ _____    ______ ____
ROOT
ATOM      1  C   UNL     1       2.807   6.782  18.473  0.00  0.00    +0.000 A 
ATOM      2  C   UNL     1       2.552   7.860  17.619  0.00  0.00    +0.000 A 
ATOM      3  C   UNL     1       1.889   9.004  18.094  0.00  0.00    +0.000 A 
ATOM      4  C   UNL     1       1.461   9.093  19.427  0.00  0.00    +0.000 A 
ATOM      5  C   UNL     1       1.783   8.045  20.293  0.00  0.00    +0.000 A 
ATOM      6  C   UNL     1       2.472   6.919  19.822  0.00  0.00    +0.000 A 
ENDROOT
BRANCH   1  14
ATOM      7  C   UNL     1       5.538   6.261  16.680  0.00  0.00    +0.000 A 
ATOM      8  N   UNL     1       6.528   5.731  15.938  0.00  0.00    +0.000 NA
ATOM      9  C   UNL     1       6.554   4.408  15.733  0.00  0.00    +0.000 A 
ATOM     10  N   UNL     1       5.696   3.502  16.192  0.00  0.00    +0.000 NA
ATOM     11  C   UNL     1       4.701   4.035  16.928  0.00  0.00    +0.000 A 
ATOM     12  C   UNL     1       3.663   3.370  17.560  0.00  0.00    +0.000 A 
ATOM     13  C   UNL     1       2.895   4.300  18.203  0.00  0.00    +0.000 A 
ATOM     14  N   UNL     1       3.381   5.568  17.974  0.00  0.00    +0.000 N 
ATOM     15  C   UNL     1       4.549   5.411  17.184  0.00  0.00    +0.000 A 
ATOM     16  C   UNL     1       1.690   3.706  18.836  0.00  0.00    +0.000 C 
ATOM     17  C   UNL     1       1.683   2.278  18.185  0.00  0.00    +0.000 C 
ATOM     18  C   UNL     1       3.136   2.000  17.690  0.00  0.00    +0.000 C 
BRANCH   7  19
ATOM     19  N   UNL     1       5.651   7.627  16.886  0.00  0.00    +0.000 N 
ATOM     20  H   UNL     1       4.726   8.044  16.894  0.00  0.00    +0.000 HD
ATOM     21  H   UNL     1       6.326   8.088  16.291  0.00  0.00    +0.000 HD
ENDBRANCH   7  19
ENDBRANCH   1  14
BRANCH   4  22
ATOM     22  C   UNL     1       0.769  10.340  19.934  0.00  0.00    +0.000 C 
BRANCH  22  23
ATOM     23  C   UNL     1      -0.285  10.966  19.032  0.00  0.00    +0.000 C 
ATOM     24  O   UNL     1      -0.108  12.092  18.564  0.00  0.00    +0.000 OA
ATOM     25  N   UNL     1      -1.378  10.163  18.752  0.00  0.00    +0.000 N 
ATOM     26  H   UNL     1      -1.616   9.469  19.451  0.00  0.00    +0.000 HD
BRANCH  25  27
ATOM     27  C   UNL     1      -2.390  10.520  17.834  0.00  0.00    +0.000 A 
ATOM     28  C   UNL     1      -3.495  11.296  18.203  0.00  0.00    +0.000 A 
ATOM     29  C   UNL     1      -4.473  11.629  17.258  0.00  0.00    +0.000 A 
ATOM     30  C   UNL     1      -4.365  11.162  15.950  0.00  0.00    +0.000 A 
ATOM     31  C   UNL     1      -3.264  10.391  15.577  0.00  0.00    +0.000 A 
ATOM     32  C   UNL     1      -2.264  10.097  16.509  0.00  0.00    +0.000 A 
ENDBRANCH  25  27
ENDBRANCH  22  23
ENDBRANCH   4  22
TORSDOF 5
ENDMDL
MODEL 3
REMARK VINA RESULT:      -9.3      0.314      1.300
REMARK  Name = 
REMARK  5 active torsions:
REMARK  status: ('A' for Active; 'I' for Inactive)
REMARK    1  A    between atoms: N_1  and  C_2
REMARK    2  A    between atoms: N_9  and  C_10
REMARK    3  A    between atoms: C_13  and  C_14
REMARK    4  A    between atoms: C_14  and  C_15
REMARK    5  A    between atoms: N_17  and  C_18
REMARK                            x       y       z     vdW  Elec       q    Type
REMARK                         _______ _______ _______ _____ _____    ______ ____
ROOT
ATOM      1  C   UNL     1       2.616   6.747  18.563  0.00  0.00    +0.000 A 
ATOM      2  C   UNL     1       2.324   6.915  19.921  0.00  0.00    +0.000 A 
ATOM      3  C   UNL     1       1.737   8.106  20.381  0.00  0.00    +0.000 A 
ATOM      4  C   UNL     1       1.436   9.154  19.499  0.00  0.00    +0.000 A 
ATOM      5  C   UNL     1       1.663   8.953  18.136  0.00  0.00    +0.000 A 
ATOM      6  C   UNL     1       2.220   7.751  17.676  0.00  0.00    +0.000 A 
ENDROOT
BRANCH   1  14
ATOM      7  C   UNL     1       2.032   3.530  19.068  0.00  0.00    +0.000 A 
ATOM      8  N   UNL     1       2.095   2.186  19.117  0.00  0.00    +0.000 NA
ATOM      9  C   UNL     1       3.087   1.555  18.474  0.00  0.00    +0.000 A 
ATOM     10  N   UNL     1       4.059   2.103  17.752  0.00  0.00    +0.000 NA
ATOM     11  C   UNL     1       3.999   3.448  17.712  0.00  0.00    +0.000 A 
ATOM     12  C   UNL     1       4.845   4.315  17.038  0.00  0.00    +0.000 A 
ATOM     13  C   UNL     1       4.406   5.590  17.260  0.00  0.00    +0.000 A 
ATOM     14  N   UNL     1       3.314   5.585  18.100  0.00  0.00    +0.000 N 
ATOM     15  C   UNL     1       3.028   4.223  18.373  0.00  0.00    +0.000 A 
ATOM     16  C   UNL     1       5.302   6.615  16.664  0.00  0.00    +0.000 C 
ATOM     17  C   UNL     1       6.558   5.743  16.309  0.00  0.00    +0.000 C 
ATOM     18  C   UNL     1       6.071   4.263  16.223  0.00  0.00    +0.000 C 
BRANCH   7  19
ATOM     19  N   UNL     1       0.927   4.070  19.707  0.00  0.00    +0.000 N 
ATOM     20  H   UNL     1       0.672   4.944  19.259  0.00  0.00    +0.000 HD
ATOM     21  H   UNL     1       1.001   4.109  20.714  0.00  0.00    +0.000 HD
ENDBRANCH   7  19
ENDBRANCH   1  14
BRANCH   4  22
ATOM     22  C   UNL     1       0.782  10.423  20.002  0.00  0.00    +0.000 C 
BRANCH  22  23
ATOM     23  C   UNL     1      -0.281  11.056  19.117  0.00  0.00    +0.000 C 
ATOM     24  O   UNL     1      -0.100  12.177  18.637  0.00  0.00    +0.000 OA
ATOM     25  N   UNL     1      -1.390  10.266  18.864  0.00  0.00    +0.000 N 
ATOM     26  H   UNL     1      -1.623   9.580  19.572  0.00  0.00    +0.000 HD
BRANCH  25  27
ATOM     27  C   UNL     1      -2.416  10.630  17.964  0.00  0.00    +0.000 A 
ATOM     28  C   UNL     1      -2.360  10.317  16.600  0.00  0.00    +0.000 A 
ATOM     29  C   UNL     1      -3.402  10.694  15.744  0.00  0.00    +0.000 A 
ATOM     30  C   UNL     1      -4.487  11.411  16.243  0.00  0.00    +0.000 A 
ATOM     31  C   UNL     1      -4.548  11.723  17.601  0.00  0.00    +0.000 A 
ATOM     32  C   UNL     1      -3.530  11.306  18.464  0.00  0.00    +0.000 A 
ENDBRANCH  25  27
ENDBRANCH  22  23
ENDBRANCH   4  22
TORSDOF 5
ENDMDL
MODEL 4
REMARK VINA RESULT:      -8.9      2.506      3.458
REMARK  Name = 
REMARK  5 active torsions:
REMARK  status: ('A' for Active; 'I' for Inactive)
REMARK    1  A    between atoms: N_1  and  C_2
REMARK    2  A    between atoms: N_9  and  C_10
REMARK    3  A    between atoms: C_13  and  C_14
REMARK    4  A    between atoms: C_14  and  C_15
REMARK    5  A    between atoms: N_17  and  C_18
REMARK                            x       y       z     vdW  Elec       q    Type
REMARK                         _______ _______ _______ _____ _____    ______ ____
ROOT
ATOM      1  C   UNL     1       2.463   6.977  18.793  0.00  0.00    +0.000 A 
ATOM      2  C   UNL     1       2.070   8.015  17.941  0.00  0.00    +0.000 A 
ATOM      3  C   UNL     1       1.363   9.121  18.444  0.00  0.00    +0.000 A 
ATOM      4  C   UNL     1       1.028   9.208  19.804  0.00  0.00    +0.000 A 
ATOM      5  C   UNL     1       1.484   8.205  20.661  0.00  0.00    +0.000 A 
ATOM      6  C   UNL     1       2.216   7.119  20.160  0.00  0.00    +0.000 A 
ENDROOT
BRANCH   1  14
ATOM      7  C   UNL     1       1.853   3.778  19.378  0.00  0.00    +0.000 A 
ATOM      8  N   UNL     1       1.887   2.434  19.432  0.00  0.00    +0.000 NA
ATOM      9  C   UNL     1       2.796   1.774  18.701  0.00  0.00    +0.000 A 
ATOM     10  N   UNL     1       3.706   2.293  17.883  0.00  0.00    +0.000 NA
ATOM     11  C   UNL     1       3.676   3.640  17.838  0.00  0.00    +0.000 A 
ATOM     12  C   UNL     1       4.472   4.481  17.078  0.00  0.00    +0.000 A 
ATOM     13  C   UNL     1       4.089   5.768  17.332  0.00  0.00    +0.000 A 
ATOM     14  N   UNL     1       3.084   5.795  18.273  0.00  0.00    +0.000 N 
ATOM     15  C   UNL     1       2.793   4.442  18.584  0.00  0.00    +0.000 A 
ATOM     16  C   UNL     1       4.947   6.766  16.643  0.00  0.00    +0.000 C 
ATOM     17  C   UNL     1       6.141   5.861  16.174  0.00  0.00    +0.000 C 
ATOM     18  C   UNL     1       5.612   4.394  16.148  0.00  0.00    +0.000 C 
BRANCH   7  19
ATOM     19  N   UNL     1       0.829   4.350  20.118  0.00  0.00    +0.000 N 
ATOM     20  H   UNL     1      -0.061   4.144  19.676  0.00  0.00    +0.000 HD
ATOM     21  H   UNL     1       0.975   5.320  20.359  0.00  0.00    +0.000 HD
ENDBRANCH   7  19
ENDBRANCH   1  14
BRANCH   4  22
ATOM     22  C   UNL     1       0.287  10.415  20.339  0.00  0.00    +0.000 C 
BRANCH  22  23
ATOM     23  C   UNL     1       0.987  11.762  20.239  0.00  0.00    +0.000 C 
ATOM     24  O   UNL     1       1.715  12.150  21.155  0.00  0.00    +0.000 OA
ATOM     25  N   UNL     1       0.787  12.447  19.052  0.00  0.00    +0.000 N 
ATOM     26  H   UNL     1      -0.080  12.259  18.565  0.00  0.00    +0.000 HD
BRANCH  25  27
ATOM     27  C   UNL     1       1.457  13.648  18.725  0.00  0.00    +0.000 A 
ATOM     28  C   UNL     1       2.739  13.660  18.164  0.00  0.00    +0.000 A 
ATOM     29  C   UNL     1       3.364  14.874  17.852  0.00  0.00    +0.000 A 
ATOM     30  C   UNL     1       2.721  16.078  18.127  0.00  0.00    +0.000 A 
ATOM     31  C   UNL     1       1.442  16.071  18.683  0.00  0.00    +0.000 A 
ATOM     32  C   UNL     1       0.799  14.858  18.953  0.00  0.00    +0.000 A 
ENDBRANCH  25  27
ENDBRANCH  22  23
ENDBRANCH   4  22
TORSDOF 5
ENDMDL
MODEL 5
REMARK VINA RESULT:      -8.8      2.838      3.907
REMARK  Name = 
REMARK  5 active torsions:
REMARK  status: ('A' for Active; 'I' for Inactive)
REMARK    1  A    between atoms: N_1  and  C_2
REMARK    2  A    between atoms: N_9  and  C_10
REMARK    3  A    between atoms: C_13  and  C_14
REMARK    4  A    between atoms: C_14  and  C_15
REMARK    5  A    between atoms: N_17  and  C_18
REMARK                            x       y       z     vdW  Elec       q    Type
REMARK                         _______ _______ _______ _____ _____    ______ ____
ROOT
ATOM      1  C   UNL     1       2.765   7.047  18.920  0.00  0.00    +0.000 A 
ATOM      2  C   UNL     1       2.191   7.466  20.126  0.00  0.00    +0.000 A 
ATOM      3  C   UNL     1       1.382   8.614  20.169  0.00  0.00    +0.000 A 
ATOM      4  C   UNL     1       1.134   9.370  19.013  0.00  0.00    +0.000 A 
ATOM      5  C   UNL     1       1.649   8.907  17.800  0.00  0.00    +0.000 A 
ATOM      6  C   UNL     1       2.431   7.744  17.756  0.00  0.00    +0.000 A 
ENDROOT
BRANCH   1  14
ATOM      7  C   UNL     1       2.572   4.035  20.274  0.00  0.00    +0.000 A 
ATOM      8  N   UNL     1       2.816   2.787  20.716  0.00  0.00    +0.000 NA
ATOM      9  C   UNL     1       3.970   2.191  20.386  0.00  0.00    +0.000 A 
ATOM     10  N   UNL     1       4.950   2.686  19.637  0.00  0.00    +0.000 NA
ATOM     11  C   UNL     1       4.708   3.938  19.203  0.00  0.00    +0.000 A 
ATOM     12  C   UNL     1       5.512   4.727  18.395  0.00  0.00    +0.000 A 
ATOM     13  C   UNL     1       4.871   5.916  18.194  0.00  0.00    +0.000 A 
ATOM     14  N   UNL     1       3.680   5.945  18.885  0.00  0.00    +0.000 N 
ATOM     15  C   UNL     1       3.551   4.679  19.511  0.00  0.00    +0.000 A 
ATOM     16  C   UNL     1       5.690   6.883  17.419  0.00  0.00    +0.000 C 
ATOM     17  C   UNL     1       7.095   6.183  17.458  0.00  0.00    +0.000 C 
ATOM     18  C   UNL     1       6.839   4.673  17.757  0.00  0.00    +0.000 C 
BRANCH   7  19
ATOM     19  N   UNL     1       1.322   4.524  20.616  0.00  0.00    +0.000 N 
ATOM     20  H   UNL     1       0.733   3.757  20.924  0.00  0.00    +0.000 HD
ATOM     21  H   UNL     1       0.906   5.136  19.928  0.00  0.00    +0.000 HD
ENDBRANCH   7  19
ENDBRANCH   1  14
BRANCH   4  22
ATOM     22  C   UNL     1       0.241  10.591  19.066  0.00  0.00    +0.000 C 
BRANCH  22  23
ATOM     23  C   UNL     1       0.902  11.922  19.396  0.00  0.00    +0.000 C 
ATOM     24  O   UNL     1       1.173  12.205  20.565  0.00  0.00    +0.000 OA
ATOM     25  N   UNL     1       1.210  12.717  18.305  0.00  0.00    +0.000 N 
ATOM     26  H   UNL     1       0.629  12.598  17.484  0.00  0.00    +0.000 HD
BRANCH  25  27
ATOM     27  C   UNL     1       1.940  13.923  18.403  0.00  0.00    +0.000 A 
ATOM     28  C   UNL     1       1.323  15.151  18.669  0.00  0.00    +0.000 A 
ATOM     29  C   UNL     1       2.087  16.321  18.761  0.00  0.00    +0.000 A 
ATOM     30  C   UNL     1       3.464  16.271  18.556  0.00  0.00    +0.000 A 
ATOM     31  C   UNL     1       4.083  15.049  18.293  0.00  0.00    +0.000 A 
ATOM     32  C   UNL     1       3.327  13.874  18.247  0.00  0.00    +0.000 A 
ENDBRANCH  25  27
ENDBRANCH  22  23
ENDBRANCH   4  22
TORSDOF 5
ENDMDL
MODEL 6
REMARK VINA RESULT:      -8.7      2.758      4.604
REMARK  Name = 
REMARK  5 active torsions:
REMARK  status: ('A' for Active; 'I' for Inactive)
REMARK    1  A    between atoms: N_1  and  C_2
REMARK    2  A    between atoms: N_9  and  C_10
REMARK    3  A    between atoms: C_13  and  C_14
REMARK    4  A    between atoms: C_14  and  C_15
REMARK    5  A    between atoms: N_17  and  C_18
REMARK                            x       y       z     vdW  Elec       q    Type
REMARK                         _______ _______ _______ _____ _____    ______ ____
ROOT
ATOM      1  C   UNL     1       2.491   6.990  18.645  0.00  0.00    +0.000 A 
ATOM      2  C   UNL     1       2.128   8.018  17.767  0.00  0.00    +0.000 A 
ATOM      3  C   UNL     1       1.430   9.143  18.238  0.00  0.00    +0.000 A 
ATOM      4  C   UNL     1       1.075   9.263  19.590  0.00  0.00    +0.000 A 
ATOM      5  C   UNL     1       1.502   8.269  20.473  0.00  0.00    +0.000 A 
ATOM      6  C   UNL     1       2.225   7.163  20.005  0.00  0.00    +0.000 A 
ENDROOT
BRANCH   1  14
ATOM      7  C   UNL     1       5.289   6.527  16.943  0.00  0.00    +0.000 A 
ATOM      8  N   UNL     1       6.313   6.019  16.232  0.00  0.00    +0.000 NA
ATOM      9  C   UNL     1       6.368   4.698  16.019  0.00  0.00    +0.000 A 
ATOM     10  N   UNL     1       5.512   3.774  16.444  0.00  0.00    +0.000 NA
ATOM     11  C   UNL     1       4.483   4.286  17.149  0.00  0.00    +0.000 A 
ATOM     12  C   UNL     1       3.436   3.599  17.742  0.00  0.00    +0.000 A 
ATOM     13  C   UNL     1       2.631   4.512  18.364  0.00  0.00    +0.000 A 
ATOM     14  N   UNL     1       3.102   5.789  18.158  0.00  0.00    +0.000 N 
ATOM     15  C   UNL     1       4.299   5.657  17.408  0.00  0.00    +0.000 A 
ATOM     16  C   UNL     1       1.415   3.894  18.952  0.00  0.00    +0.000 C 
ATOM     17  C   UNL     1       1.455   2.469  18.293  0.00  0.00    +0.000 C 
ATOM     18  C   UNL     1       2.928   2.220  17.846  0.00  0.00    +0.000 C 
BRANCH   7  19
ATOM     19  N   UNL     1       5.372   7.894  17.160  0.00  0.00    +0.000 N 
ATOM     20  H   UNL     1       5.157   8.094  18.131  0.00  0.00    +0.000 HD
ATOM     21  H   UNL     1       4.876   8.458  16.484  0.00  0.00    +0.000 HD
ENDBRANCH   7  19
ENDBRANCH   1  14
BRANCH   4  22
ATOM     22  C   UNL     1       0.344  10.490  20.090  0.00  0.00    +0.000 C 
BRANCH  22  23
ATOM     23  C   UNL     1       1.106  11.808  20.073  0.00  0.00    +0.000 C 
ATOM     24  O   UNL     1       1.776  12.147  21.050  0.00  0.00    +0.000 OA
ATOM     25  N   UNL     1       1.027  12.523  18.890  0.00  0.00    +0.000 N 
ATOM     26  H   UNL     1       0.192  12.382  18.334  0.00  0.00    +0.000 HD
BRANCH  25  27
ATOM     27  C   UNL     1       1.769  13.699  18.641  0.00  0.00    +0.000 A 
ATOM     28  C   UNL     1       3.096  13.666  18.196  0.00  0.00    +0.000 A 
ATOM     29  C   UNL     1       3.792  14.858  17.959  0.00  0.00    +0.000 A 
ATOM     30  C   UNL     1       3.175  16.084  18.195  0.00  0.00    +0.000 A 
ATOM     31  C   UNL     1       1.852  16.121  18.636  0.00  0.00    +0.000 A 
ATOM     32  C   UNL     1       1.142  14.932  18.829  0.00  0.00    +0.000 A 
ENDBRANCH  25  27
ENDBRANCH  22  23
ENDBRANCH   4  22
TORSDOF 5
ENDMDL
MODEL 7
REMARK VINA RESULT:      -8.5      1.464      2.038
REMARK  Name = 
REMARK  5 active torsions:
REMARK  status: ('A' for Active; 'I' for Inactive)
REMARK    1  A    between atoms: N_1  and  C_2
REMARK    2  A    between atoms: N_9  and  C_10
REMARK    3  A    between atoms: C_13  and  C_14
REMARK    4  A    between atoms: C_14  and  C_15
REMARK    5  A    between atoms: N_17  and  C_18
REMARK                            x       y       z     vdW  Elec       q    Type
REMARK                         _______ _______ _______ _____ _____    ______ ____
ROOT
ATOM      1  C   UNL     1       2.743   7.175  18.879  0.00  0.00    +0.000 A 
ATOM      2  C   UNL     1       2.115   7.570  20.065  0.00  0.00    +0.000 A 
ATOM      3  C   UNL     1       1.338   8.740  20.104  0.00  0.00    +0.000 A 
ATOM      4  C   UNL     1       1.179   9.543  18.964  0.00  0.00    +0.000 A 
ATOM      5  C   UNL     1       1.748   9.105  17.767  0.00  0.00    +0.000 A 
ATOM      6  C   UNL     1       2.496   7.921  17.724  0.00  0.00    +0.000 A 
ENDROOT
BRANCH   1  14
ATOM      7  C   UNL     1       2.463   4.182  20.261  0.00  0.00    +0.000 A 
ATOM      8  N   UNL     1       2.670   2.932  20.715  0.00  0.00    +0.000 NA
ATOM      9  C   UNL     1       3.806   2.300  20.392  0.00  0.00    +0.000 A 
ATOM     10  N   UNL     1       4.801   2.759  19.639  0.00  0.00    +0.000 NA
ATOM     11  C   UNL     1       4.596   4.014  19.193  0.00  0.00    +0.000 A 
ATOM     12  C   UNL     1       5.423   4.771  18.379  0.00  0.00    +0.000 A 
ATOM     13  C   UNL     1       4.816   5.977  18.166  0.00  0.00    +0.000 A 
ATOM     14  N   UNL     1       3.626   6.047  18.855  0.00  0.00    +0.000 N 
ATOM     15  C   UNL     1       3.461   4.790  19.493  0.00  0.00    +0.000 A 
ATOM     16  C   UNL     1       5.664   6.912  17.383  0.00  0.00    +0.000 C 
ATOM     17  C   UNL     1       7.048   6.172  17.430  0.00  0.00    +0.000 C 
ATOM     18  C   UNL     1       6.748   4.674  17.743  0.00  0.00    +0.000 C 
BRANCH   7  19
ATOM     19  N   UNL     1       1.227   4.710  20.597  0.00  0.00    +0.000 N 
ATOM     20  H   UNL     1       0.526   4.365  19.950  0.00  0.00    +0.000 HD
ATOM     21  H   UNL     1       1.221   5.710  20.743  0.00  0.00    +0.000 HD
ENDBRANCH   7  19
ENDBRANCH   1  14
BRANCH   4  22
ATOM     22  C   UNL     1       0.321  10.788  19.012  0.00  0.00    +0.000 C 
BRANCH  22  23
ATOM     23  C   UNL     1      -1.094  10.680  18.461  0.00  0.00    +0.000 C 
ATOM     24  O   UNL     1      -1.451   9.659  17.870  0.00  0.00    +0.000 OA
ATOM     25  N   UNL     1      -1.918  11.760  18.728  0.00  0.00    +0.000 N 
ATOM     26  H   UNL     1      -1.460  12.655  18.852  0.00  0.00    +0.000 HD
BRANCH  25  27
ATOM     27  C   UNL     1      -3.295  11.785  18.412  0.00  0.00    +0.000 A 
ATOM     28  C   UNL     1      -3.776  11.467  17.136  0.00  0.00    +0.000 A 
ATOM     29  C   UNL     1      -5.150  11.501  16.869  0.00  0.00    +0.000 A 
ATOM     30  C   UNL     1      -6.043  11.883  17.867  0.00  0.00    +0.000 A 
ATOM     31  C   UNL     1      -5.569  12.198  19.140  0.00  0.00    +0.000 A 
ATOM     32  C   UNL     1      -4.201  12.119  19.420  0.00  0.00    +0.000 A 
ENDBRANCH  25  27
ENDBRANCH  22  23
ENDBRANCH   4  22
TORSDOF 5
ENDMDL
