MODEL 1
REMARK VINA RESULT:      -6.4      0.000      0.000
REMARK  Name = 
REMARK  7 active torsions:
REMARK  status: ('A' for Active; 'I' for Inactive)
REMARK    1  A    between atoms: C_1  and  C_2
REMARK    2  A    between atoms: C_2  and  C_3
REMARK    3  A    between atoms: C_2  and  N_9
REMARK    4  A    between atoms: C_3  and  C_4
REMARK    5  A    between atoms: N_9  and  C_10
REMARK    6  A    between atoms: N_9  and  S_11
REMARK    7  A    between atoms: S_11  and  C_14
REMARK                            x       y       z     vdW  Elec       q    Type
REMARK                         _______ _______ _______ _____ _____    ______ ____
ROOT
ATOM      1  N   UNL     1       3.055   3.426  20.677  0.00  0.00    +0.000 NA
ATOM      2  C   UNL     1       2.300   2.490  21.567  0.00  0.00    +0.000 C 
ENDROOT
BRANCH   1   3
ATOM      3  S   UNL     1       4.095   2.535  19.610  0.00  0.00    +0.000 S 
ATOM      4  O   UNL     1       5.191   1.987  20.381  0.00  0.00    +0.000 OA
ATOM      5  O   UNL     1       3.257   1.674  18.803  0.00  0.00    +0.000 OA
BRANCH   3   6
ATOM      6  C   UNL     1       4.816   3.766  18.577  0.00  0.00    +0.000 A 
ATOM      7  C   UNL     1       5.612   4.789  19.087  0.00  0.00    +0.000 A 
ATOM      8  C   UNL     1       6.085   5.768  18.218  0.00  0.00    +0.000 A 
ATOM      9  C   UNL     1       5.723   5.693  16.881  0.00  0.00    +0.000 A 
ATOM     10  N   UNL     1       4.936   4.720  16.369  0.00  0.00    +0.000 NA
ATOM     11  C   UNL     1       4.488   3.777  17.233  0.00  0.00    +0.000 A 
ENDBRANCH   3   6
ENDBRANCH   1   3
BRANCH   1  13
ATOM     12  C   UNL     1       0.674   3.975  20.061  0.00  0.00    +0.000 C 
ATOM     13  C   UNL     1       2.134   4.471  20.035  0.00  0.00    +0.000 C 
BRANCH  13  14
ATOM     14  C   UNL     1       2.203   5.856  20.721  0.00  0.00    +0.000 C 
BRANCH  14  15
ATOM     15  C   UNL     1       2.106   7.007  19.753  0.00  0.00    +0.000 A 
ATOM     16  C   UNL     1       2.571   7.070  18.454  0.00  0.00    +0.000 A 
ATOM     17  C   UNL     1       2.288   8.324  17.839  0.00  0.00    +0.000 A 
ATOM     18  C   UNL     1       1.638   9.183  18.696  0.00  0.00    +0.000 A 
ATOM     19  S   UNL     1       1.373   8.480  20.231  0.00  0.00    +0.000 S 
ENDBRANCH  14  15
ENDBRANCH  13  14
ENDBRANCH   1  13
TORSDOF 5
ENDMDL
MODEL 2
REMARK VINA RESULT:      -6.3      3.344      5.151
REMARK  Name = 
REMARK  7 active torsions:
REMARK  status: ('A' for Active; 'I' for Inactive)
REMARK    1  A    between atoms: C_1  and  C_2
REMARK    2  A    between atoms: C_2  and  C_3
REMARK    3  A    between atoms: C_2  and  N_9
REMARK    4  A    between atoms: C_3  and  C_4
REMARK    5  A    between atoms: N_9  and  C_10
REMARK    6  A    between atoms: N_9  and  S_11
REMARK    7  A    between atoms: S_11  and  C_14
REMARK                            x       y       z     vdW  Elec       q    Type
REMARK                         _______ _______ _______ _____ _____    ______ ____
ROOT
ATOM      1  N   UNL     1       5.452   5.154  16.895  0.00  0.00    +0.000 NA
ATOM      2  C   UNL     1       4.820   6.509  16.956  0.00  0.00    +0.000 C 
ENDROOT
BRANCH   1   3
ATOM      3  S   UNL     1       7.096   5.282  16.353  0.00  0.00    +0.000 S 
ATOM      4  O   UNL     1       7.469   6.679  16.327  0.00  0.00    +0.000 OA
ATOM      5  O   UNL     1       7.879   4.322  17.104  0.00  0.00    +0.000 OA
BRANCH   3   6
ATOM      6  C   UNL     1       7.039   4.778  14.666  0.00  0.00    +0.000 A 
ATOM      7  C   UNL     1       7.811   5.393  13.682  0.00  0.00    +0.000 A 
ATOM      8  C   UNL     1       7.656   4.991  12.359  0.00  0.00    +0.000 A 
ATOM      9  C   UNL     1       6.720   4.007  12.074  0.00  0.00    +0.000 A 
ATOM     10  N   UNL     1       5.947   3.412  13.010  0.00  0.00    +0.000 NA
ATOM     11  C   UNL     1       6.115   3.819  14.292  0.00  0.00    +0.000 A 
ENDBRANCH   3   6
ENDBRANCH   1   3
BRANCH   1  13
ATOM     12  C   UNL     1       4.853   5.302  19.338  0.00  0.00    +0.000 C 
ATOM     13  C   UNL     1       5.204   4.349  18.177  0.00  0.00    +0.000 C 
BRANCH  13  14
ATOM     14  C   UNL     1       4.077   3.299  18.035  0.00  0.00    +0.000 C 
BRANCH  14  15
ATOM     15  C   UNL     1       3.154   3.251  19.224  0.00  0.00    +0.000 A 
ATOM     16  C   UNL     1       3.360   2.626  20.439  0.00  0.00    +0.000 A 
ATOM     17  C   UNL     1       2.263   2.803  21.332  0.00  0.00    +0.000 A 
ATOM     18  C   UNL     1       1.247   3.537  20.760  0.00  0.00    +0.000 A 
ATOM     19  S   UNL     1       1.617   4.006  19.159  0.00  0.00    +0.000 S 
ENDBRANCH  14  15
ENDBRANCH  13  14
ENDBRANCH   1  13
TORSDOF 5
ENDMDL
MODEL 3
REMARK VINA RESULT:      -6.1      3.366      5.275
REMARK  Name = 
REMARK  7 active torsions:
REMARK  status: ('A' for Active; 'I' for Inactive)
REMARK    1  A    between atoms: C_1  and  C_2
REMARK    2  A    between atoms: C_2  and  C_3
REMARK    3  A    between atoms: C_2  and  N_9
REMARK    4  A    between atoms: C_3  and  C_4
REMARK    5  A    between atoms: N_9  and  C_10
REMARK    6  A    between atoms: N_9  and  S_11
REMARK    7  A    between atoms: S_11  and  C_14
REMARK                            x       y       z     vdW  Elec       q    Type
REMARK                         _______ _______ _______ _____ _____    ______ ____
ROOT
ATOM      1  N   UNL     1       4.997   5.725  16.432  0.00  0.00    +0.000 NA
ATOM      2  C   UNL     1       4.842   7.208  16.307  0.00  0.00    +0.000 C 
ENDROOT
BRANCH   1   3
ATOM      3  S   UNL     1       6.649   5.267  16.156  0.00  0.00    +0.000 S 
ATOM      4  O   UNL     1       7.477   6.451  16.231  0.00  0.00    +0.000 OA
ATOM      5  O   UNL     1       6.928   4.116  16.989  0.00  0.00    +0.000 OA
BRANCH   3   6
ATOM      6  C   UNL     1       6.687   4.773  14.466  0.00  0.00    +0.000 A 
ATOM      7  C   UNL     1       5.849   3.779  13.964  0.00  0.00    +0.000 A 
ATOM      8  C   UNL     1       5.989   3.391  12.636  0.00  0.00    +0.000 A 
ATOM      9  C   UNL     1       6.975   3.997  11.871  0.00  0.00    +0.000 A 
ATOM     10  N   UNL     1       7.811   4.949  12.343  0.00  0.00    +0.000 NA
ATOM     11  C   UNL     1       7.657   5.312  13.640  0.00  0.00    +0.000 A 
ENDBRANCH   3   6
ENDBRANCH   1   3
BRANCH   1  13
ATOM     12  C   UNL     1       3.544   6.312  18.405  0.00  0.00    +0.000 C 
ATOM     13  C   UNL     1       4.331   5.185  17.704  0.00  0.00    +0.000 C 
BRANCH  13  14
ATOM     14  C   UNL     1       3.376   3.998  17.442  0.00  0.00    +0.000 C 
BRANCH  14  15
ATOM     15  C   UNL     1       2.637   3.542  18.674  0.00  0.00    +0.000 A 
ATOM     16  C   UNL     1       1.284   3.629  18.938  0.00  0.00    +0.000 A 
ATOM     17  C   UNL     1       0.945   3.083  20.209  0.00  0.00    +0.000 A 
ATOM     18  C   UNL     1       2.053   2.621  20.883  0.00  0.00    +0.000 A 
ATOM     19  S   UNL     1       3.490   2.845  19.987  0.00  0.00    +0.000 S 
ENDBRANCH  14  15
ENDBRANCH  13  14
ENDBRANCH   1  13
TORSDOF 5
ENDMDL
MODEL 4
REMARK VINA RESULT:      -6.1      2.452      4.815
REMARK  Name = 
REMARK  7 active torsions:
REMARK  status: ('A' for Active; 'I' for Inactive)
REMARK    1  A    between atoms: C_1  and  C_2
REMARK    2  A    between atoms: C_2  and  C_3
REMARK    3  A    between atoms: C_2  and  N_9
REMARK    4  A    between atoms: C_3  and  C_4
REMARK    5  A    between atoms: N_9  and  C_10
REMARK    6  A    between atoms: N_9  and  S_11
REMARK    7  A    between atoms: S_11  and  C_14
REMARK                            x       y       z     vdW  Elec       q    Type
REMARK                         _______ _______ _______ _____ _____    ______ ____
ROOT
ATOM      1  N   UNL     1       2.652   4.359  18.453  0.00  0.00    +0.000 NA
ATOM      2  C   UNL     1       1.445   3.504  18.679  0.00  0.00    +0.000 C 
ENDROOT
BRANCH   1   3
ATOM      3  S   UNL     1       2.932   5.380  19.828  0.00  0.00    +0.000 S 
ATOM      4  O   UNL     1       2.090   4.934  20.917  0.00  0.00    +0.000 OA
ATOM      5  O   UNL     1       4.364   5.496  20.002  0.00  0.00    +0.000 OA
BRANCH   3   6
ATOM      6  C   UNL     1       2.286   6.946  19.345  0.00  0.00    +0.000 A 
ATOM      7  C   UNL     1       2.439   7.445  18.053  0.00  0.00    +0.000 A 
ATOM      8  C   UNL     1       1.966   8.722  17.767  0.00  0.00    +0.000 A 
ATOM      9  C   UNL     1       1.381   9.454  18.790  0.00  0.00    +0.000 A 
ATOM     10  N   UNL     1       1.241   8.997  20.055  0.00  0.00    +0.000 NA
ATOM     11  C   UNL     1       1.707   7.751  20.311  0.00  0.00    +0.000 A 
ENDBRANCH   3   6
ENDBRANCH   1   3
BRANCH   1  13
ATOM     12  C   UNL     1       3.402   2.093  17.643  0.00  0.00    +0.000 C 
ATOM     13  C   UNL     1       3.845   3.540  17.943  0.00  0.00    +0.000 C 
BRANCH  13  14
ATOM     14  C   UNL     1       4.500   4.134  16.674  0.00  0.00    +0.000 C 
BRANCH  14  15
ATOM     15  C   UNL     1       5.549   5.173  16.974  0.00  0.00    +0.000 A 
ATOM     16  C   UNL     1       5.512   6.527  16.703  0.00  0.00    +0.000 A 
ATOM     17  C   UNL     1       6.687   7.200  17.142  0.00  0.00    +0.000 A 
ATOM     18  C   UNL     1       7.593   6.334  17.714  0.00  0.00    +0.000 A 
ATOM     19  S   UNL     1       7.026   4.723  17.718  0.00  0.00    +0.000 S 
ENDBRANCH  14  15
ENDBRANCH  13  14
ENDBRANCH   1  13
TORSDOF 5
ENDMDL
MODEL 5
REMARK VINA RESULT:      -6.1      1.530      1.735
REMARK  Name = 
REMARK  7 active torsions:
REMARK  status: ('A' for Active; 'I' for Inactive)
REMARK    1  A    between atoms: C_1  and  C_2
REMARK    2  A    between atoms: C_2  and  C_3
REMARK    3  A    between atoms: C_2  and  N_9
REMARK    4  A    between atoms: C_3  and  C_4
REMARK    5  A    between atoms: N_9  and  C_10
REMARK    6  A    between atoms: N_9  and  S_11
REMARK    7  A    between atoms: S_11  and  C_14
REMARK                            x       y       z     vdW  Elec       q    Type
REMARK                         _______ _______ _______ _____ _____    ______ ____
ROOT
ATOM      1  N   UNL     1       3.185   3.829  19.241  0.00  0.00    +0.000 NA
ATOM      2  C   UNL     1       3.066   2.733  20.254  0.00  0.00    +0.000 C 
ENDROOT
BRANCH   1   3
ATOM      3  S   UNL     1       3.227   3.164  17.638  0.00  0.00    +0.000 S 
ATOM      4  O   UNL     1       3.716   1.804  17.712  0.00  0.00    +0.000 OA
ATOM      5  O   UNL     1       1.958   3.460  17.009  0.00  0.00    +0.000 OA
BRANCH   3   6
ATOM      6  C   UNL     1       4.496   4.075  16.824  0.00  0.00    +0.000 A 
ATOM      7  C   UNL     1       4.510   5.468  16.798  0.00  0.00    +0.000 A 
ATOM      8  C   UNL     1       5.503   6.117  16.071  0.00  0.00    +0.000 A 
ATOM      9  C   UNL     1       6.428   5.344  15.383  0.00  0.00    +0.000 A 
ATOM     10  N   UNL     1       6.421   3.992  15.379  0.00  0.00    +0.000 NA
ATOM     11  C   UNL     1       5.445   3.381  16.094  0.00  0.00    +0.000 A 
ENDBRANCH   3   6
ENDBRANCH   1   3
BRANCH   1  13
ATOM     12  C   UNL     1       1.124   4.497  20.529  0.00  0.00    +0.000 C 
ATOM     13  C   UNL     1       2.176   4.956  19.498  0.00  0.00    +0.000 C 
BRANCH  13  14
ATOM     14  C   UNL     1       2.831   6.263  20.002  0.00  0.00    +0.000 C 
BRANCH  14  15
ATOM     15  C   UNL     1       2.198   7.506  19.431  0.00  0.00    +0.000 A 
ATOM     16  C   UNL     1       2.252   7.971  18.131  0.00  0.00    +0.000 A 
ATOM     17  C   UNL     1       1.521   9.181  17.958  0.00  0.00    +0.000 A 
ATOM     18  C   UNL     1       0.953   9.613  19.137  0.00  0.00    +0.000 A 
ATOM     19  S   UNL     1       1.302   8.563  20.439  0.00  0.00    +0.000 S 
ENDBRANCH  14  15
ENDBRANCH  13  14
ENDBRANCH   1  13
TORSDOF 5
ENDMDL
MODEL 6
REMARK VINA RESULT:      -6.1      3.456      5.115
REMARK  Name = 
REMARK  7 active torsions:
REMARK  status: ('A' for Active; 'I' for Inactive)
REMARK    1  A    between atoms: C_1  and  C_2
REMARK    2  A    between atoms: C_2  and  C_3
REMARK    3  A    between atoms: C_2  and  N_9
REMARK    4  A    between atoms: C_3  and  C_4
REMARK    5  A    between atoms: N_9  and  C_10
REMARK    6  A    between atoms: N_9  and  S_11
REMARK    7  A    between atoms: S_11  and  C_14
REMARK                            x       y       z     vdW  Elec       q    Type
REMARK                         _______ _______ _______ _____ _____    ______ ____
ROOT
ATOM      1  N   UNL     1       5.473   5.131  16.932  0.00  0.00    +0.000 NA
ATOM      2  C   UNL     1       5.144   6.391  17.669  0.00  0.00    +0.000 C 
ENDROOT
BRANCH   1   3
ATOM      3  S   UNL     1       7.081   5.215  16.284  0.00  0.00    +0.000 S 
ATOM      4  O   UNL     1       7.500   6.600  16.262  0.00  0.00    +0.000 OA
ATOM      5  O   UNL     1       7.878   4.213  16.959  0.00  0.00    +0.000 OA
BRANCH   3   6
ATOM      6  C   UNL     1       6.893   4.754  14.594  0.00  0.00    +0.000 A 
ATOM      7  C   UNL     1       5.974   3.789  14.186  0.00  0.00    +0.000 A 
ATOM      8  C   UNL     1       5.935   3.425  12.844  0.00  0.00    +0.000 A 
ATOM      9  C   UNL     1       6.832   4.024  11.971  0.00  0.00    +0.000 A 
ATOM     10  N   UNL     1       7.745   4.947  12.350  0.00  0.00    +0.000 NA
ATOM     11  C   UNL     1       7.765   5.288  13.661  0.00  0.00    +0.000 A 
ENDBRANCH   3   6
ENDBRANCH   1   3
BRANCH   1  13
ATOM     12  C   UNL     1       5.163   4.209  19.257  0.00  0.00    +0.000 C 
ATOM     13  C   UNL     1       5.120   3.881  17.750  0.00  0.00    +0.000 C 
BRANCH  13  14
ATOM     14  C   UNL     1       3.732   3.294  17.406  0.00  0.00    +0.000 C 
BRANCH  14  15
ATOM     15  C   UNL     1       2.754   3.362  18.551  0.00  0.00    +0.000 A 
ATOM     16  C   UNL     1       2.366   2.346  19.402  0.00  0.00    +0.000 A 
ATOM     17  C   UNL     1       1.425   2.787  20.377  0.00  0.00    +0.000 A 
ATOM     18  C   UNL     1       1.109   4.119  20.222  0.00  0.00    +0.000 A 
ATOM     19  S   UNL     1       1.942   4.828  18.910  0.00  0.00    +0.000 S 
ENDBRANCH  14  15
ENDBRANCH  13  14
ENDBRANCH   1  13
TORSDOF 5
ENDMDL
MODEL 7
REMARK VINA RESULT:      -6.0      3.277      5.032
REMARK  Name = 
REMARK  7 active torsions:
REMARK  status: ('A' for Active; 'I' for Inactive)
REMARK    1  A    between atoms: C_1  and  C_2
REMARK    2  A    between atoms: C_2  and  C_3
REMARK    3  A    between atoms: C_2  and  N_9
REMARK    4  A    between atoms: C_3  and  C_4
REMARK    5  A    between atoms: N_9  and  C_10
REMARK    6  A    between atoms: N_9  and  S_11
REMARK    7  A    between atoms: S_11  and  C_14
REMARK                            x       y       z     vdW  Elec       q    Type
REMARK                         _______ _______ _______ _____ _____    ______ ____
ROOT
ATOM      1  N   UNL     1       5.566   4.886  17.115  0.00  0.00    +0.000 NA
ATOM      2  C   UNL     1       4.688   6.058  16.806  0.00  0.00    +0.000 C 
ENDROOT
BRANCH   1   3
ATOM      3  S   UNL     1       7.159   5.143  16.474  0.00  0.00    +0.000 S 
ATOM      4  O   UNL     1       7.435   6.563  16.473  0.00  0.00    +0.000 OA
ATOM      5  O   UNL     1       8.051   4.217  17.138  0.00  0.00    +0.000 OA
BRANCH   3   6
ATOM      6  C   UNL     1       7.022   4.690  14.777  0.00  0.00    +0.000 A 
ATOM      7  C   UNL     1       7.770   5.315  13.780  0.00  0.00    +0.000 A 
ATOM      8  C   UNL     1       7.553   4.954  12.454  0.00  0.00    +0.000 A 
ATOM      9  C   UNL     1       6.583   4.002  12.179  0.00  0.00    +0.000 A 
ATOM     10  N   UNL     1       5.833   3.399  13.129  0.00  0.00    +0.000 NA
ATOM     11  C   UNL     1       6.061   3.764  14.414  0.00  0.00    +0.000 A 
ENDBRANCH   3   6
ENDBRANCH   1   3
BRANCH   1  13
ATOM     12  C   UNL     1       4.646   5.512  19.376  0.00  0.00    +0.000 C 
ATOM     13  C   UNL     1       5.470   4.473  18.590  0.00  0.00    +0.000 C 
BRANCH  13  14
ATOM     14  C   UNL     1       4.840   3.076  18.796  0.00  0.00    +0.000 C 
BRANCH  14  15
ATOM     15  C   UNL     1       3.340   3.112  18.932  0.00  0.00    +0.000 A 
ATOM     16  C   UNL     1       2.399   3.327  17.944  0.00  0.00    +0.000 A 
ATOM     17  C   UNL     1       1.066   3.282  18.447  0.00  0.00    +0.000 A 
ATOM     18  C   UNL     1       1.036   3.058  19.805  0.00  0.00    +0.000 A 
ATOM     19  S   UNL     1       2.604   2.904  20.466  0.00  0.00    +0.000 S 
ENDBRANCH  14  15
ENDBRANCH  13  14
ENDBRANCH   1  13
TORSDOF 5
ENDMDL
MODEL 8
REMARK VINA RESULT:      -5.9      1.569      2.084
REMARK  Name = 
REMARK  7 active torsions:
REMARK  status: ('A' for Active; 'I' for Inactive)
REMARK    1  A    between atoms: C_1  and  C_2
REMARK    2  A    between atoms: C_2  and  C_3
REMARK    3  A    between atoms: C_2  and  N_9
REMARK    4  A    between atoms: C_3  and  C_4
REMARK    5  A    between atoms: N_9  and  C_10
REMARK    6  A    between atoms: N_9  and  S_11
REMARK    7  A    between atoms: S_11  and  C_14
REMARK                            x       y       z     vdW  Elec       q    Type
REMARK                         _______ _______ _______ _____ _____    ______ ____
ROOT
ATOM      1  N   UNL     1       3.066   3.689  19.321  0.00  0.00    +0.000 NA
ATOM      2  C   UNL     1       2.581   2.612  20.240  0.00  0.00    +0.000 C 
ENDROOT
BRANCH   1   3
ATOM      3  S   UNL     1       3.313   3.051  17.725  0.00  0.00    +0.000 S 
ATOM      4  O   UNL     1       3.695   1.660  17.835  0.00  0.00    +0.000 OA
ATOM      5  O   UNL     1       2.178   3.444  16.917  0.00  0.00    +0.000 OA
BRANCH   3   6
ATOM      6  C   UNL     1       4.749   3.887  17.140  0.00  0.00    +0.000 A 
ATOM      7  C   UNL     1       4.978   4.107  15.783  0.00  0.00    +0.000 A 
ATOM      8  C   UNL     1       6.170   4.709  15.393  0.00  0.00    +0.000 A 
ATOM      9  C   UNL     1       7.092   5.043  16.374  0.00  0.00    +0.000 A 
ATOM     10  N   UNL     1       6.899   4.820  17.693  0.00  0.00    +0.000 NA
ATOM     11  C   UNL     1       5.730   4.235  18.051  0.00  0.00    +0.000 A 
ENDBRANCH   3   6
ENDBRANCH   1   3
BRANCH   1  13
ATOM     12  C   UNL     1       1.219   4.828  20.602  0.00  0.00    +0.000 C 
ATOM     13  C   UNL     1       2.219   4.963  19.435  0.00  0.00    +0.000 C 
BRANCH  13  14
ATOM     14  C   UNL     1       3.061   6.244  19.645  0.00  0.00    +0.000 C 
BRANCH  14  15
ATOM     15  C   UNL     1       2.266   7.513  19.482  0.00  0.00    +0.000 A 
ATOM     16  C   UNL     1       1.502   8.168  20.428  0.00  0.00    +0.000 A 
ATOM     17  C   UNL     1       0.899   9.351  19.913  0.00  0.00    +0.000 A 
ATOM     18  C   UNL     1       1.203   9.547  18.583  0.00  0.00    +0.000 A 
ATOM     19  S   UNL     1       2.209   8.311  17.967  0.00  0.00    +0.000 S 
ENDBRANCH  14  15
ENDBRANCH  13  14
ENDBRANCH   1  13
TORSDOF 5
ENDMDL
MODEL 9
REMARK VINA RESULT:      -5.9      3.497      5.279
REMARK  Name = 
REMARK  7 active torsions:
REMARK  status: ('A' for Active; 'I' for Inactive)
REMARK    1  A    between atoms: C_1  and  C_2
REMARK    2  A    between atoms: C_2  and  C_3
REMARK    3  A    between atoms: C_2  and  N_9
REMARK    4  A    between atoms: C_3  and  C_4
REMARK    5  A    between atoms: N_9  and  C_10
REMARK    6  A    between atoms: N_9  and  S_11
REMARK    7  A    between atoms: S_11  and  C_14
REMARK                            x       y       z     vdW  Elec       q    Type
REMARK                         _______ _______ _______ _____ _____    ______ ____
ROOT
ATOM      1  N   UNL     1       5.402   5.313  16.728  0.00  0.00    +0.000 NA
ATOM      2  C   UNL     1       4.854   6.682  16.476  0.00  0.00    +0.000 C 
ENDROOT
BRANCH   1   3
ATOM      3  S   UNL     1       7.048   5.214  16.185  0.00  0.00    +0.000 S 
ATOM      4  O   UNL     1       7.622   6.542  16.198  0.00  0.00    +0.000 OA
ATOM      5  O   UNL     1       7.681   4.129  16.905  0.00  0.00    +0.000 OA
BRANCH   3   6
ATOM      6  C   UNL     1       6.919   4.774  14.485  0.00  0.00    +0.000 A 
ATOM      7  C   UNL     1       6.045   3.785  14.038  0.00  0.00    +0.000 A 
ATOM      8  C   UNL     1       6.053   3.441  12.690  0.00  0.00    +0.000 A 
ATOM      9  C   UNL     1       6.950   4.084  11.850  0.00  0.00    +0.000 A 
ATOM     10  N   UNL     1       7.821   5.032  12.266  0.00  0.00    +0.000 NA
ATOM     11  C   UNL     1       7.795   5.352  13.583  0.00  0.00    +0.000 A 
ENDBRANCH   3   6
ENDBRANCH   1   3
BRANCH   1  13
ATOM     12  C   UNL     1       6.083   5.516  19.146  0.00  0.00    +0.000 C 
ATOM     13  C   UNL     1       5.113   4.836  18.158  0.00  0.00    +0.000 C 
BRANCH  13  14
ATOM     14  C   UNL     1       3.661   5.109  18.615  0.00  0.00    +0.000 C 
BRANCH  14  15
ATOM     15  C   UNL     1       3.210   4.212  19.738  0.00  0.00    +0.000 A 
ATOM     16  C   UNL     1       3.626   2.926  20.021  0.00  0.00    +0.000 A 
ATOM     17  C   UNL     1       2.984   2.391  21.174  0.00  0.00    +0.000 A 
ATOM     18  C   UNL     1       2.081   3.277  21.719  0.00  0.00    +0.000 A 
ATOM     19  S   UNL     1       2.012   4.742  20.843  0.00  0.00    +0.000 S 
ENDBRANCH  14  15
ENDBRANCH  13  14
ENDBRANCH   1  13
TORSDOF 5
ENDMDL
